REMARK  Name = ZINCrg00000SjSwz.1
REMARK                            x       y       z     vdW  Elec       q    Type
REMARK                         _______ _______ _______ _____ _____    ______ ____
ROOT
ATOM      1  C   LIG    1       -0.720   1.598   1.266  0.00  0.00    +0.170 C 
ATOM      2  C   LIG    1       -0.009   1.093   0.008  0.00  0.00    +0.210 C 
ATOM      3  N   LIG    1       -0.709   1.597  -1.182  0.00  0.00    -0.450 N 
ATOM      4  C   LIG    1       -0.747   3.066  -1.181  0.00  0.00    +0.190 C 
ATOM      5  C   LIG    1       -1.452   3.552   0.088  0.00  0.00    +0.230 C 
ATOM      6  O   LIG    1       -0.775   3.027   1.234  0.00  0.00    -0.360 OA
ENDROOT
BRANCH   3   7
ATOM      7  C   LIG    1       -0.126   1.117  -2.342  0.00  0.00    +0.550 A 
ATOM      8  N   LIG    1       -0.631   1.471  -3.514  0.00  0.00    -0.570 NA
ATOM      9  C   LIG    1       -0.093   1.027  -4.645  0.00  0.00    +0.470 A 
ATOM     10  C   LIG    1        1.014   0.179  -4.582  0.00  0.00    -0.110 A 
ATOM     11  C   LIG    1        1.510  -0.166  -3.339  0.00  0.00    +0.150 A 
ATOM     12  N   LIG    1        0.927   0.318  -2.252  0.00  0.00    -0.560 NA
BRANCH  11  13
ATOM     13  C   LIG    1        2.704  -1.078  -3.222  0.00  0.00    +0.530 C 
ATOM     14  F   LIG    1        2.727  -1.958  -4.310  0.00  0.00    -0.170 F 
ATOM     15  F   LIG    1        2.617  -1.809  -2.033  0.00  0.00    -0.160 F 
ATOM     16  F   LIG    1        3.876  -0.314  -3.215  0.00  0.00    -0.170 F 
ENDBRANCH  11  13
BRANCH   9  17
ATOM     17  N   LIG    1       -0.624   1.400  -5.869  0.00  0.00    -0.590 N 
ATOM     18  C   LIG    1       -1.716   2.374  -5.928  0.00  0.00    +0.300 C 
ATOM     19  C   LIG    1       -0.094   0.819  -7.105  0.00  0.00    +0.320 C 
ENDBRANCH   9  17
ENDBRANCH   3   7
BRANCH   1  20
ATOM     20  C   LIG    1        0.051   1.144   2.506  0.00  0.00    +0.200 C 
BRANCH  20  25
ATOM     21  C   LIG    1       -2.352   1.865   7.567  0.00  0.00    +0.190 C 
ATOM     22  N   LIG    1       -1.662   1.390   6.360  0.00  0.00    -0.550 NA
ATOM     23  C   LIG    1       -2.567   1.386   5.203  0.00  0.00    +0.180 C 
ATOM     24  C   LIG    1       -1.835   0.811   3.988  0.00  0.00    +0.170 C 
ATOM     25  N   LIG    1       -0.638   1.619   3.713  0.00  0.00    -0.530 NA
ATOM     26  C   LIG    1        0.267   1.623   4.870  0.00  0.00    +0.180 C 
ATOM     27  C   LIG    1       -0.465   2.197   6.086  0.00  0.00    +0.180 C 
ENDBRANCH  20  25
ENDBRANCH   1  20
TORSDOF 5
