REMARK  Name = ZINCpe000000Y3m3.0
REMARK                            x       y       z     vdW  Elec       q    Type
REMARK                         _______ _______ _______ _____ _____    ______ ____
ROOT
ATOM      1  C   LIG    1        1.851  -4.150  -0.978  0.00  0.00    +0.040 C 
ENDROOT
BRANCH   1   2
ATOM      2  C   LIG    1        0.901  -5.160  -0.331  0.00  0.00    +0.290 C 
BRANCH   2  14
ATOM      3  C   LIG    1        0.102  -6.640  -2.569  0.00  0.00    +0.160 C 
ATOM      4  C   LIG    1        1.062  -7.251  -1.582  0.00  0.00    +0.400 A 
ATOM      5  N   LIG    1        1.495  -8.454  -1.808  0.00  0.00    -0.520 NA
ATOM      6  C   LIG    1        2.357  -9.071  -0.961  0.00  0.00    +0.150 A 
ATOM      7  C   LIG    1        2.819 -10.367  -1.201  0.00  0.00    +0.030 A 
ATOM      8  C   LIG    1        3.693 -10.954  -0.314  0.00  0.00    +0.070 A 
ATOM      9  C   LIG    1        4.122 -10.274   0.818  0.00  0.00    -0.010 A 
ATOM     10  C   LIG    1        3.681  -8.994   1.076  0.00  0.00    +0.100 A 
ATOM     11  C   LIG    1        2.796  -8.382   0.192  0.00  0.00    -0.200 A 
ATOM     12  C   LIG    1        2.291  -7.019   0.415  0.00  0.00    +0.550 A 
ATOM     13  O   LIG    1        2.631  -6.370   1.387  0.00  0.00    -0.510 OA
ATOM     14  N   LIG    1        1.435  -6.513  -0.504  0.00  0.00    -0.540 N 
ENDBRANCH   2  14
ENDBRANCH   1   2
BRANCH   1  15
ATOM     15  C   LIG    1        1.293  -2.737  -0.797  0.00  0.00    +0.070 C 
BRANCH  15  16
ATOM     16  C   LIG    1        2.229  -1.742  -1.434  0.00  0.00    +0.530 C 
ATOM     17  N   LIG    1        1.940  -0.426  -1.399  0.00  0.00    -0.620 N 
ATOM     18  C   LIG    1        0.752   0.173  -0.774  0.00  0.00    +0.260 C 
ATOM     19  C   LIG    1        0.860   1.702  -0.956  0.00  0.00    +0.060 C 
ATOM     20  C   LIG    1        2.381   1.918  -1.175  0.00  0.00    -0.010 C 
ATOM     21  C   LIG    1        2.763   0.650  -1.979  0.00  0.00    +0.290 C 
ATOM     22  O   LIG    1        3.242  -2.126  -1.980  0.00  0.00    -0.530 OA
BRANCH  20  23
ATOM     23  C   LIG    1        2.638   3.166  -1.980  0.00  0.00    +0.530 C 
ATOM     24  O   LIG    1        3.193   3.090  -3.056  0.00  0.00    -0.530 OA
ATOM     25  N   LIG    1        2.251   4.366  -1.506  0.00  0.00    -0.850 N 
ATOM     26  H   LIG    1        2.417   5.169  -2.024  0.00  0.00    +0.410 HD
ATOM     27  H   LIG    1        1.807   4.427  -0.645  0.00  0.00    +0.400 HD
ENDBRANCH  20  23
ENDBRANCH  15  16
ENDBRANCH   1  15
TORSDOF 5
