REMARK  Name = ZINCpk000000n174.0
REMARK                            x       y       z     vdW  Elec       q    Type
REMARK                         _______ _______ _______ _____ _____    ______ ____
ROOT
ATOM      1  C   LIG    1       -3.610   2.738   3.117  0.00  0.00    +0.590 C 
ATOM      2  N   LIG    1       -4.666   2.780   2.280  0.00  0.00    -0.740 N 
ATOM      3  H   LIG    1       -4.559   2.522   1.351  0.00  0.00    +0.390 HD
ATOM      4  O   LIG    1       -3.743   3.063   4.282  0.00  0.00    -0.520 OA
ENDROOT
BRANCH   1   9
ATOM      5  C   LIG    1       -0.138   1.751   2.494  0.00  0.00    -0.260 A 
ATOM      6  C   LIG    1       -0.717   1.576   1.246  0.00  0.00    +0.100 A 
ATOM      7  N   LIG    1       -2.012   1.913   1.331  0.00  0.00    -0.530 N 
ATOM      8  H   LIG    1       -2.648   1.886   0.599  0.00  0.00    +0.420 HD
ATOM      9  C   LIG    1       -2.299   2.300   2.622  0.00  0.00    -0.070 A 
ATOM     10  C   LIG    1       -0.009   1.095   0.005  0.00  0.00    +0.160 C 
ATOM     11  C   LIG    1       -1.157   2.213   3.361  0.00  0.00    -0.020 A 
ATOM     12  C   LIG    1       -1.007   2.545   4.823  0.00  0.00    +0.120 C 
BRANCH   5  14
ATOM     13  C   LIG    1        1.710   0.118   3.236  0.00  0.00    +0.080 C 
ATOM     14  C   LIG    1        1.264   1.504   2.847  0.00  0.00    +0.440 C 
ATOM     15  O   LIG    1        2.064   2.416   2.827  0.00  0.00    -0.450 OA
ENDBRANCH   5  14
ENDBRANCH   1   9
BRANCH   2  16
ATOM     16  C   LIG    1       -5.974   3.217   2.774  0.00  0.00    +0.290 C 
BRANCH  16  17
ATOM     17  C   LIG    1       -6.991   3.174   1.631  0.00  0.00    +0.080 C 
BRANCH  17  18
ATOM     18  C   LIG    1       -8.337   3.623   2.138  0.00  0.00    -0.020 A 
ATOM     19  C   LIG    1       -9.227   2.697   2.650  0.00  0.00    +0.010 A 
ATOM     20  C   LIG    1      -10.459   3.110   3.120  0.00  0.00    +0.130 A 
ATOM     21  C   LIG    1      -10.806   4.447   3.069  0.00  0.00    -0.680 A 
ATOM     22  C   LIG    1       -9.918   5.372   2.552  0.00  0.00    +0.130 A 
ATOM     23  C   LIG    1       -8.683   4.960   2.087  0.00  0.00    +0.010 A 
BRANCH  21  24
ATOM     24  S   LIG    1      -12.380   4.973   3.661  0.00  0.00    +2.700 S 
ATOM     25  O   LIG    1      -12.245   6.347   3.995  0.00  0.00    -0.960 OA
ATOM     26  O   LIG    1      -12.810   3.986   4.589  0.00  0.00    -0.960 OA
BRANCH  24  27
ATOM     27  N   LIG    1      -13.432   4.904   2.384  0.00  0.00    -1.250 NA
ATOM     28  H   LIG    1      -13.109   5.044   1.480  0.00  0.00    +0.420 HD
ATOM     29  H   LIG    1      -14.373   4.723   2.540  0.00  0.00    +0.420 HD
ENDBRANCH  24  27
ENDBRANCH  21  24
ENDBRANCH  17  18
ENDBRANCH  16  17
ENDBRANCH   2  16
TORSDOF 7
