REMARK  Name = ZINCpk000005ZC5C.0
REMARK                            x       y       z     vdW  Elec       q    Type
REMARK                         _______ _______ _______ _____ _____    ______ ____
ROOT
ATOM      1  C   LIG    1        1.455  -2.846  -0.027  0.00  0.00    +0.560 C 
ATOM      2  N   LIG    1        2.147  -3.997  -0.142  0.00  0.00    -0.610 N 
ATOM      3  C   LIG    1        3.618  -3.996  -0.166  0.00  0.00    +0.250 C 
ATOM      4  C   LIG    1        4.087  -4.814  -1.369  0.00  0.00    +0.220 C 
ATOM      5  O   LIG    1        3.452  -6.095  -1.347  0.00  0.00    -0.370 OA
ATOM      6  C   LIG    1        2.027  -6.043  -1.459  0.00  0.00    +0.190 C 
ATOM      7  C   LIG    1        1.453  -5.290  -0.254  0.00  0.00    +0.290 C 
ATOM      8  O   LIG    1        0.243  -2.872   0.060  0.00  0.00    -0.510 OA
ENDROOT
BRANCH   1  13
ATOM      9  O   LIG    1        0.278   1.567  -3.317  0.00  0.00    -0.480 OA
ATOM     10  C   LIG    1        0.926   1.031  -2.443  0.00  0.00    +0.540 C 
ATOM     11  C   LIG    1        0.737  -0.377  -1.919  0.00  0.00    +0.150 C 
ATOM     12  C   LIG    1        1.804  -0.516  -0.860  0.00  0.00    -0.150 A 
ATOM     13  C   LIG    1        2.171  -1.549  -0.007  0.00  0.00    -0.030 A 
ATOM     14  C   LIG    1        3.239  -1.328   0.873  0.00  0.00    -0.020 A 
ATOM     15  C   LIG    1        3.873  -0.102   0.852  0.00  0.00    +0.330 A 
ATOM     16  N   LIG    1        3.494   0.852   0.028  0.00  0.00    -0.490 NA
ATOM     17  C   LIG    1        2.488   0.694  -0.827  0.00  0.00    +0.360 A 
ATOM     18  N   LIG    1        1.950   1.572  -1.762  0.00  0.00    -0.640 N 
ATOM     19  H   LIG    1        2.277   2.474  -1.907  0.00  0.00    +0.420 HD
ENDBRANCH   1  13
BRANCH   6  20
ATOM     20  C   LIG    1        1.474  -7.445  -1.486  0.00  0.00    -0.070 A 
ATOM     21  C   LIG    1        2.015  -8.417  -0.665  0.00  0.00    +0.030 A 
ATOM     22  C   LIG    1        1.509  -9.704  -0.686  0.00  0.00    +0.030 A 
ATOM     23  C   LIG    1        0.462 -10.021  -1.530  0.00  0.00    -0.010 A 
ATOM     24  C   LIG    1       -0.082  -9.048  -2.356  0.00  0.00    +0.110 A 
ATOM     25  C   LIG    1        0.424  -7.756  -2.328  0.00  0.00    +0.000 A 
BRANCH  24  26
ATOM     26  O   LIG    1       -1.112  -9.358  -3.187  0.00  0.00    -0.500 OA
ATOM     27  H   LIG    1       -1.986  -9.232  -2.793  0.00  0.00    +0.390 HD
ENDBRANCH  24  26
ENDBRANCH   6  20
TORSDOF 3
