REMARK  Name = ZINCrH000004v0je.0
REMARK                            x       y       z     vdW  Elec       q    Type
REMARK                         _______ _______ _______ _____ _____    ______ ____
ROOT
ATOM      1  C   LIG    1        0.731   1.294   0.068  0.00  0.00    -0.110 A 
ATOM      2  C   LIG    1        2.072   0.924  -0.045  0.00  0.00    +0.030 A 
ATOM      3  C   LIG    1        2.415  -0.409  -0.138  0.00  0.00    +0.040 A 
ATOM      4  C   LIG    1        1.434  -1.383  -0.122  0.00  0.00    +0.010 A 
ATOM      5  C   LIG    1        0.095  -1.025  -0.011  0.00  0.00    +0.150 A 
ATOM      6  C   LIG    1       -0.260   0.312   0.084  0.00  0.00    +0.100 A 
ENDROOT
BRANCH   1   9
ATOM      7  N   LIG    1        1.320   3.669   0.152  0.00  0.00    -0.660 N 
ATOM      8  H   LIG    1        2.245   3.421  -0.002  0.00  0.00    +0.400 HD
ATOM      9  C   LIG    1        0.361   2.722   0.168  0.00  0.00    +0.570 C 
ATOM     10  O   LIG    1       -0.808   3.042   0.264  0.00  0.00    -0.500 OA
BRANCH   7  18
ATOM     11  O   LIG    1        0.090   4.604   2.438  0.00  0.00    -0.500 OA
ATOM     12  C   LIG    1        0.349   5.420   1.564  0.00  0.00    +0.390 A 
ATOM     13  C   LIG    1        0.024   6.784   1.732  0.00  0.00    -0.130 A 
ATOM     14  C   LIG    1        0.322   7.662   0.748  0.00  0.00    +0.300 A 
ATOM     15  N   LIG    1        0.925   7.249  -0.392  0.00  0.00    -0.580 N 
ATOM     16  H   LIG    1        1.128   7.898  -1.083  0.00  0.00    +0.420 HD
ATOM     17  C   LIG    1        1.256   5.946  -0.587  0.00  0.00    +0.290 A 
ATOM     18  C   LIG    1        0.980   5.015   0.359  0.00  0.00    -0.020 A 
ENDBRANCH   7  18
ENDBRANCH   1   9
BRANCH   5  19
ATOM     19  N   LIG    1       -0.894  -2.013   0.005  0.00  0.00    -0.640 N 
ATOM     20  H   LIG    1       -0.781  -2.821  -0.520  0.00  0.00    +0.420 HD
BRANCH  19  21
ATOM     21  C   LIG    1       -2.030  -1.839   0.767  0.00  0.00    +0.460 A 
ATOM     22  N   LIG    1       -2.151  -0.801   1.583  0.00  0.00    -0.580 NA
ATOM     23  C   LIG    1       -3.239  -0.621   2.316  0.00  0.00    +0.550 A 
ATOM     24  N   LIG    1       -4.257  -1.448   2.299  0.00  0.00    -0.540 NA
ATOM     25  C   LIG    1       -4.237  -2.534   1.513  0.00  0.00    +0.190 A 
ATOM     26  C   LIG    1       -5.306  -3.439   1.470  0.00  0.00    +0.030 A 
ATOM     27  C   LIG    1       -5.234  -4.528   0.653  0.00  0.00    +0.060 A 
ATOM     28  C   LIG    1       -4.113  -4.757  -0.140  0.00  0.00    +0.000 A 
ATOM     29  C   LIG    1       -3.055  -3.896  -0.122  0.00  0.00    +0.060 A 
ATOM     30  C   LIG    1       -3.098  -2.769   0.705  0.00  0.00    -0.190 A 
ENDBRANCH  19  21
ENDBRANCH   5  19
TORSDOF 4
