REMARK  Name = ZINCqH0000007CrH.0
REMARK                            x       y       z     vdW  Elec       q    Type
REMARK                         _______ _______ _______ _____ _____    ______ ____
ROOT
ATOM      1  C   LIG    1        7.766   0.718   0.708  0.00  0.00    +0.570 C 
ATOM      2  N   LIG    1        6.912   0.479  -0.307  0.00  0.00    -0.600 N 
ATOM      3  C   LIG    1        7.059   1.201  -1.573  0.00  0.00    +0.290 C 
ATOM      4  O   LIG    1        7.705   0.052   1.723  0.00  0.00    -0.510 OA
ENDROOT
BRANCH   1   9
ATOM      5  C   LIG    1       11.053   2.554   0.800  0.00  0.00    +0.110 A 
ATOM      6  C   LIG    1       10.666   3.808   0.359  0.00  0.00    -0.040 A 
ATOM      7  C   LIG    1        9.343   4.057   0.033  0.00  0.00    +0.050 A 
ATOM      8  C   LIG    1        8.400   3.059   0.139  0.00  0.00    +0.030 A 
ATOM      9  C   LIG    1        8.774   1.789   0.588  0.00  0.00    -0.110 A 
ATOM     10  C   LIG    1       10.111   1.536   0.917  0.00  0.00    +0.110 A 
BRANCH   5  12
ATOM     11  C   LIG    1       13.266   3.407   0.974  0.00  0.00    +0.240 C 
ATOM     12  O   LIG    1       12.354   2.317   1.118  0.00  0.00    -0.300 OA
ENDBRANCH   5  12
BRANCH  10  13
ATOM     13  O   LIG    1       10.486   0.305   1.349  0.00  0.00    -0.310 OA
ATOM     14  C   LIG    1       10.896  -0.635   0.354  0.00  0.00    +0.230 C 
ENDBRANCH  10  13
ENDBRANCH   1   9
BRANCH   2  15
ATOM     15  C   LIG    1        5.838  -0.504  -0.145  0.00  0.00    +0.340 C 
BRANCH  15  16
ATOM     16  C   LIG    1        4.609   0.180   0.394  0.00  0.00    +0.500 C 
ATOM     17  N   LIG    1        3.487  -0.532   0.624  0.00  0.00    -0.670 N 
ATOM     18  H   LIG    1        3.495  -1.496   0.520  0.00  0.00    +0.420 HD
ATOM     19  O   LIG    1        4.628   1.372   0.620  0.00  0.00    -0.500 OA
BRANCH  17  20
ATOM     20  C   LIG    1        2.312   0.121   1.014  0.00  0.00    +0.170 A 
ATOM     21  C   LIG    1        1.458  -0.476   1.932  0.00  0.00    +0.010 A 
ATOM     22  C   LIG    1        0.298   0.169   2.315  0.00  0.00    +0.070 A 
ATOM     23  C   LIG    1       -0.013   1.409   1.787  0.00  0.00    -0.050 A 
ATOM     24  C   LIG    1        0.837   2.007   0.871  0.00  0.00    -0.010 A 
ATOM     25 CL   LIG    1        0.444   3.563   0.209  0.00  0.00    -0.040 Cl
ATOM     26 CL   LIG    1       -1.468   2.220   2.277  0.00  0.00    -0.050 Cl
ATOM     27  C   LIG    1        1.999   1.365   0.484  0.00  0.00    +0.050 A 
ENDBRANCH  17  20
ENDBRANCH  15  16
ENDBRANCH   2  15
TORSDOF 6
