REMARK  Name = ZINCpe000000Yt0h.0
REMARK                            x       y       z     vdW  Elec       q    Type
REMARK                         _______ _______ _______ _____ _____    ______ ____
ROOT
ATOM      1  N   LIG    1       -8.158   4.893  -0.836  0.00  0.00    -0.490 N 
ATOM      2  C   LIG    1       -7.806   5.570   0.420  0.00  0.00    +0.200 C 
ATOM      3  C   LIG    1       -6.364   6.076   0.337  0.00  0.00    +0.200 C 
ATOM      4  N   LIG    1       -5.464   4.942   0.083  0.00  0.00    -0.540 NA
ATOM      5  C   LIG    1       -5.816   4.265  -1.172  0.00  0.00    +0.190 C 
ATOM      6  C   LIG    1       -7.258   3.759  -1.089  0.00  0.00    +0.210 C 
ENDROOT
BRANCH   1  11
ATOM      7  F   LIG    1      -13.428   3.261  -0.792  0.00  0.00    -0.140 F 
ATOM      8  C   LIG    1      -12.138   3.660  -0.802  0.00  0.00    +0.070 A 
ATOM      9  C   LIG    1      -11.345   3.409  -1.910  0.00  0.00    +0.010 A 
ATOM     10  C   LIG    1      -10.026   3.816  -1.923  0.00  0.00    +0.030 A 
ATOM     11  C   LIG    1       -9.494   4.479  -0.825  0.00  0.00    +0.100 A 
ATOM     12  C   LIG    1      -10.289   4.726   0.287  0.00  0.00    +0.000 A 
ATOM     13  C   LIG    1      -11.610   4.321   0.294  0.00  0.00    +0.010 A 
ENDBRANCH   1  11
BRANCH   4  14
ATOM     14  C   LIG    1       -4.061   5.377   0.072  0.00  0.00    +0.180 C 
BRANCH  14  15
ATOM     15  C   LIG    1       -3.147   4.149   0.056  0.00  0.00    +0.270 C 
BRANCH  15  16
ATOM     16  N   LIG    1       -1.748   4.582   0.044  0.00  0.00    -0.690 N 
ATOM     17  H   LIG    1       -1.533   5.528   0.047  0.00  0.00    +0.420 HD
BRANCH  16  18
ATOM     18  C   LIG    1       -0.728   3.638   0.029  0.00  0.00    +0.410 A 
ATOM     19  N   LIG    1       -1.027   2.358   0.029  0.00  0.00    -0.290 NA
ATOM     20  N   LIG    1       -0.017   1.396   0.010  0.00  0.00    -0.170 N 
ATOM     21  N   LIG    1        0.002  -0.004   0.002  0.00  0.00    -0.050 NA
ATOM     22  N   LIG    1        1.241  -0.365  -0.012  0.00  0.00    -0.030 NA
ATOM     23  N   LIG    1        2.015   0.662  -0.014  0.00  0.00    -0.290 NA
ATOM     24  C   LIG    1        1.297   1.776  -0.001  0.00  0.00    +0.180 A 
ATOM     25  C   LIG    1        1.618   3.146   0.004  0.00  0.00    +0.180 A 
ATOM     26  C   LIG    1        0.613   4.062   0.018  0.00  0.00    +0.020 A 
ENDBRANCH  16  18
ENDBRANCH  15  16
ENDBRANCH  14  15
ENDBRANCH   4  14
TORSDOF 5
