REMARK  Name = ZINCqH000000982X.0
REMARK                            x       y       z     vdW  Elec       q    Type
REMARK                         _______ _______ _______ _____ _____    ______ ____
ROOT
ATOM      1  N   LIG    1       -4.272   1.385  -2.519  0.00  0.00    -0.730 N 
ATOM      2  H   LIG    1       -4.748   0.894  -1.831  0.00  0.00    +0.400 HD
ATOM      3  C   LIG    1       -2.958   1.645  -2.375  0.00  0.00    +0.520 C 
ATOM      4  O   LIG    1       -2.363   2.258  -3.235  0.00  0.00    -0.530 OA
ENDROOT
BRANCH   3   5
ATOM      5  C   LIG    1       -2.228   1.174  -1.143  0.00  0.00    -0.010 C 
ATOM      6  C   LIG    1       -0.759   1.596  -1.228  0.00  0.00    +0.050 C 
ATOM      7  C   LIG    1       -0.013   1.086   0.008  0.00  0.00    +0.300 C 
ATOM      8  N   LIG    1       -0.706   1.562   1.213  0.00  0.00    -0.600 N 
ATOM      9  C   LIG    1       -2.146   1.289   1.351  0.00  0.00    +0.290 C 
ATOM     10  C   LIG    1       -0.037   2.238   2.168  0.00  0.00    +0.650 C 
ATOM     11  O   LIG    1        1.151   2.458   2.038  0.00  0.00    -0.560 OA
ATOM     12  C   LIG    1       -2.868   1.797   0.099  0.00  0.00    +0.030 C 
BRANCH  10  13
ATOM     13  O   LIG    1       -0.685   2.669   3.267  0.00  0.00    -0.360 OA
BRANCH  13  14
ATOM     14  C   LIG    1        0.099   3.389   4.254  0.00  0.00    +0.140 C 
ATOM     15  C   LIG    1        1.225   2.489   4.767  0.00  0.00    +0.040 C 
ATOM     16  C   LIG    1       -0.801   3.796   5.422  0.00  0.00    +0.080 C 
ATOM     17  C   LIG    1        0.700   4.642   3.613  0.00  0.00    +0.040 C 
ENDBRANCH  13  14
ENDBRANCH  10  13
ENDBRANCH   3   5
BRANCH   1  19
ATOM     18  C   LIG    1       -4.806   0.817  -4.838  0.00  0.00    +0.040 C 
ATOM     19  C   LIG    1       -4.982   1.842  -3.716  0.00  0.00    +0.280 C 
BRANCH  19  20
ATOM     20  C   LIG    1       -6.448   1.997  -3.403  0.00  0.00    -0.070 A 
ATOM     21  C   LIG    1       -7.086   1.062  -2.609  0.00  0.00    +0.040 A 
ATOM     22  C   LIG    1       -8.430   1.204  -2.316  0.00  0.00    +0.030 A 
ATOM     23  C   LIG    1       -9.140   2.277  -2.825  0.00  0.00    +0.070 A 
ATOM     24  C   LIG    1       -8.501   3.212  -3.627  0.00  0.00    +0.080 A 
ATOM     25  F   LIG    1       -9.191   4.260  -4.125  0.00  0.00    -0.120 F 
ATOM     26  F   LIG    1      -10.454   2.414  -2.543  0.00  0.00    -0.130 F 
ATOM     27  C   LIG    1       -7.155   3.070  -3.914  0.00  0.00    +0.040 A 
ENDBRANCH  19  20
ENDBRANCH   1  19
TORSDOF 5
