REMARK  Name = ZINCqH0000001Ndu.0
REMARK                            x       y       z     vdW  Elec       q    Type
REMARK                         _______ _______ _______ _____ _____    ______ ____
ROOT
ATOM      1  N   LIG    1       -3.553   7.320   0.370  0.00  0.00    -0.720 N 
ATOM      2  H   LIG    1       -2.645   7.661   0.350  0.00  0.00    +0.430 HD
ENDROOT
BRANCH   1   3
ATOM      3  C   LIG    1       -4.621   8.198   0.503  0.00  0.00    +0.280 A 
ATOM      4  C   LIG    1       -5.914   7.709   0.639  0.00  0.00    -0.080 A 
ATOM      5  C   LIG    1       -6.974   8.583   0.772  0.00  0.00    +0.090 A 
ATOM      6  C   LIG    1       -6.758   9.952   0.771  0.00  0.00    -0.060 A 
ATOM      7  C   LIG    1       -5.483  10.456   0.637  0.00  0.00    +0.090 A 
ATOM      8  C   LIG    1       -4.399   9.584   0.507  0.00  0.00    -0.230 A 
BRANCH   8   9
ATOM      9  C   LIG    1       -3.031  10.117   0.370  0.00  0.00    +0.570 C 
ATOM     10  N   LIG    1       -2.833  11.445   0.262  0.00  0.00    -0.700 N 
ATOM     11  H   LIG    1       -3.590  12.051   0.274  0.00  0.00    +0.400 HD
ATOM     12  O   LIG    1       -2.082   9.357   0.354  0.00  0.00    -0.540 OA
BRANCH  10  13
ATOM     13  C   LIG    1       -1.474  11.974   0.125  0.00  0.00    +0.220 C 
ATOM     14  C   LIG    1       -1.108  13.207   0.954  0.00  0.00    +0.010 C 
ATOM     15  C   LIG    1       -1.310  13.334  -0.558  0.00  0.00    +0.020 C 
ENDBRANCH  10  13
ENDBRANCH   8   9
ENDBRANCH   1   3
BRANCH   1  16
ATOM     16  C   LIG    1       -3.798   5.880   0.260  0.00  0.00    +0.300 C 
BRANCH  16  19
ATOM     17  N   LIG    1       -2.463   3.813   0.010  0.00  0.00    -0.670 N 
ATOM     18  H   LIG    1       -3.294   3.321  -0.072  0.00  0.00    +0.410 HD
ATOM     19  C   LIG    1       -2.484   5.156   0.126  0.00  0.00    +0.510 C 
ATOM     20  O   LIG    1       -1.444   5.781   0.124  0.00  0.00    -0.500 OA
BRANCH  17  26
ATOM     21  C   LIG    1       -1.140   1.890  -0.610  0.00  0.00    -0.110 A 
ATOM     22  C   LIG    1        0.065   1.216  -0.607  0.00  0.00    +0.030 A 
ATOM     23  C   LIG    1        1.173   1.779  -0.001  0.00  0.00    -0.010 A 
ATOM     24  C   LIG    1        1.077   3.017   0.609  0.00  0.00    +0.030 A 
ATOM     25  C   LIG    1       -0.128   3.693   0.614  0.00  0.00    +0.010 A 
ATOM     26  C   LIG    1       -1.242   3.130   0.006  0.00  0.00    +0.150 A 
BRANCH  21  28
ATOM     27  C   LIG    1       -2.005   0.933  -2.728  0.00  0.00    +0.040 C 
ATOM     28  C   LIG    1       -2.345   1.277  -1.276  0.00  0.00    +0.020 C 
ATOM     29  C   LIG    1       -2.748   0.003  -0.530  0.00  0.00    +0.030 C 
ENDBRANCH  21  28
ENDBRANCH  17  26
ENDBRANCH  16  19
ENDBRANCH   1  16
TORSDOF 7
