REMARK  Name = ZINCkj000005kukm.0
REMARK                            x       y       z     vdW  Elec       q    Type
REMARK                         _______ _______ _______ _____ _____    ______ ____
ROOT
ATOM      1  C   LIG    1       -2.795   1.581   2.343  0.00  0.00    +0.240 C 
ENDROOT
BRANCH   1   8
ATOM      2  C   LIG    1       -2.533   3.592   4.401  0.00  0.00    +0.090 C 
ATOM      3  C   LIG    1       -2.548   3.997   2.950  0.00  0.00    -0.050 A 
ATOM      4  C   LIG    1       -2.432   5.330   2.603  0.00  0.00    +0.040 A 
ATOM      5  C   LIG    1       -2.451   5.702   1.272  0.00  0.00    +0.050 A 
ATOM      6  C   LIG    1       -2.582   4.741   0.287  0.00  0.00    +0.030 A 
ATOM      7  C   LIG    1       -2.693   3.407   0.634  0.00  0.00    +0.000 A 
ATOM      8  C   LIG    1       -2.673   3.035   1.965  0.00  0.00    -0.130 A 
ENDBRANCH   1   8
BRANCH   1   9
ATOM      9  N   LIG    1       -2.460   0.744   1.183  0.00  0.00    -0.490 N 
ATOM     10  H   LIG    1       -2.641  -0.224   1.403  0.00  0.00    +0.440 HD
ATOM     11  H   LIG    1       -3.024   1.021   0.394  0.00  0.00    +0.430 HD
BRANCH   9  12
ATOM     12  C   LIG    1       -1.039   0.913   0.852  0.00  0.00    +0.270 C 
BRANCH  12  13
ATOM     13  C   LIG    1       -0.690   0.041  -0.356  0.00  0.00    +0.160 C 
ATOM     14  C   LIG    1        0.790   0.217  -0.702  0.00  0.00    +0.050 C 
BRANCH  13  15
ATOM     15  O   LIG    1       -0.947  -1.330  -0.045  0.00  0.00    -0.580 OA
ATOM     16  H   LIG    1       -0.747  -1.941  -0.767  0.00  0.00    +0.410 HD
ENDBRANCH  13  15
ENDBRANCH  12  13
ENDBRANCH   9  12
ENDBRANCH   1   9
BRANCH   1  17
ATOM     17  C   LIG    1       -4.229   1.288   2.786  0.00  0.00    +0.210 C 
BRANCH  17  18
ATOM     18  N   LIG    1       -5.138   1.446   1.643  0.00  0.00    -0.550 NA
ATOM     19  C   LIG    1       -5.535   2.852   1.477  0.00  0.00    +0.150 C 
ATOM     20  C   LIG    1       -6.431   2.980   0.242  0.00  0.00    +0.220 C 
ATOM     21  O   LIG    1       -7.558   2.112   0.384  0.00  0.00    -0.380 OA
ATOM     22  C   LIG    1       -7.207   0.735   0.547  0.00  0.00    +0.230 C 
ATOM     23  C   LIG    1       -6.320   0.584   1.785  0.00  0.00    +0.160 C 
ENDBRANCH  17  18
ENDBRANCH   1  17
TORSDOF 7
