REMARK  Name = ZINCpe00000VVGhy.1
REMARK                            x       y       z     vdW  Elec       q    Type
REMARK                         _______ _______ _______ _____ _____    ______ ____
ROOT
ATOM      1  C   LIG    1        2.107   1.484   1.224  0.00  0.00    +0.290 C 
ATOM      2  C   LIG    1        1.350   2.006  -0.000  0.00  0.00    +0.170 C 
ATOM      3  N   LIG    1       -0.018   1.466   0.010  0.00  0.00    -0.520 NA
ATOM      4  C   LIG    1        0.002  -0.004   0.002  0.00  0.00    +0.160 C 
ATOM      5  C   LIG    1        0.773  -0.505   1.226  0.00  0.00    +0.240 C 
ATOM      6  O   LIG    1        2.090   0.054   1.216  0.00  0.00    -0.370 OA
ENDROOT
BRANCH   1   9
ATOM      7  C   LIG    1        5.309   3.111   1.640  0.00  0.00    +0.290 A 
ATOM      8  N   LIG    1        4.045   2.941   1.933  0.00  0.00    -0.530 NA
ATOM      9  C   LIG    1        3.533   1.970   1.177  0.00  0.00    +0.230 A 
ATOM     10  N   LIG    1        4.469   1.503   0.394  0.00  0.00    -0.280 NA
ATOM     11  N   LIG    1        5.635   2.236   0.673  0.00  0.00    -0.480 N 
ATOM     12  H   LIG    1        6.503   2.129   0.254  0.00  0.00    +0.440 HD
BRANCH   7  13
ATOM     13  C   LIG    1        6.237   4.113   2.276  0.00  0.00    +0.150 C 
BRANCH  13  15
ATOM     14  C   LIG    1        7.226   6.398   2.065  0.00  0.00    +0.030 C 
ATOM     15  C   LIG    1        6.283   5.381   1.420  0.00  0.00    +0.010 C 
ENDBRANCH  13  15
ENDBRANCH   7  13
ENDBRANCH   1   9
BRANCH   3  16
ATOM     16  C   LIG    1       -0.798   1.988  -1.120  0.00  0.00    +0.220 C 
BRANCH  16  17
ATOM     17  C   LIG    1       -2.247   1.609  -0.948  0.00  0.00    +0.520 C 
ATOM     18  N   LIG    1       -3.155   1.983  -1.870  0.00  0.00    -0.730 N 
ATOM     19  H   LIG    1       -2.877   2.497  -2.644  0.00  0.00    +0.400 HD
ATOM     20  O   LIG    1       -2.595   0.967   0.021  0.00  0.00    -0.520 OA
BRANCH  18  21
ATOM     21  C   LIG    1       -4.563   1.615  -1.703  0.00  0.00    +0.330 C 
BRANCH  21  22
ATOM     22  C   LIG    1       -5.364   2.150  -2.862  0.00  0.00    -0.160 A 
ATOM     23  C   LIG    1       -5.543   1.386  -4.004  0.00  0.00    +0.080 A 
ATOM     24  C   LIG    1       -6.287   1.919  -5.045  0.00  0.00    -0.030 A 
ATOM     25  C   LIG    1       -6.822   3.186  -4.911  0.00  0.00    +0.270 A 
ATOM     26  N   LIG    1       -6.631   3.885  -3.809  0.00  0.00    -0.480 NA
ATOM     27  C   LIG    1       -5.934   3.408  -2.797  0.00  0.00    +0.280 A 
ENDBRANCH  21  22
ENDBRANCH  18  21
ENDBRANCH  16  17
ENDBRANCH   3  16
TORSDOF 7
