REMARK  Name = ZINCpe00000VVGhy.0
REMARK                            x       y       z     vdW  Elec       q    Type
REMARK                         _______ _______ _______ _____ _____    ______ ____
ROOT
ATOM      1  C   LIG    1       -2.111   1.940   6.776  0.00  0.00    +0.280 C 
ATOM      2  C   LIG    1       -1.556   2.513   8.083  0.00  0.00    +0.190 C 
ATOM      3  N   LIG    1       -2.298   1.941   9.216  0.00  0.00    -0.520 NA
ATOM      4  C   LIG    1       -3.733   2.240   9.103  0.00  0.00    +0.150 C 
ATOM      5  C   LIG    1       -4.266   1.670   7.786  0.00  0.00    +0.250 C 
ATOM      6  O   LIG    1       -3.512   2.213   6.698  0.00  0.00    -0.370 OA
ENDROOT
BRANCH   1  10
ATOM      7  C   LIG    1       -0.283   2.902   3.785  0.00  0.00    +0.190 A 
ATOM      8  N   LIG    1       -0.644   4.051   4.287  0.00  0.00    -0.290 NA
ATOM      9  N   LIG    1       -1.312   3.861   5.370  0.00  0.00    -0.260 NA
ATOM     10  C   LIG    1       -1.407   2.581   5.607  0.00  0.00    +0.180 A 
ATOM     11  N   LIG    1       -0.762   1.936   4.606  0.00  0.00    -0.570 N 
ATOM     12  H   LIG    1       -0.661   0.977   4.500  0.00  0.00    +0.430 HD
BRANCH   7  13
ATOM     13  C   LIG    1        0.513   2.688   2.524  0.00  0.00    +0.150 C 
BRANCH  13  15
ATOM     14  C   LIG    1        0.626   3.176   0.076  0.00  0.00    +0.020 C 
ATOM     15  C   LIG    1       -0.182   3.393   1.357  0.00  0.00    +0.020 C 
ENDBRANCH  13  15
ENDBRANCH   7  13
ENDBRANCH   1  10
BRANCH   3  16
ATOM     16  C   LIG    1       -1.759   2.422  10.495  0.00  0.00    +0.220 C 
BRANCH  16  17
ATOM     17  C   LIG    1       -0.363   1.889  10.684  0.00  0.00    +0.510 C 
ATOM     18  N   LIG    1        0.380   2.300  11.731  0.00  0.00    -0.730 N 
ATOM     19  H   LIG    1        0.015   2.940  12.363  0.00  0.00    +0.400 HD
ATOM     20  O   LIG    1        0.093   1.089   9.895  0.00  0.00    -0.520 OA
BRANCH  18  21
ATOM     21  C   LIG    1        1.738   1.782  11.915  0.00  0.00    +0.330 C 
BRANCH  21  22
ATOM     22  C   LIG    1        2.347   2.396  13.149  0.00  0.00    -0.170 A 
ATOM     23  C   LIG    1        3.068   3.576  13.063  0.00  0.00    +0.080 A 
ATOM     24  C   LIG    1        3.606   4.108  14.226  0.00  0.00    -0.030 A 
ATOM     25  C   LIG    1        3.417   3.440  15.421  0.00  0.00    +0.270 A 
ATOM     26  N   LIG    1        2.729   2.316  15.464  0.00  0.00    -0.480 NA
ATOM     27  C   LIG    1        2.199   1.785  14.380  0.00  0.00    +0.280 A 
ENDBRANCH  21  22
ENDBRANCH  18  21
ENDBRANCH  16  17
ENDBRANCH   3  16
TORSDOF 7
