REMARK  Name = ZINCpe00000VVGhy.2
REMARK                            x       y       z     vdW  Elec       q    Type
REMARK                         _______ _______ _______ _____ _____    ______ ____
ROOT
ATOM      1  C   LIG    1       -1.192  -0.192   0.211  0.00  0.00    +0.270 C 
ATOM      2  C   LIG    1       -2.188  -0.104   1.371  0.00  0.00    +0.190 C 
ATOM      3  N   LIG    1       -3.226  -1.130   1.197  0.00  0.00    -0.520 NA
ATOM      4  C   LIG    1       -3.926  -0.952  -0.083  0.00  0.00    +0.150 C 
ATOM      5  C   LIG    1       -2.912  -1.031  -1.228  0.00  0.00    +0.250 C 
ATOM      6  O   LIG    1       -1.894  -0.048  -1.026  0.00  0.00    -0.370 OA
ENDROOT
BRANCH   1  11
ATOM      7  C   LIG    1        0.713   2.871   0.540  0.00  0.00    +0.230 A 
ATOM      8  N   LIG    1        1.715   2.032   0.504  0.00  0.00    -0.300 NA
ATOM      9  N   LIG    1        1.164   0.747   0.375  0.00  0.00    -0.470 N 
ATOM     10  H   LIG    1        1.650  -0.091   0.320  0.00  0.00    +0.440 HD
ATOM     11  C   LIG    1       -0.170   0.908   0.341  0.00  0.00    +0.290 A 
ATOM     12  N   LIG    1       -0.426   2.187   0.441  0.00  0.00    -0.510 NA
BRANCH   7  13
ATOM     13  C   LIG    1        0.828   4.367   0.672  0.00  0.00    +0.150 C 
BRANCH  13  15
ATOM     14  C   LIG    1        0.933   6.271   2.287  0.00  0.00    +0.030 C 
ATOM     15  C   LIG    1        0.816   4.751   2.153  0.00  0.00    +0.010 C 
ENDBRANCH  13  15
ENDBRANCH   7  13
ENDBRANCH   1  11
BRANCH   3  16
ATOM     16  C   LIG    1       -4.172  -1.117   2.321  0.00  0.00    +0.220 C 
BRANCH  16  17
ATOM     17  C   LIG    1       -3.463  -1.544   3.580  0.00  0.00    +0.510 C 
ATOM     18  N   LIG    1       -4.101  -1.487   4.765  0.00  0.00    -0.730 N 
ATOM     19  H   LIG    1       -5.018  -1.172   4.808  0.00  0.00    +0.400 HD
ATOM     20  O   LIG    1       -2.317  -1.938   3.527  0.00  0.00    -0.520 OA
BRANCH  18  21
ATOM     21  C   LIG    1       -3.412  -1.902   5.990  0.00  0.00    +0.330 C 
BRANCH  21  22
ATOM     22  C   LIG    1       -4.339  -1.743   7.167  0.00  0.00    -0.170 A 
ATOM     23  C   LIG    1       -4.375  -0.553   7.877  0.00  0.00    +0.080 A 
ATOM     24  C   LIG    1       -5.248  -0.450   8.949  0.00  0.00    -0.030 A 
ATOM     25  C   LIG    1       -6.039  -1.534   9.280  0.00  0.00    +0.270 A 
ATOM     26  N   LIG    1       -5.974  -2.653   8.585  0.00  0.00    -0.480 NA
ATOM     27  C   LIG    1       -5.160  -2.785   7.556  0.00  0.00    +0.280 A 
ENDBRANCH  21  22
ENDBRANCH  18  21
ENDBRANCH  16  17
ENDBRANCH   3  16
TORSDOF 7
