REMARK  Name = ZINCrH000004n5KR.0
REMARK                            x       y       z     vdW  Elec       q    Type
REMARK                         _______ _______ _______ _____ _____    ______ ____
ROOT
ATOM      1  C   LIG    1        0.072  -4.280  -0.019  0.00  0.00    +0.190 C 
ATOM      2  C   LIG    1       -0.023  -4.800  -1.465  0.00  0.00    +0.020 C 
ATOM      3  C   LIG    1        1.263  -5.629  -1.681  0.00  0.00    +0.010 C 
ATOM      4  C   LIG    1        1.689  -5.991  -0.236  0.00  0.00    +0.180 C 
ATOM      5  N   LIG    1        1.355  -4.766   0.533  0.00  0.00    -0.490 NA
ENDROOT
BRANCH   1   9
ATOM      6  C   LIG    1        0.002  -0.004   0.002  0.00  0.00    +0.160 A 
ATOM      7  C   LIG    1        1.213  -0.682  -0.013  0.00  0.00    -0.120 A 
ATOM      8  C   LIG    1        1.232  -2.064  -0.020  0.00  0.00    +0.140 A 
ATOM      9  C   LIG    1        0.047  -2.774  -0.012  0.00  0.00    -0.140 A 
ATOM     10  C   LIG    1       -1.167  -2.100   0.003  0.00  0.00    +0.170 A 
ATOM     11  C   LIG    1       -1.189  -0.714   0.015  0.00  0.00    -0.120 A 
BRANCH   6  13
ATOM     12  C   LIG    1        1.248   2.021   0.001  0.00  0.00    +0.250 C 
ATOM     13  O   LIG    1       -0.016   1.355   0.009  0.00  0.00    -0.320 OA
ENDBRANCH   6  13
BRANCH  10  14
ATOM     14  O   LIG    1       -2.332  -2.799   0.012  0.00  0.00    -0.310 OA
ATOM     15  C   LIG    1       -3.543  -2.041   0.028  0.00  0.00    +0.250 C 
ENDBRANCH  10  14
ENDBRANCH   1   9
BRANCH   5  16
ATOM     16  C   LIG    1        1.233  -5.061   1.967  0.00  0.00    +0.210 C 
BRANCH  16  17
ATOM     17  C   LIG    1        2.472  -5.778   2.439  0.00  0.00    +0.520 C 
ATOM     18  N   LIG    1        2.584  -6.152   3.729  0.00  0.00    -0.730 N 
ATOM     19  H   LIG    1        1.867  -5.959   4.354  0.00  0.00    +0.400 HD
ATOM     20  O   LIG    1        3.368  -6.019   1.658  0.00  0.00    -0.520 OA
BRANCH  18  21
ATOM     21  C   LIG    1        3.788  -6.849   4.188  0.00  0.00    +0.290 C 
ATOM     22  C   LIG    1        3.643  -8.348   3.919  0.00  0.00    +0.040 C 
BRANCH  21  23
ATOM     23  C   LIG    1        3.969  -6.619   5.666  0.00  0.00    -0.090 A 
ATOM     24  C   LIG    1        2.871  -6.623   6.506  0.00  0.00    +0.000 A 
ATOM     25  C   LIG    1        3.037  -6.417   7.863  0.00  0.00    +0.000 A 
ATOM     26  C   LIG    1        4.301  -6.196   8.378  0.00  0.00    +0.000 A 
ATOM     27  C   LIG    1        5.398  -6.186   7.538  0.00  0.00    +0.020 A 
ATOM     28  C   LIG    1        5.232  -6.398   6.182  0.00  0.00    +0.020 A 
ENDBRANCH  21  23
ENDBRANCH  18  21
ENDBRANCH  16  17
ENDBRANCH   5  16
TORSDOF 7
