REMARK  Name = ZINCnE000001L21d.2
REMARK                            x       y       z     vdW  Elec       q    Type
REMARK                         _______ _______ _______ _____ _____    ______ ____
ROOT
ATOM      1  N   LIG    1       -0.018   1.465   0.010  0.00  0.00    -0.520 NA
ATOM      2  C   LIG    1        1.351   2.012   0.000  0.00  0.00    +0.180 C 
ATOM      3  C   LIG    1        1.464   2.939  -1.229  0.00  0.00    +0.000 C 
ATOM      4  C   LIG    1       -0.013   3.309  -1.524  0.00  0.00    +0.040 C 
ATOM      5  C   LIG    1       -0.744   1.991  -1.165  0.00  0.00    +0.220 C 
ENDROOT
BRANCH   5   6
ATOM      6  C   LIG    1       -2.183   2.268  -0.812  0.00  0.00    -0.240 A 
ATOM      7  C   LIG    1       -3.224   2.015  -1.616  0.00  0.00    -0.030 A 
ATOM      8  C   LIG    1       -4.453   2.341  -1.099  0.00  0.00    +0.010 A 
ATOM      9  C   LIG    1       -4.385   2.881   0.158  0.00  0.00    -0.230 A 
ATOM     10  S   LIG    1       -2.702   2.954   0.661  0.00  0.00    +0.240 S 
BRANCH   9  11
ATOM     11  C   LIG    1       -5.494   3.312   0.929  0.00  0.00    +0.540 C 
ATOM     12  O   LIG    1       -5.317   3.783   2.046  0.00  0.00    -0.690 OA
ATOM     13  O   LIG    1       -6.628   3.215   0.477  0.00  0.00    -0.680 OA
ENDBRANCH   9  11
ENDBRANCH   5   6
BRANCH   1  14
ATOM     14  C   LIG    1        0.002  -0.004   0.002  0.00  0.00    +0.250 C 
BRANCH  14  21
ATOM     15  C   LIG    1       -0.386  -0.754   2.359  0.00  0.00    +0.100 A 
ATOM     16  C   LIG    1        0.097  -1.218   3.578  0.00  0.00    -0.030 A 
ATOM     17  C   LIG    1        1.462  -1.416   3.713  0.00  0.00    +0.000 A 
ATOM     18  C   LIG    1        2.292  -1.147   2.641  0.00  0.00    +0.080 A 
ATOM     19  N   LIG    1        1.802  -0.713   1.497  0.00  0.00    -0.440 NA
ATOM     20  C   LIG    1        3.778  -1.361   2.780  0.00  0.00    +0.120 C 
ATOM     21  C   LIG    1        0.510  -0.507   1.329  0.00  0.00    +0.120 A 
BRANCH  15  23
ATOM     22  C   LIG    1       -2.573  -0.822   3.289  0.00  0.00    +0.250 C 
ATOM     23  O   LIG    1       -1.717  -0.544   2.179  0.00  0.00    -0.290 OA
ENDBRANCH  15  23
ENDBRANCH  14  21
ENDBRANCH   1  14
TORSDOF 5
