REMARK  Name = ZINCrH00000No4Tc.0
REMARK                            x       y       z     vdW  Elec       q    Type
REMARK                         _______ _______ _______ _____ _____    ______ ____
ROOT
ATOM      1  N   LIG    1       -0.874   2.070   1.418  0.00  0.00    -1.110 NA
ATOM      2  H   LIG    1       -0.543   2.681   2.094  0.00  0.00    +0.420 HD
ENDROOT
BRANCH   1   3
ATOM      3  S   LIG    1       -0.021   1.846   0.016  0.00  0.00    +2.690 S 
ATOM      4  O   LIG    1        1.109   2.704   0.092  0.00  0.00    -0.960 OA
ATOM      5  O   LIG    1        0.080   0.442  -0.173  0.00  0.00    -0.950 OA
BRANCH   3   7
ATOM      6  C   LIG    1       -0.618   3.505  -2.007  0.00  0.00    +0.210 C 
ATOM      7  C   LIG    1       -1.018   2.455  -1.303  0.00  0.00    -0.600 C 
BRANCH   6  12
ATOM      8  C   LIG    1       -3.874   5.491  -6.316  0.00  0.00    +0.100 C 
ATOM      9  C   LIG    1       -3.022   4.971  -5.187  0.00  0.00    -0.060 A 
ATOM     10  C   LIG    1       -1.822   5.592  -4.888  0.00  0.00    +0.000 A 
ATOM     11  C   LIG    1       -1.036   5.120  -3.856  0.00  0.00    +0.050 A 
ATOM     12  C   LIG    1       -1.455   4.015  -3.114  0.00  0.00    -0.110 A 
ATOM     13  C   LIG    1       -2.663   3.390  -3.424  0.00  0.00    +0.050 A 
ATOM     14  C   LIG    1       -3.442   3.875  -4.455  0.00  0.00    +0.000 A 
ENDBRANCH   6  12
ENDBRANCH   3   7
ENDBRANCH   1   3
BRANCH   1  15
ATOM     15  C   LIG    1       -2.127   1.344   1.636  0.00  0.00    +0.280 C 
BRANCH  15  16
ATOM     16  C   LIG    1       -2.517   1.433   3.113  0.00  0.00    -0.020 C 
ATOM     17  C   LIG    1       -3.789   0.616   3.358  0.00  0.00    +0.020 C 
ATOM     18  C   LIG    1       -4.939   1.225   2.548  0.00  0.00    +0.210 C 
ATOM     19  O   LIG    1       -5.112   2.593   2.922  0.00  0.00    -0.380 OA
ATOM     20  C   LIG    1       -3.969   3.415   2.672  0.00  0.00    +0.210 C 
ATOM     21  C   LIG    1       -2.782   2.895   3.486  0.00  0.00    +0.010 C 
BRANCH  16  22
ATOM     22  C   LIG    1       -1.398   0.890   3.964  0.00  0.00    -0.080 A 
ATOM     23  C   LIG    1       -0.792   1.699   4.907  0.00  0.00    +0.050 A 
ATOM     24  C   LIG    1        0.231   1.201   5.691  0.00  0.00    -0.010 A 
ATOM     25  C   LIG    1        0.657  -0.106   5.524  0.00  0.00    +0.100 A 
ATOM     26  C   LIG    1        0.053  -0.914   4.575  0.00  0.00    -0.010 A 
ATOM     27  F   LIG    1        1.661  -0.593   6.286  0.00  0.00    -0.140 F 
ATOM     28  C   LIG    1       -0.974  -0.415   3.796  0.00  0.00    +0.050 A 
ENDBRANCH  16  22
ENDBRANCH  15  16
ENDBRANCH   1  15
TORSDOF 6
