REMARK  Name = ZINCvU0000000EmH.0
REMARK                            x       y       z     vdW  Elec       q    Type
REMARK                         _______ _______ _______ _____ _____    ______ ____
ROOT
ATOM      1  C   LIG    1        0.037   1.574   0.033  0.00  0.00    +0.380 C 
ENDROOT
BRANCH   1   2
ATOM      2  C   LIG    1        0.065   0.068  -0.007  0.00  0.00    -0.140 A 
ATOM      3  C   LIG    1       -0.964  -0.686   0.407  0.00  0.00    +0.040 A 
ATOM      4  S   LIG    1       -0.566  -2.387   0.206  0.00  0.00    +0.220 S 
ATOM      5  C   LIG    1        1.018  -1.972  -0.435  0.00  0.00    -0.230 A 
ATOM      6  C   LIG    1        2.061  -2.965  -0.880  0.00  0.00    +0.140 C 
ATOM      7  C   LIG    1        1.158  -0.647  -0.468  0.00  0.00    -0.060 A 
ATOM      8  C   LIG    1        2.411   0.024  -0.969  0.00  0.00    +0.120 C 
BRANCH   3   9
ATOM      9  N   LIG    1       -2.168  -0.195   0.917  0.00  0.00    -0.630 N 
ATOM     10  H   LIG    1       -2.343   0.759   0.915  0.00  0.00    +0.420 HD
ATOM     11  C   LIG    1       -3.088  -1.047   1.411  0.00  0.00    +0.600 C 
ATOM     12  O   LIG    1       -2.869  -2.245   1.414  0.00  0.00    -0.490 OA
BRANCH  11  13
ATOM     13  C   LIG    1       -4.352  -0.532   1.946  0.00  0.00    -0.090 A 
ATOM     14  C   LIG    1       -5.364  -1.281   2.475  0.00  0.00    +0.060 A 
ATOM     15  C   LIG    1       -6.372  -0.383   2.860  0.00  0.00    -0.060 A 
ATOM     16  C   LIG    1       -5.936   0.859   2.554  0.00  0.00    +0.230 A 
ATOM     17  O   LIG    1       -4.716   0.765   2.009  0.00  0.00    -0.170 OA
ENDBRANCH  11  13
ENDBRANCH   3   9
ENDBRANCH   1   2
BRANCH   1  23
ATOM     18  C   LIG    1       -0.469   2.170  -2.350  0.00  0.00    +0.140 A 
ATOM     19  C   LIG    1       -1.334   2.637  -3.329  0.00  0.00    -0.070 A 
ATOM     20  C   LIG    1       -2.614   3.030  -2.989  0.00  0.00    +0.050 A 
ATOM     21  C   LIG    1       -3.036   2.952  -1.675  0.00  0.00    -0.030 A 
ATOM     22  C   LIG    1       -2.178   2.481  -0.698  0.00  0.00    +0.040 A 
ATOM     23  C   LIG    1       -0.897   2.087  -1.033  0.00  0.00    -0.130 A 
BRANCH  18  25
ATOM     24  C   LIG    1        1.164   1.901  -4.056  0.00  0.00    +0.240 C 
ATOM     25  O   LIG    1        0.792   1.788  -2.681  0.00  0.00    -0.310 OA
ENDBRANCH  18  25
ENDBRANCH   1  23
BRANCH   1  26
ATOM     26  N   LIG    1       -0.430   2.020   1.348  0.00  0.00    -0.730 N 
ATOM     27  H   LIG    1       -0.942   1.417   1.910  0.00  0.00    +0.400 HD
BRANCH  26  28
ATOM     28  C   LIG    1       -0.141   3.305   1.790  0.00  0.00    +0.400 A 
ATOM     29  C   LIG    1        0.594   4.164   0.978  0.00  0.00    -0.100 A 
ATOM     30  C   LIG    1        0.874   5.441   1.430  0.00  0.00    +0.100 A 
ATOM     31  C   LIG    1        0.410   5.818   2.683  0.00  0.00    -0.100 A 
ATOM     32  C   LIG    1       -0.313   4.914   3.436  0.00  0.00    +0.310 A 
ATOM     33  N   LIG    1       -0.571   3.704   2.977  0.00  0.00    -0.540 NA
ENDBRANCH  26  28
ENDBRANCH   1  26
TORSDOF 7
