REMARK  Name = ZINCpe000000YCYV.0
REMARK                            x       y       z     vdW  Elec       q    Type
REMARK                         _______ _______ _______ _____ _____    ______ ____
ROOT
ATOM      1  C   LIG    1       -1.365  -0.197   4.055  0.00  0.00    +0.210 A 
ATOM      2  N   LIG    1       -0.922  -0.857   3.003  0.00  0.00    -0.300 NA
ATOM      3  N   LIG    1       -0.008  -0.140   2.444  0.00  0.00    -0.130 N 
ATOM      4  N   LIG    1        0.145   0.950   3.111  0.00  0.00    -0.040 NA
ATOM      5  N   LIG    1       -0.676   0.953   4.105  0.00  0.00    -0.270 NA
ENDROOT
BRANCH   1   9
ATOM      6  C   LIG    1       -4.392  -1.467   6.764  0.00  0.00    -0.120 A 
ATOM      7  C   LIG    1       -3.761  -0.234   6.949  0.00  0.00    +0.090 A 
ATOM      8  C   LIG    1       -2.782   0.175   6.072  0.00  0.00    +0.070 A 
ATOM      9  C   LIG    1       -2.420  -0.639   4.999  0.00  0.00    +0.010 A 
ATOM     10  C   LIG    1       -3.053  -1.868   4.811  0.00  0.00    +0.050 A 
ATOM     11  C   LIG    1       -4.029  -2.282   5.689  0.00  0.00    +0.040 A 
BRANCH   6  15
ATOM     12  N   LIG    1       -6.052  -3.096   7.525  0.00  0.00    -0.850 N 
ATOM     13  H   LIG    1       -6.742  -3.386   8.142  0.00  0.00    +0.410 HD
ATOM     14  H   LIG    1       -5.800  -3.663   6.779  0.00  0.00    +0.400 HD
ATOM     15  C   LIG    1       -5.444  -1.907   7.703  0.00  0.00    +0.560 C 
ATOM     16  O   LIG    1       -5.760  -1.197   8.638  0.00  0.00    -0.530 OA
ENDBRANCH   6  15
ENDBRANCH   1   9
BRANCH   3  17
ATOM     17  C   LIG    1        0.742  -0.511   1.242  0.00  0.00    +0.360 C 
BRANCH  17  18
ATOM     18  C   LIG    1        0.002  -0.004   0.002  0.00  0.00    +0.220 C 
BRANCH  18  19
ATOM     19  O   LIG    1       -0.017   1.425   0.010  0.00  0.00    -0.540 OA
ATOM     20  H   LIG    1        0.861   1.830   0.004  0.00  0.00    +0.380 HD
ENDBRANCH  18  19
BRANCH  18  21
ATOM     21  C   LIG    1        0.718  -0.497  -1.257  0.00  0.00    +0.190 C 
BRANCH  21  22
ATOM     22  O   LIG    1       -0.036  -0.123  -2.412  0.00  0.00    -0.300 OA
BRANCH  22  23
ATOM     23  C   LIG    1        0.466  -0.488  -3.621  0.00  0.00    +0.130 A 
ATOM     24  C   LIG    1        1.662  -1.187  -3.695  0.00  0.00    -0.080 A 
ATOM     25  C   LIG    1        2.167  -1.561  -4.925  0.00  0.00    +0.050 A 
ATOM     26  C   LIG    1        1.486  -1.231  -6.082  0.00  0.00    -0.030 A 
ATOM     27  C   LIG    1        0.297  -0.529  -6.012  0.00  0.00    +0.050 A 
ATOM     28  C   LIG    1       -0.215  -0.157  -4.784  0.00  0.00    -0.020 A 
ENDBRANCH  22  23
ENDBRANCH  21  22
ENDBRANCH  18  21
ENDBRANCH  17  18
ENDBRANCH   3  17
TORSDOF 8
