REMARK  Name = ZINCpk000004ASnB.0
REMARK                            x       y       z     vdW  Elec       q    Type
REMARK                         _______ _______ _______ _____ _____    ______ ____
ROOT
ATOM      1  C   LIG    1       -2.921   0.697   4.418  0.00  0.00    -0.020 C 
ATOM      2  C   LIG    1       -3.263   1.956   3.618  0.00  0.00    +0.020 C 
ATOM      3  C   LIG    1       -3.981   1.554   2.326  0.00  0.00    +0.290 C 
ATOM      4  N   LIG    1       -3.146   0.587   1.601  0.00  0.00    -1.000 NA
ATOM      5  C   LIG    1       -2.689  -0.619   2.305  0.00  0.00    +0.290 C 
ATOM      6  C   LIG    1       -1.981  -0.191   3.599  0.00  0.00    +0.020 C 
ENDROOT
BRANCH   4   7
ATOM      7  S   LIG    1       -2.732   0.847   0.019  0.00  0.00    +2.700 S 
ATOM      8  O   LIG    1       -2.438  -0.428  -0.534  0.00  0.00    -0.950 OA
ATOM      9  O   LIG    1       -3.720   1.718  -0.516  0.00  0.00    -0.950 OA
BRANCH   7  10
ATOM     10  C   LIG    1       -1.219   1.751   0.017  0.00  0.00    -0.680 A 
ATOM     11  C   LIG    1       -1.242   3.133   0.031  0.00  0.00    +0.140 A 
ATOM     12  C   LIG    1       -0.057   3.846   0.023  0.00  0.00    -0.050 A 
ATOM     13  C   LIG    1        1.155   3.176   0.008  0.00  0.00    +0.160 A 
ATOM     14  C   LIG    1        1.177   1.785   0.000  0.00  0.00    +0.080 A 
ATOM     15  C   LIG    1       -0.013   1.076   0.008  0.00  0.00    +0.070 A 
BRANCH  14  16
ATOM     16  O   LIG    1        2.365   1.122  -0.014  0.00  0.00    -0.300 OA
ATOM     17  C   LIG    1        2.312  -0.306  -0.021  0.00  0.00    +0.250 C 
ENDBRANCH  14  16
BRANCH  13  18
ATOM     18  O   LIG    1        2.321   3.877   0.001  0.00  0.00    -0.300 OA
ATOM     19  C   LIG    1        2.221   5.302   0.010  0.00  0.00    +0.250 C 
ENDBRANCH  13  18
ENDBRANCH   7  10
ENDBRANCH   4   7
BRANCH   1  20
ATOM     20  C   LIG    1       -2.233   1.096   5.726  0.00  0.00    +0.260 C 
BRANCH  20  22
ATOM     21  C   LIG    1       -1.418   0.012   7.750  0.00  0.00    +0.540 C 
ATOM     22  N   LIG    1       -2.013  -0.098   6.546  0.00  0.00    -0.730 N 
ATOM     23  H   LIG    1       -2.296  -0.968   6.222  0.00  0.00    +0.400 HD
ATOM     24  O   LIG    1       -1.064   1.102   8.156  0.00  0.00    -0.540 OA
BRANCH  21  26
ATOM     25  C   LIG    1       -0.610  -1.079   9.762  0.00  0.00    +0.140 C 
ATOM     26  C   LIG    1       -1.197  -1.187   8.573  0.00  0.00    -0.090 C 
ENDBRANCH  21  26
ENDBRANCH  20  22
ENDBRANCH   1  20
TORSDOF 7
