REMARK  Name = ZINCrH000004uWyV.0
REMARK                            x       y       z     vdW  Elec       q    Type
REMARK                         _______ _______ _______ _____ _____    ______ ____
ROOT
ATOM      1  C   LIG    1        1.248   1.716  -0.001  0.00  0.00    +0.270 C 
ATOM      2  C   LIG    1        2.357   0.852   0.604  0.00  0.00    +0.040 C 
ATOM      3  C   LIG    1        3.704   1.537   0.337  0.00  0.00    +0.050 C 
ATOM      4  C   LIG    1        3.982   1.499  -1.166  0.00  0.00    +0.260 C 
ATOM      5  N   LIG    1        2.834   2.000  -1.910  0.00  0.00    -0.560 N 
ATOM      6  C   LIG    1        1.599   2.084  -1.413  0.00  0.00    +0.510 C 
ATOM      7  O   LIG    1        0.713   2.480  -2.141  0.00  0.00    -0.510 OA
ENDROOT
BRANCH   5   8
ATOM      8  C   LIG    1        3.040   2.419  -3.231  0.00  0.00    +0.150 A 
ATOM      9  C   LIG    1        3.375   3.740  -3.497  0.00  0.00    +0.060 A 
ATOM     10  C   LIG    1        3.578   4.151  -4.800  0.00  0.00    +0.050 A 
ATOM     11  C   LIG    1        3.447   3.248  -5.840  0.00  0.00    -0.020 A 
ATOM     12  C   LIG    1        3.112   1.930  -5.579  0.00  0.00    +0.050 A 
ATOM     13 CL   LIG    1        3.702   3.768  -7.476  0.00  0.00    -0.050 Cl
ATOM     14  C   LIG    1        2.915   1.512  -4.276  0.00  0.00    -0.020 A 
ATOM     15 CL   LIG    1        2.503  -0.142  -3.948  0.00  0.00    -0.050 Cl
ENDBRANCH   5   8
BRANCH   1  18
ATOM     16  O   LIG    1       -1.204   2.840   0.023  0.00  0.00    -0.490 OA
ATOM     17  C   LIG    1       -1.187   1.624   0.017  0.00  0.00    +0.620 C 
ATOM     18  N   LIG    1       -0.011   0.966   0.007  0.00  0.00    -0.710 N 
ATOM     19  H   LIG    1        0.002  -0.004   0.002  0.00  0.00    +0.410 HD
BRANCH  17  20
ATOM     20  C   LIG    1       -2.455   0.869   0.018  0.00  0.00    -0.090 A 
ATOM     21  C   LIG    1       -3.708   1.377   0.027  0.00  0.00    -0.110 A 
ATOM     22  C   LIG    1       -4.203   2.794   0.032  0.00  0.00    +0.130 C 
ATOM     23  C   LIG    1       -5.686   2.780  -0.367  0.00  0.00    +0.030 C 
ATOM     24  C   LIG    1       -6.441   1.752   0.477  0.00  0.00    +0.030 C 
ATOM     25  C   LIG    1       -6.055   0.331   0.045  0.00  0.00    +0.140 C 
ATOM     26  C   LIG    1       -4.551   0.240   0.028  0.00  0.00    +0.020 A 
ATOM     27  N   LIG    1       -3.777  -0.793   0.016  0.00  0.00    -0.330 NA
ATOM     28  O   LIG    1       -2.605  -0.474   0.006  0.00  0.00    +0.100 OA
ENDBRANCH  17  20
ENDBRANCH   1  18
TORSDOF 3
