REMARK  Name = ZINC650000001I4U.0
REMARK                            x       y       z     vdW  Elec       q    Type
REMARK                         _______ _______ _______ _____ _____    ______ ____
ROOT
ATOM      1  C   LIG    1       -1.149   1.602   0.016  0.00  0.00    +0.730 C 
ENDROOT
BRANCH   1   3
ATOM      2  C   LIG    1        0.091   3.727   0.022  0.00  0.00    +0.340 C 
ATOM      3  N   LIG    1       -1.167   2.977   0.024  0.00  0.00    -0.700 NA
ATOM      4  H   LIG    1       -2.014   3.450   0.030  0.00  0.00    +0.440 HD
ENDBRANCH   1   3
BRANCH   1   5
ATOM      5  N   LIG    1       -2.330   0.899   0.018  0.00  0.00    -0.700 NA
ATOM      6  H   LIG    1       -3.176   1.372   0.025  0.00  0.00    +0.440 HD
ATOM      7  C   LIG    1       -2.310  -0.566   0.010  0.00  0.00    +0.340 C 
ENDBRANCH   1   5
BRANCH   1   8
ATOM      8  N   LIG    1       -0.011   0.966   0.007  0.00  0.00    -0.770 NA
ATOM      9  H   LIG    1        0.822   1.462   0.002  0.00  0.00    +0.440 HD
ATOM     10  H   LIG    1        0.002  -0.004   0.002  0.00  0.00    +0.440 HD
ENDBRANCH   1   8
TORSDOF 3
