REMARK  Name = ZINCrH00000No4G2.0
REMARK                            x       y       z     vdW  Elec       q    Type
REMARK                         _______ _______ _______ _____ _____    ______ ____
ROOT
ATOM      1  N   LIG    1       -0.726   1.953  -1.177  0.00  0.00    -0.720 N 
ATOM      2  H   LIG    1       -1.670   2.171  -1.123  0.00  0.00    +0.410 HD
ATOM      3  C   LIG    1       -0.067   2.097  -2.343  0.00  0.00    +0.560 C 
ATOM      4  O   LIG    1        1.117   1.824  -2.411  0.00  0.00    -0.520 OA
ENDROOT
BRANCH   3   5
ATOM      5  C   LIG    1       -0.776   2.583  -3.531  0.00  0.00    -0.040 C 
ATOM      6  C   LIG    1       -0.116   2.727  -4.699  0.00  0.00    +0.180 C 
BRANCH   6   7
ATOM      7  C   LIG    1       -0.826   3.213  -5.888  0.00  0.00    +0.120 A 
ATOM      8  N   LIG    1       -0.288   3.387  -7.052  0.00  0.00    -0.440 NA
ATOM      9  C   LIG    1       -1.062   3.836  -8.041  0.00  0.00    +0.080 A 
ATOM     10  C   LIG    1       -0.714   4.103  -9.386  0.00  0.00    +0.080 A 
ATOM     11  C   LIG    1       -1.646   4.562 -10.263  0.00  0.00    +0.030 A 
ATOM     12  C   LIG    1       -2.958   4.778  -9.860  0.00  0.00    +0.050 A 
ATOM     13  C   LIG    1       -3.328   4.529  -8.558  0.00  0.00    +0.050 A 
ATOM     14  C   LIG    1       -2.388   4.057  -7.643  0.00  0.00    -0.170 A 
ATOM     15  S   LIG    1       -2.532   3.637  -5.938  0.00  0.00    +0.080 S 
ENDBRANCH   6   7
ENDBRANCH   3   5
BRANCH   1  16
ATOM     16  C   LIG    1       -0.018   1.468   0.010  0.00  0.00    +0.450 C 
BRANCH  16  20
ATOM     17  C   LIG    1       -2.020   2.847   3.529  0.00  0.00    +0.180 A 
ATOM     18  C   LIG    1       -2.718   2.710   2.337  0.00  0.00    -0.100 A 
ATOM     19  C   LIG    1       -2.067   2.270   1.200  0.00  0.00    +0.100 A 
ATOM     20  C   LIG    1       -0.723   1.954   1.250  0.00  0.00    -0.180 A 
ATOM     21  C   LIG    1       -0.021   2.089   2.439  0.00  0.00    +0.190 A 
ATOM     22  C   LIG    1       -0.670   2.536   3.579  0.00  0.00    -0.100 A 
BRANCH  17  24
ATOM     23  C   LIG    1       -4.051   3.587   4.519  0.00  0.00    +0.240 C 
ATOM     24  O   LIG    1       -2.660   3.285   4.645  0.00  0.00    -0.310 OA
ENDBRANCH  17  24
BRANCH  21  25
ATOM     25  O   LIG    1        1.303   1.784   2.486  0.00  0.00    -0.310 OA
ATOM     26  C   LIG    1        1.962   1.947   3.743  0.00  0.00    +0.250 C 
ENDBRANCH  21  25
ENDBRANCH  16  20
BRANCH  16  27
ATOM     27  C   LIG    1        0.002  -0.004   0.002  0.00  0.00    +0.200 C 
ATOM     28  N   LIG    1        0.018  -1.140  -0.004  0.00  0.00    -0.410 NA
ENDBRANCH  16  27
ENDBRANCH   1  16
TORSDOF 7
