REMARK  Name = ZINCfA000000b80s.0
REMARK                            x       y       z     vdW  Elec       q    Type
REMARK                         _______ _______ _______ _____ _____    ______ ____
ROOT
ATOM      1  C   LIG    1        1.308   3.413   0.008  0.00  0.00    +0.150 C 
ATOM      2  C   LIG    1        0.688   4.027  -1.264  0.00  0.00    +0.080 C 
ATOM      3  C   LIG    1        1.658   5.174  -1.644  0.00  0.00    +0.050 C 
ATOM      4  C   LIG    1        3.046   4.573  -1.311  0.00  0.00    +0.050 C 
ATOM      5  C   LIG    1        2.807   3.760  -0.022  0.00  0.00    +0.060 C 
ENDROOT
BRANCH   1   6
ATOM      6  C   LIG    1        1.124   1.917   0.002  0.00  0.00    -0.050 A 
ATOM      7  N   LIG    1       -0.016   1.314   0.009  0.00  0.00    -0.450 NA
ATOM      8  C   LIG    1        0.002  -0.004   0.002  0.00  0.00    +0.220 A 
ATOM      9  C   LIG    1        1.226  -0.542  -0.013  0.00  0.00    -0.040 A 
ATOM     10  S   LIG    1        2.396   0.775  -0.017  0.00  0.00    +0.220 S 
ENDBRANCH   1   6
BRANCH   1  11
ATOM     11  N   LIG    1        0.682   3.992   1.204  0.00  0.00    -0.490 N 
ATOM     12  H   LIG    1        0.800   4.994   1.194  0.00  0.00    +0.430 HD
ATOM     13  H   LIG    1        1.117   3.610   2.030  0.00  0.00    +0.430 HD
BRANCH  11  14
ATOM     14  C   LIG    1       -0.751   3.668   1.212  0.00  0.00    +0.310 C 
BRANCH  14  16
ATOM     15  C   LIG    1       -1.978   5.432   2.370  0.00  0.00    +0.110 C 
ATOM     16  C   LIG    1       -1.394   4.261   2.438  0.00  0.00    -0.190 C 
ATOM     17  C   LIG    1       -1.364   3.509   3.744  0.00  0.00    +0.090 C 
ENDBRANCH  14  16
ENDBRANCH  11  14
ENDBRANCH   1  11
TORSDOF 4
