REMARK  Name = ZINCqH0000034ibB.0
REMARK                            x       y       z     vdW  Elec       q    Type
REMARK                         _______ _______ _______ _____ _____    ______ ____
ROOT
ATOM      1  C   LIG    1        0.270   1.564  -1.071  0.00  0.00    +0.150 A 
ATOM      2  C   LIG    1        1.367   2.418  -0.980  0.00  0.00    +0.000 A 
ATOM      3  C   LIG    1        2.623   1.980  -1.341  0.00  0.00    +0.060 A 
ATOM      4  C   LIG    1        2.798   0.681  -1.799  0.00  0.00    +0.040 A 
ATOM      5  N   LIG    1        3.893  -0.046  -2.227  0.00  0.00    -0.580 N 
ATOM      6  H   LIG    1        4.809   0.271  -2.281  0.00  0.00    +0.430 HD
ATOM      7  C   LIG    1        3.449  -1.288  -2.558  0.00  0.00    +0.300 A 
ATOM      8  N   LIG    1        2.165  -1.371  -2.364  0.00  0.00    -0.480 NA
ATOM      9  C   LIG    1        1.697  -0.186  -1.893  0.00  0.00    +0.070 A 
ATOM     10  C   LIG    1        0.428   0.268  -1.524  0.00  0.00    +0.070 A 
ENDROOT
BRANCH   7  11
ATOM     11  C   LIG    1        4.317  -2.405  -3.077  0.00  0.00    +0.260 C 
ATOM     12  C   LIG    1        4.155  -3.665  -2.197  0.00  0.00    +0.030 C 
ATOM     13  C   LIG    1        5.575  -4.272  -2.145  0.00  0.00    +0.000 C 
ATOM     14  C   LIG    1        6.427  -3.307  -2.999  0.00  0.00    +0.220 C 
ATOM     15  O   LIG    1        5.713  -2.053  -2.962  0.00  0.00    -0.380 OA
ENDBRANCH   7  11
BRANCH   1  16
ATOM     16  N   LIG    1       -1.001   2.023  -0.706  0.00  0.00    -1.050 N 
ATOM     17  H   LIG    1       -1.763   1.848  -1.280  0.00  0.00    +0.430 HD
BRANCH  16  18
ATOM     18  S   LIG    1       -1.203   2.867   0.704  0.00  0.00    +2.690 S 
ATOM     19  O   LIG    1       -0.506   2.142   1.708  0.00  0.00    -0.940 OA
ATOM     20  O   LIG    1       -2.587   3.178   0.791  0.00  0.00    -0.940 OA
BRANCH  18  26
ATOM     21  C   LIG    1       -0.776   5.311  -0.434  0.00  0.00    +0.020 A 
ATOM     22  C   LIG    1       -0.113   6.515  -0.578  0.00  0.00    -0.010 A 
ATOM     23  C   LIG    1        0.968   6.810   0.232  0.00  0.00    +0.070 A 
ATOM     24  C   LIG    1        1.385   5.902   1.187  0.00  0.00    -0.010 A 
ATOM     25  C   LIG    1        0.719   4.699   1.334  0.00  0.00    +0.130 A 
ATOM     26  C   LIG    1       -0.358   4.402   0.520  0.00  0.00    -0.680 A 
BRANCH  21  28
ATOM     27  C   LIG    1       -3.231   5.546  -0.686  0.00  0.00    +0.050 C 
ATOM     28  C   LIG    1       -1.954   4.989  -1.317  0.00  0.00    +0.050 C 
ENDBRANCH  21  28
ENDBRANCH  18  26
ENDBRANCH  16  18
ENDBRANCH   1  16
TORSDOF 5
