REMARK  Name = ZINCvU00000006TE.0
REMARK                            x       y       z     vdW  Elec       q    Type
REMARK                         _______ _______ _______ _____ _____    ______ ____
ROOT
ATOM      1  C   LIG    1        3.278   3.345   0.023  0.00  0.00    +0.150 C 
ATOM      2  C   LIG    1        3.479   1.856  -0.089  0.00  0.00    +0.220 C 
ATOM      3  C   LIG    1        2.403   1.057  -0.107  0.00  0.00    -0.300 C 
ATOM      4  C   LIG    1        2.493  -0.442  -0.210  0.00  0.00    +0.400 C 
ATOM      5  N   LIG    1        3.858  -0.824  -0.566  0.00  0.00    -0.380 N 
ATOM      6  N   LIG    1        4.357  -2.056  -0.986  0.00  0.00    -0.270 NA
ATOM      7  C   LIG    1        5.653  -1.894  -1.177  0.00  0.00    +0.320 A 
ATOM      8  N   LIG    1        5.978  -0.618  -0.898  0.00  0.00    -0.520 NA
ATOM      9  C   LIG    1        4.910   0.034  -0.533  0.00  0.00    +0.500 A 
ATOM     10  N   LIG    1        4.759   1.363  -0.163  0.00  0.00    -0.610 N 
ATOM     11  H   LIG    1        5.527   1.922   0.032  0.00  0.00    +0.440 HD
ENDROOT
BRANCH   4  12
ATOM     12  C   LIG    1        2.128  -1.060   1.115  0.00  0.00    -0.100 A 
ATOM     13  C   LIG    1        1.057  -1.929   1.200  0.00  0.00    +0.060 A 
ATOM     14  C   LIG    1        0.722  -2.497   2.416  0.00  0.00    +0.030 A 
ATOM     15  C   LIG    1        1.458  -2.195   3.546  0.00  0.00    +0.060 A 
ATOM     16  C   LIG    1        2.530  -1.325   3.461  0.00  0.00    -0.090 A 
ATOM     17 BR   LIG    1        3.538  -0.912   5.006  0.00  0.00    -0.040 Br
ATOM     18  C   LIG    1        2.869  -0.762   2.243  0.00  0.00    +0.050 A 
ENDBRANCH   4  12
BRANCH   7  19
ATOM     19  C   LIG    1        6.594  -2.942  -1.625  0.00  0.00    +0.050 A 
ATOM     20  C   LIG    1        7.928  -2.782  -1.830  0.00  0.00    +0.020 A 
ATOM     21  C   LIG    1        8.428  -4.033  -2.245  0.00  0.00    -0.060 A 
ATOM     22  C   LIG    1        7.383  -4.883  -2.282  0.00  0.00    +0.200 A 
ATOM     23  O   LIG    1        6.276  -4.221  -1.907  0.00  0.00    -0.160 OA
ENDBRANCH   7  19
BRANCH   3  24
ATOM     24  C   LIG    1        1.121   1.651  -0.032  0.00  0.00    +0.590 C 
ATOM     25  N   LIG    1        0.700   2.201   1.124  0.00  0.00    -0.660 N 
ATOM     26  H   LIG    1        1.251   2.139   1.920  0.00  0.00    +0.410 HD
ATOM     27  O   LIG    1        0.398   1.665  -1.012  0.00  0.00    -0.510 OA
BRANCH  25  28
ATOM     28  C   LIG    1       -0.534   2.857   1.178  0.00  0.00    +0.140 A 
ATOM     29  C   LIG    1       -0.695   3.973   1.989  0.00  0.00    -0.020 A 
ATOM     30  C   LIG    1       -1.913   4.621   2.036  0.00  0.00    +0.030 A 
ATOM     31  C   LIG    1       -2.976   4.153   1.285  0.00  0.00    -0.010 A 
ATOM     32  C   LIG    1       -2.821   3.039   0.481  0.00  0.00    +0.030 A 
ATOM     33  C   LIG    1       -1.604   2.389   0.425  0.00  0.00    +0.020 A 
ENDBRANCH  25  28
ENDBRANCH   3  24
TORSDOF 4
