REMARK  Name = ZINCqH0000006plC.0
REMARK                            x       y       z     vdW  Elec       q    Type
REMARK                         _______ _______ _______ _____ _____    ______ ____
ROOT
ATOM      1  C   LIG    1       -3.451   1.486   6.119  0.00  0.00    +0.330 C 
ATOM      2  C   LIG    1       -4.603   0.472   6.280  0.00  0.00    +0.050 C 
ATOM      3  C   LIG    1       -3.852  -0.887   6.382  0.00  0.00    +0.040 C 
ATOM      4  C   LIG    1       -2.579  -0.481   7.165  0.00  0.00    +0.250 C 
ATOM      5  N   LIG    1       -2.235   0.860   6.658  0.00  0.00    -0.610 N 
ATOM      6  C   LIG    1       -1.008   1.418   6.683  0.00  0.00    +0.540 C 
ATOM      7  O   LIG    1       -0.840   2.532   6.234  0.00  0.00    -0.500 OA
ENDROOT
BRANCH   6   8
ATOM      8  C   LIG    1        0.154   0.658   7.268  0.00  0.00    +0.180 C 
ATOM      9  C   LIG    1       -0.021   0.479   8.794  0.00  0.00    +0.100 C 
ATOM     10  C   LIG    1        1.409   0.612   9.289  0.00  0.00    -0.180 A 
ATOM     11  C   LIG    1        2.007   0.284  10.485  0.00  0.00    +0.070 A 
ATOM     12  C   LIG    1        3.363   0.497  10.662  0.00  0.00    -0.110 A 
ATOM     13  C   LIG    1        4.113   1.038   9.634  0.00  0.00    -0.050 A 
ATOM     14  C   LIG    1        3.515   1.371   8.436  0.00  0.00    +0.000 A 
ATOM     15  C   LIG    1        5.590   1.266   9.823  0.00  0.00    +0.100 C 
ATOM     16  C   LIG    1        4.021   0.139  11.970  0.00  0.00    +0.100 C 
ATOM     17  C   LIG    1        2.150   1.165   8.252  0.00  0.00    +0.100 A 
ATOM     18  O   LIG    1        1.366   1.425   7.170  0.00  0.00    -0.270 OA
ENDBRANCH   6   8
BRANCH   1  22
ATOM     19  C   LIG    1       -2.641   1.648   2.562  0.00  0.00    -0.020 A 
ATOM     20  C   LIG    1       -3.284   2.822   2.688  0.00  0.00    -0.030 A 
ATOM     21  C   LIG    1       -3.685   2.927   4.040  0.00  0.00    -0.050 A 
ATOM     22  C   LIG    1       -3.256   1.813   4.661  0.00  0.00    -0.010 A 
ATOM     23  O   LIG    1       -2.624   1.042   3.760  0.00  0.00    -0.160 OA
BRANCH  19  24
ATOM     24  C   LIG    1       -2.037   1.106   1.292  0.00  0.00    +0.290 C 
BRANCH  24  26
ATOM     25  C   LIG    1       -0.013   1.086   0.008  0.00  0.00    +0.210 C 
ATOM     26  O   LIG    1       -0.682   1.547   1.184  0.00  0.00    -0.380 OA
ENDBRANCH  24  26
ENDBRANCH  19  24
ENDBRANCH   1  22
TORSDOF 4
