REMARK  Name = ZINCtV00000L6jRs.0
REMARK                            x       y       z     vdW  Elec       q    Type
REMARK                         _______ _______ _______ _____ _____    ______ ____
ROOT
ATOM      1  C   LIG    1        2.451   3.937  -0.001  0.00  0.00    +0.250 C 
ATOM      2  C   LIG    1        2.718   4.537  -1.396  0.00  0.00    +0.070 C 
ATOM      3  C   LIG    1        2.741   6.029  -1.148  0.00  0.00    +0.070 C 
ATOM      4  N   LIG    1        2.539   6.263   0.083  0.00  0.00    -0.230 NA
ATOM      5  N   LIG    1        2.354   5.124   0.865  0.00  0.00    -0.470 N 
ENDROOT
BRANCH   1  10
ATOM      6  C   LIG    1       -2.514   0.980   0.019  0.00  0.00    +0.090 C 
ATOM      7  C   LIG    1       -1.219   1.751   0.017  0.00  0.00    -0.080 A 
ATOM      8  C   LIG    1       -0.013   1.076   0.008  0.00  0.00    +0.000 A 
ATOM      9  C   LIG    1        1.175   1.783   0.000  0.00  0.00    +0.020 A 
ATOM     10  C   LIG    1        1.156   3.165   0.008  0.00  0.00    -0.110 A 
ATOM     11  C   LIG    1       -0.050   3.840   0.023  0.00  0.00    +0.030 A 
ATOM     12  C   LIG    1       -1.238   3.133   0.030  0.00  0.00    +0.000 A 
ENDBRANCH   1  10
BRANCH   5  13
ATOM     13  C   LIG    1        2.117   5.111   2.240  0.00  0.00    +0.230 A 
ATOM     14  C   LIG    1        1.944   3.903   2.906  0.00  0.00    -0.060 A 
ATOM     15  C   LIG    1        1.714   3.894   4.268  0.00  0.00    +0.040 A 
ATOM     16  C   LIG    1        1.645   5.085   4.967  0.00  0.00    -0.050 A 
ATOM     17  C   LIG    1        1.812   6.289   4.307  0.00  0.00    +0.040 A 
ATOM     18  C   LIG    1        2.048   6.306   2.947  0.00  0.00    -0.030 A 
ENDBRANCH   5  13
BRANCH   3  19
ATOM     19  C   LIG    1        2.969   7.079  -2.204  0.00  0.00    +0.140 C 
BRANCH  19  20
ATOM     20  C   LIG    1        2.918   8.467  -1.562  0.00  0.00    +0.110 C 
BRANCH  20  21
ATOM     21  C   LIG    1        3.146   9.518  -2.619  0.00  0.00    -0.170 A 
ATOM     22  C   LIG    1        4.316  10.100  -2.926  0.00  0.00    +0.220 A 
ATOM     23  N   LIG    1        4.135  11.002  -3.939  0.00  0.00    -0.600 N 
ATOM     24  H   LIG    1        4.836  11.544  -4.334  0.00  0.00    +0.420 HD
ATOM     25  C   LIG    1        2.810  11.030  -4.310  0.00  0.00    +0.090 A 
ATOM     26  C   LIG    1        2.097  11.753  -5.261  0.00  0.00    -0.010 A 
ATOM     27  C   LIG    1        0.740  11.553  -5.397  0.00  0.00    +0.020 A 
ATOM     28  C   LIG    1        0.076  10.636  -4.595  0.00  0.00    -0.030 A 
ATOM     29  C   LIG    1        0.757   9.915  -3.655  0.00  0.00    +0.050 A 
ATOM     30  C   LIG    1        2.132  10.102  -3.500  0.00  0.00    -0.100 A 
ENDBRANCH  20  21
ENDBRANCH  19  20
ENDBRANCH   3  19
TORSDOF 5
