REMARK  Name = ZINCrH000004uLwx.0
REMARK                            x       y       z     vdW  Elec       q    Type
REMARK                         _______ _______ _______ _____ _____    ______ ____
ROOT
ATOM      1  O   LIG    1       -5.346  -0.170  -3.836  0.00  0.00    -0.520 OA
ATOM      2  C   LIG    1       -5.186   0.803  -4.541  0.00  0.00    +0.520 C 
ATOM      3  N   LIG    1       -6.251   1.434  -5.072  0.00  0.00    -0.520 N 
ATOM      4  H   LIG    1       -6.122   2.213  -5.637  0.00  0.00    +0.420 HD
ENDROOT
BRANCH   2   5
ATOM      5  C   LIG    1       -3.793   1.307  -4.824  0.00  0.00    +0.030 C 
ATOM      6  C   LIG    1       -3.609   2.748  -4.295  0.00  0.00    +0.070 C 
ATOM      7  C   LIG    1       -3.031   2.565  -2.910  0.00  0.00    +0.520 C 
ATOM      8  N   LIG    1       -2.560   1.314  -2.768  0.00  0.00    -0.610 N 
ATOM      9  O   LIG    1       -2.997   3.422  -2.052  0.00  0.00    -0.520 OA
ATOM     10  C   LIG    1       -2.740   0.533  -3.997  0.00  0.00    +0.310 C 
BRANCH   8  11
ATOM     11  C   LIG    1       -1.940   0.798  -1.544  0.00  0.00    +0.250 C 
ATOM     12  C   LIG    1       -0.766   1.601  -1.235  0.00  0.00    -0.000 C 
ATOM     13  C   LIG    1       -0.013   1.086   0.008  0.00  0.00    +0.030 C 
ATOM     14  C   LIG    1       -0.725   1.575   1.240  0.00  0.00    +0.000 C 
ATOM     15  C   LIG    1       -1.741   0.547   1.779  0.00  0.00    +0.000 C 
ATOM     16  C   LIG    1       -2.550  -0.140   0.662  0.00  0.00    +0.000 C 
ATOM     17  C   LIG    1       -2.985   0.823  -0.409  0.00  0.00    +0.020 C 
ENDBRANCH   8  11
ENDBRANCH   2   5
BRANCH   3  18
ATOM     18  N   LIG    1       -7.545   0.966  -4.810  0.00  0.00    -0.540 N 
ATOM     19  H   LIG    1       -7.674   0.187  -4.246  0.00  0.00    +0.440 HD
BRANCH  18  20
ATOM     20  C   LIG    1       -8.650   1.620  -5.361  0.00  0.00    +0.260 A 
ATOM     21  C   LIG    1       -8.467   2.738  -6.164  0.00  0.00    -0.070 A 
ATOM     22  C   LIG    1       -9.562   3.379  -6.711  0.00  0.00    +0.110 A 
ATOM     23  C   LIG    1      -10.838   2.916  -6.451  0.00  0.00    -0.030 A 
ATOM     24  C   LIG    1      -11.024   1.806  -5.647  0.00  0.00    +0.120 A 
ATOM     25  C   LIG    1       -9.934   1.157  -5.101  0.00  0.00    -0.260 A 
BRANCH  25  26
ATOM     26  C   LIG    1      -10.137  -0.053  -4.226  0.00  0.00    +0.510 C 
ATOM     27  F   LIG    1       -9.605   0.195  -2.956  0.00  0.00    -0.180 F 
ATOM     28  F   LIG    1       -9.489  -1.155  -4.795  0.00  0.00    -0.180 F 
ATOM     29  F   LIG    1      -11.505  -0.323  -4.113  0.00  0.00    -0.170 F 
ENDBRANCH  25  26
ENDBRANCH  18  20
ENDBRANCH   3  18
TORSDOF 5
