REMARK  Name = ZINCpe000000SyCD.0
REMARK                            x       y       z     vdW  Elec       q    Type
REMARK                         _______ _______ _______ _____ _____    ______ ____
ROOT
ATOM      1  C   LIG    1        5.361   5.550   3.392  0.00  0.00    +0.270 C 
ENDROOT
BRANCH   1   3
ATOM      2  C   LIG    1        4.273   3.738   2.179  0.00  0.00    +0.520 C 
ATOM      3  N   LIG    1        4.515   5.059   2.301  0.00  0.00    -0.730 N 
ATOM      4  H   LIG    1        4.130   5.683   1.667  0.00  0.00    +0.400 HD
ATOM      5  O   LIG    1        4.754   2.958   2.972  0.00  0.00    -0.530 OA
BRANCH   2  11
ATOM      6  C   LIG    1       -1.330   1.944   0.019  0.00  0.00    +0.090 C 
ATOM      7  C   LIG    1       -0.014   1.209   0.009  0.00  0.00    +0.510 C 
ATOM      8  N   LIG    1        1.143   1.898   0.001  0.00  0.00    -0.620 N 
ATOM      9  C   LIG    1        1.140   3.368   0.003  0.00  0.00    +0.280 C 
ATOM     10  C   LIG    1        2.010   3.857   1.170  0.00  0.00    +0.030 C 
ATOM     11  C   LIG    1        3.403   3.233   1.057  0.00  0.00    -0.010 C 
ATOM     12  C   LIG    1        3.290   1.709   1.147  0.00  0.00    +0.060 C 
ATOM     13  C   LIG    1        2.433   1.195  -0.015  0.00  0.00    +0.280 C 
ATOM     14  O   LIG    1        0.002  -0.004   0.002  0.00  0.00    -0.540 OA
ENDBRANCH   2  11
ENDBRANCH   1   3
BRANCH   1  15
ATOM     15  C   LIG    1        5.474   7.073   3.302  0.00  0.00    +0.270 C 
BRANCH  15  16
ATOM     16  N   LIG    1        6.320   7.565   4.393  0.00  0.00    -0.730 N 
ATOM     17  H   LIG    1        6.705   6.941   5.027  0.00  0.00    +0.410 HD
ATOM     18  C   LIG    1        6.562   8.885   4.515  0.00  0.00    +0.520 C 
ATOM     19  O   LIG    1        6.081   9.666   3.722  0.00  0.00    -0.520 OA
BRANCH  18  20
ATOM     20  C   LIG    1        7.432   9.391   5.637  0.00  0.00    +0.120 C 
BRANCH  20  21
ATOM     21  C   LIG    1        7.544  10.891   5.549  0.00  0.00    -0.040 A 
ATOM     22  C   LIG    1        8.565  11.466   4.815  0.00  0.00    +0.010 A 
ATOM     23  C   LIG    1        8.665  12.842   4.729  0.00  0.00    +0.040 A 
ATOM     24  C   LIG    1        7.752  13.645   5.385  0.00  0.00    -0.010 A 
ATOM     25  C   LIG    1        6.732  13.070   6.125  0.00  0.00    +0.100 A 
ATOM     26  F   LIG    1        5.838  13.854   6.767  0.00  0.00    -0.140 F 
ATOM     27  C   LIG    1        6.629  11.692   6.206  0.00  0.00    -0.010 A 
ENDBRANCH  20  21
ENDBRANCH  18  20
ENDBRANCH  15  16
ENDBRANCH   1  15
TORSDOF 6
