REMARK  Name = ZINCqH0000035gpZ.0
REMARK                            x       y       z     vdW  Elec       q    Type
REMARK                         _______ _______ _______ _____ _____    ______ ____
ROOT
ATOM      1  C   LIG    1        1.150  -0.674  -0.013  0.00  0.00    +0.460 A 
ATOM      2  C   LIG    1        2.346   0.056  -0.020  0.00  0.00    -0.230 A 
ATOM      3  C   LIG    1        2.279   1.463  -0.012  0.00  0.00    +0.350 A 
ATOM      4  N   LIG    1        3.568   1.928  -0.021  0.00  0.00    -0.410 N 
ATOM      5  C   LIG    1        4.447   0.874  -0.034  0.00  0.00    +0.090 A 
ATOM      6  C   LIG    1        5.949   0.998  -0.047  0.00  0.00    +0.150 C 
ATOM      7  N   LIG    1        1.081   2.042   0.003  0.00  0.00    -0.540 NA
ATOM      8  C   LIG    1       -0.016   1.316   0.009  0.00  0.00    +0.550 A 
ATOM      9  C   LIG    1        3.768  -0.285  -0.035  0.00  0.00    -0.140 A 
ATOM     10  C   LIG    1        4.359  -1.671  -0.047  0.00  0.00    +0.130 C 
ATOM     11  N   LIG    1        0.002  -0.004   0.002  0.00  0.00    -0.530 NA
ENDROOT
BRANCH   4  12
ATOM     12  C   LIG    1        3.935   3.280  -0.017  0.00  0.00    +0.110 A 
ATOM     13  C   LIG    1        4.602   3.824  -1.107  0.00  0.00    +0.030 A 
ATOM     14  C   LIG    1        4.956   5.159  -1.103  0.00  0.00    +0.020 A 
ATOM     15  C   LIG    1        4.659   5.951  -0.009  0.00  0.00    -0.070 A 
ATOM     16  C   LIG    1        3.999   5.411   1.080  0.00  0.00    +0.020 A 
ATOM     17  C   LIG    1        5.053   7.405  -0.005  0.00  0.00    +0.100 C 
ATOM     18  C   LIG    1        3.637   4.079   1.079  0.00  0.00    +0.040 A 
ENDBRANCH   4  12
BRANCH   1  20
ATOM     19  C   LIG    1        0.003  -2.748  -0.012  0.00  0.00    +0.500 C 
ATOM     20  N   LIG    1        1.163  -2.062  -0.020  0.00  0.00    -0.650 N 
ATOM     21  H   LIG    1        2.008  -2.539  -0.030  0.00  0.00    +0.420 HD
ATOM     22  O   LIG    1       -1.053  -2.152   0.001  0.00  0.00    -0.460 OA
BRANCH  19  23
ATOM     23  C   LIG    1        0.018  -4.255  -0.020  0.00  0.00    +0.060 C 
BRANCH  23  24
ATOM     24  C   LIG    1       -1.420  -4.779  -0.008  0.00  0.00    +0.050 C 
BRANCH  24  25
ATOM     25  C   LIG    1       -1.405  -6.309  -0.016  0.00  0.00    +0.160 C 
BRANCH  25  27
ATOM     26  C   LIG    1       -2.846  -8.224  -0.012  0.00  0.00    +0.200 C 
ATOM     27  O   LIG    1       -2.748  -6.798  -0.005  0.00  0.00    -0.390 OA
ENDBRANCH  25  27
ENDBRANCH  24  25
ENDBRANCH  23  24
ENDBRANCH  19  23
ENDBRANCH   1  20
TORSDOF 6
