REMARK  Name = ZINCpe00000gMR1w.0
REMARK                            x       y       z     vdW  Elec       q    Type
REMARK                         _______ _______ _______ _____ _____    ______ ____
ROOT
ATOM      1  C   LIG    1       -3.142   4.355  -6.787  0.00  0.00    +0.570 C 
ATOM      2  O   LIG    1       -3.442   3.219  -7.115  0.00  0.00    -0.570 OA
ENDROOT
BRANCH   1   8
ATOM      3  C   LIG    1       -6.803   8.241 -11.895  0.00  0.00    +0.180 C 
ATOM      4  C   LIG    1       -5.969   7.718 -10.754  0.00  0.00    +0.130 A 
ATOM      5  N   LIG    1       -5.798   6.457 -10.448  0.00  0.00    -0.280 NA
ATOM      6  N   LIG    1       -4.958   6.382  -9.327  0.00  0.00    -0.340 N 
ATOM      7  C   LIG    1       -4.481   5.310  -8.625  0.00  0.00    +0.430 A 
ATOM      8  C   LIG    1       -3.663   5.505  -7.551  0.00  0.00    -0.240 A 
ATOM      9  C   LIG    1       -3.313   6.880  -7.163  0.00  0.00    +0.550 A 
ATOM     10  N   LIG    1       -3.803   7.906  -7.888  0.00  0.00    -0.630 N 
ATOM     11  H   LIG    1       -3.580   8.819  -7.649  0.00  0.00    +0.430 HD
ATOM     12  O   LIG    1       -2.589   7.087  -6.206  0.00  0.00    -0.460 OA
ATOM     13  C   LIG    1       -4.630   7.658  -8.970  0.00  0.00    +0.320 A 
ATOM     14  C   LIG    1       -5.249   8.499  -9.847  0.00  0.00    -0.120 A 
ENDBRANCH   1   8
BRANCH   1  15
ATOM     15  N   LIG    1       -2.339   4.558  -5.735  0.00  0.00    -0.640 NA
ATOM     16  C   LIG    1       -1.870   3.522  -5.047  0.00  0.00    +0.480 A 
ATOM     17  C   LIG    1       -2.129   2.158  -5.306  0.00  0.00    -0.110 A 
ATOM     18  C   LIG    1       -1.466   1.421  -4.389  0.00  0.00    +0.350 A 
ATOM     19  N   LIG    1       -0.798   2.259  -3.545  0.00  0.00    -0.390 N 
ATOM     20  N   LIG    1       -1.042   3.578  -3.951  0.00  0.00    -0.470 N 
ATOM     21  H   LIG    1       -0.692   4.382  -3.536  0.00  0.00    +0.450 HD
BRANCH  19  22
ATOM     22  C   LIG    1        0.036   1.850  -2.412  0.00  0.00    +0.360 C 
BRANCH  22  23
ATOM     23  C   LIG    1       -0.846   1.641  -1.179  0.00  0.00    -0.050 C 
ATOM     24  C   LIG    1       -0.013   1.086   0.008  0.00  0.00    +0.030 C 
ATOM     25  C   LIG    1       -0.821   1.627   1.214  0.00  0.00    +0.200 C 
ATOM     26  O   LIG    1       -1.283   2.924   0.804  0.00  0.00    -0.380 OA
ATOM     27  C   LIG    1       -1.346   2.992  -0.625  0.00  0.00    +0.200 C 
ENDBRANCH  22  23
ENDBRANCH  19  22
ENDBRANCH   1  15
TORSDOF 4
