REMARK  Name = ZINCrD00000F5LAF.0
REMARK                            x       y       z     vdW  Elec       q    Type
REMARK                         _______ _______ _______ _____ _____    ______ ____
ROOT
ATOM      1  C   LIG    1       -4.115   2.399  -1.113  0.00  0.00    +0.570 C 
ATOM      2  N   LIG    1       -3.617   2.859   0.052  0.00  0.00    -0.590 N 
ATOM      3  C   LIG    1       -4.133   2.344   1.323  0.00  0.00    +0.290 C 
ATOM      4  O   LIG    1       -3.686   2.826  -2.169  0.00  0.00    -0.540 OA
ENDROOT
BRANCH   1   6
ATOM      5  C   LIG    1       -5.637   0.956  -2.280  0.00  0.00    +0.170 C 
ATOM      6  C   LIG    1       -5.136   1.419  -1.108  0.00  0.00    -0.080 C 
BRANCH   5  10
ATOM      7  C   LIG    1       -8.167  -1.459  -2.975  0.00  0.00    +0.060 A 
ATOM      8  C   LIG    1       -8.194  -1.505  -1.625  0.00  0.00    -0.060 A 
ATOM      9  C   LIG    1       -7.235  -0.593  -1.159  0.00  0.00    +0.010 A 
ATOM     10  C   LIG    1       -6.659  -0.024  -2.276  0.00  0.00    -0.020 A 
ATOM     11  O   LIG    1       -7.247  -0.565  -3.364  0.00  0.00    -0.160 OA
BRANCH   7  15
ATOM     12  C   LIG    1       -6.804  -3.256  -4.849  0.00  0.00    +0.060 C 
ATOM     13  C   LIG    1       -8.333  -3.218  -4.878  0.00  0.00    -0.010 C 
ATOM     14  C   LIG    1       -8.999  -1.938  -5.388  0.00  0.00    +0.050 C 
ATOM     15  C   LIG    1       -9.035  -2.277  -3.896  0.00  0.00    +0.050 C 
ENDBRANCH   7  15
ENDBRANCH   5  10
ENDBRANCH   1   6
BRANCH   2  16
ATOM     16  C   LIG    1       -2.560   3.873   0.048  0.00  0.00    +0.400 C 
BRANCH  16  17
ATOM     17  C   LIG    1       -1.214   3.196   0.031  0.00  0.00    +0.430 A 
ATOM     18  N   LIG    1       -1.179   1.892   0.018  0.00  0.00    -0.580 NA
ATOM     19  C   LIG    1       -0.015   1.215   0.009  0.00  0.00    +0.530 A 
ATOM     20  C   LIG    1        1.239   1.990   0.001  0.00  0.00    -0.210 A 
ATOM     21  C   LIG    1        2.489   1.376  -0.014  0.00  0.00    +0.110 A 
ATOM     22  C   LIG    1        3.626   2.154  -0.021  0.00  0.00    -0.010 A 
ATOM     23  C   LIG    1        3.532   3.539  -0.012  0.00  0.00    +0.080 A 
ATOM     24  C   LIG    1        2.301   4.160   0.003  0.00  0.00    -0.020 A 
ATOM     25  C   LIG    1        1.144   3.394   0.009  0.00  0.00    +0.180 A 
ATOM     26  O   LIG    1        0.002  -0.004   0.002  0.00  0.00    -0.480 OA
ATOM     27  N   LIG    1       -0.113   3.967   0.025  0.00  0.00    -0.620 N 
ATOM     28  H   LIG    1       -0.202   4.933   0.030  0.00  0.00    +0.420 HD
ENDBRANCH  16  17
ENDBRANCH   2  16
TORSDOF 5
