REMARK  Name = ZINCqH0000000ogA.0
REMARK                            x       y       z     vdW  Elec       q    Type
REMARK                         _______ _______ _______ _____ _____    ______ ____
ROOT
ATOM      1  C   LIG    1       -2.916   4.149   1.583  0.00  0.00    +0.060 C 
ENDROOT
BRANCH   1  13
ATOM      2  C   LIG    1       -5.554   2.754  -1.992  0.00  0.00    +0.090 C 
ATOM      3  C   LIG    1       -4.491   3.610  -1.352  0.00  0.00    +0.510 C 
ATOM      4  N   LIG    1       -3.592   3.055  -0.516  0.00  0.00    -0.560 N 
ATOM      5  C   LIG    1       -3.641   1.694  -0.242  0.00  0.00    +0.240 C 
ATOM      6  C   LIG    1       -2.508   1.028   0.009  0.00  0.00    -0.040 C 
ATOM      7  C   LIG    1       -1.227   1.759   0.017  0.00  0.00    -0.030 A 
ATOM      8  C   LIG    1       -0.013   1.076   0.008  0.00  0.00    +0.020 A 
ATOM      9  C   LIG    1        1.172   1.786   0.001  0.00  0.00    +0.010 A 
ATOM     10  C   LIG    1        1.154   3.169   0.008  0.00  0.00    +0.000 A 
ATOM     11  C   LIG    1       -0.049   3.854   0.032  0.00  0.00    +0.030 A 
ATOM     12  C   LIG    1       -1.237   3.157   0.048  0.00  0.00    -0.100 A 
ATOM     13  C   LIG    1       -2.555   3.886   0.119  0.00  0.00    +0.320 C 
ATOM     14  O   LIG    1       -4.446   4.799  -1.590  0.00  0.00    -0.480 OA
ENDBRANCH   1  13
BRANCH   1  15
ATOM     15  C   LIG    1       -4.170   4.983   1.648  0.00  0.00    +0.500 C 
ATOM     16  N   LIG    1       -4.679   5.341   2.844  0.00  0.00    -0.730 N 
ATOM     17  H   LIG    1       -4.239   5.062   3.662  0.00  0.00    +0.400 HD
ATOM     18  O   LIG    1       -4.721   5.332   0.625  0.00  0.00    -0.500 OA
BRANCH  16  19
ATOM     19  C   LIG    1       -5.898   6.152   2.907  0.00  0.00    +0.290 C 
ATOM     20  C   LIG    1       -5.947   6.941   4.233  0.00  0.00    +0.050 C 
ATOM     21  C   LIG    1       -7.457   6.955   4.554  0.00  0.00    +0.090 C 
ATOM     22  C   LIG    1       -8.017   5.722   3.878  0.00  0.00    -0.090 A 
ATOM     23  C   LIG    1       -9.215   5.057   4.074  0.00  0.00    +0.010 A 
ATOM     24  C   LIG    1       -9.518   3.934   3.329  0.00  0.00    +0.010 A 
ATOM     25  C   LIG    1       -8.622   3.472   2.382  0.00  0.00    +0.000 A 
ATOM     26  C   LIG    1       -7.426   4.135   2.185  0.00  0.00    +0.020 A 
ATOM     27  C   LIG    1       -7.121   5.261   2.931  0.00  0.00    -0.110 A 
ENDBRANCH  16  19
ENDBRANCH   1  15
TORSDOF 3
