REMARK  Name = ZINCpe000000TpQp.0
REMARK                            x       y       z     vdW  Elec       q    Type
REMARK                         _______ _______ _______ _____ _____    ______ ____
ROOT
ATOM      1  N   LIG    1       -2.139  -0.879  -1.126  0.00  0.00    -0.580 N 
ATOM      2  C   LIG    1       -1.992  -1.953  -1.912  0.00  0.00    +0.700 C 
ATOM      3  N   LIG    1       -2.654  -1.829  -3.079  0.00  0.00    -0.710 N 
ATOM      4  H   LIG    1       -2.690  -2.478  -3.798  0.00  0.00    +0.450 HD
ATOM      5  C   LIG    1       -3.308  -0.515  -3.047  0.00  0.00    +0.180 C 
ATOM      6  C   LIG    1       -2.788   0.369  -4.177  0.00  0.00    +0.040 C 
ATOM      7  C   LIG    1       -3.676   1.619  -4.259  0.00  0.00    +0.260 C 
ATOM      8  O   LIG    1       -4.999   1.212  -4.609  0.00  0.00    -0.310 OA
ATOM      9  C   LIG    1       -5.564   0.199  -3.902  0.00  0.00    +0.160 A 
ATOM     10  C   LIG    1       -6.944   0.036  -3.958  0.00  0.00    -0.010 A 
ATOM     11  C   LIG    1       -7.552  -0.986  -3.257  0.00  0.00    +0.070 A 
ATOM     12  C   LIG    1       -6.787  -1.851  -2.497  0.00  0.00    -0.020 A 
ATOM     13  C   LIG    1       -5.417  -1.692  -2.437  0.00  0.00    +0.060 A 
ATOM     14  C   LIG    1       -4.801  -0.667  -3.136  0.00  0.00    -0.180 A 
ATOM     15  O   LIG    1       -1.337  -2.929  -1.607  0.00  0.00    -0.510 OA
ATOM     16  C   LIG    1       -2.921   0.057  -1.703  0.00  0.00    +0.540 C 
ATOM     17  O   LIG    1       -3.242   1.131  -1.242  0.00  0.00    -0.450 OA
ENDROOT
BRANCH   1  18
ATOM     18  C   LIG    1       -1.531  -0.741   0.200  0.00  0.00    +0.480 C 
BRANCH  18  23
ATOM     19  N   LIG    1        0.287   1.047   0.149  0.00  0.00    -0.290 N 
ATOM     20  N   LIG    1        1.564   1.054  -0.035  0.00  0.00    -0.080 NA
ATOM     21  N   LIG    1        1.961  -0.153  -0.238  0.00  0.00    -0.070 NA
ATOM     22  N   LIG    1        0.950  -0.950  -0.187  0.00  0.00    -0.270 NA
ATOM     23  C   LIG    1       -0.120  -0.232   0.055  0.00  0.00    +0.140 A 
BRANCH  19  24
ATOM     24  C   LIG    1       -0.560   2.213   0.414  0.00  0.00    +0.340 C 
BRANCH  24  26
ATOM     25  C   LIG    1       -1.533   3.665   2.199  0.00  0.00    +0.040 C 
ATOM     26  C   LIG    1       -0.638   2.455   1.922  0.00  0.00    +0.010 C 
ENDBRANCH  24  26
ENDBRANCH  19  24
ENDBRANCH  18  23
ENDBRANCH   1  18
TORSDOF 4
