REMARK  Name = ZINCAx0000000jPm.0
REMARK                            x       y       z     vdW  Elec       q    Type
REMARK                         _______ _______ _______ _____ _____    ______ ____
ROOT
ATOM      1  N   LIG    1       10.165  -2.655   1.345  0.00  0.00    -0.510 NA
ATOM      2  C   LIG    1       11.013  -1.951   0.374  0.00  0.00    +0.180 C 
ATOM      3  C   LIG    1       11.275  -0.525   0.870  0.00  0.00    +0.290 C 
ATOM      4  N   LIG    1        9.982   0.118   1.149  0.00  0.00    -0.610 N 
ATOM      5  C   LIG    1        9.024  -0.591   2.011  0.00  0.00    +0.280 C 
ATOM      6  C   LIG    1        9.685   1.327   0.634  0.00  0.00    +0.530 C 
ATOM      7  O   LIG    1       10.520   1.939   0.001  0.00  0.00    -0.530 OA
ATOM      8  C   LIG    1        8.848  -2.017   1.465  0.00  0.00    +0.180 C 
ENDROOT
BRANCH   6   9
ATOM      9  C   LIG    1        8.316   1.920   0.843  0.00  0.00    -0.020 C 
ATOM     10  C   LIG    1        8.397   3.445   0.739  0.00  0.00    +0.050 C 
ATOM     11  C   LIG    1        7.013   4.049   0.985  0.00  0.00    +0.020 C 
ATOM     12  C   LIG    1        6.042   3.543  -0.087  0.00  0.00    +0.270 C 
ATOM     13  N   LIG    1        6.066   2.074  -0.091  0.00  0.00    -0.600 N 
ATOM     14  C   LIG    1        4.925   1.368   0.030  0.00  0.00    +0.570 C 
ATOM     15  O   LIG    1        4.967   0.157   0.130  0.00  0.00    -0.530 OA
ATOM     16  C   LIG    1        7.360   1.390  -0.225  0.00  0.00    +0.310 C 
BRANCH  14  17
ATOM     17  C   LIG    1        3.625   2.064   0.041  0.00  0.00    -0.120 A 
ATOM     18  C   LIG    1        3.278   2.934  -0.984  0.00  0.00    +0.050 A 
ATOM     19  C   LIG    1        2.053   3.588  -0.972  0.00  0.00    +0.000 A 
ATOM     20  C   LIG    1        1.153   3.407   0.033  0.00  0.00    +0.050 A 
ATOM     21  C   LIG    1        1.438   2.542   1.103  0.00  0.00    -0.060 A 
ATOM     22  C   LIG    1        0.519   2.344   2.147  0.00  0.00    +0.030 A 
ATOM     23  C   LIG    1        0.830   1.497   3.167  0.00  0.00    +0.020 A 
ATOM     24  C   LIG    1        2.048   0.821   3.192  0.00  0.00    +0.020 A 
ATOM     25  C   LIG    1        2.962   0.990   2.195  0.00  0.00    +0.030 A 
ATOM     26  C   LIG    1        2.675   1.853   1.131  0.00  0.00    -0.020 A 
ENDBRANCH  14  17
ENDBRANCH   6   9
BRANCH   1  27
ATOM     27  C   LIG    1       10.032  -4.076   0.994  0.00  0.00    +0.280 C 
BRANCH  27  30
ATOM     28  N   LIG    1        8.968  -5.420  -0.790  0.00  0.00    -0.630 N 
ATOM     29  H   LIG    1        9.197  -6.215  -0.284  0.00  0.00    +0.420 HD
ATOM     30  C   LIG    1        9.302  -4.202  -0.319  0.00  0.00    +0.490 C 
ATOM     31  O   LIG    1        9.016  -3.208  -0.952  0.00  0.00    -0.510 OA
BRANCH  28  35
ATOM     32  C   LIG    1        6.658  -4.457  -5.102  0.00  0.00    +0.190 C 
ATOM     33  C   LIG    1        7.282  -5.106  -3.894  0.00  0.00    -0.020 A 
ATOM     34  C   LIG    1        7.888  -4.478  -2.861  0.00  0.00    -0.040 A 
ATOM     35  C   LIG    1        8.293  -5.536  -2.005  0.00  0.00    +0.240 A 
ATOM     36  N   LIG    1        7.911  -6.643  -2.587  0.00  0.00    -0.390 NA
ATOM     37  O   LIG    1        7.345  -6.420  -3.632  0.00  0.00    +0.100 OA
ENDBRANCH  28  35
ENDBRANCH  27  30
ENDBRANCH   1  27
TORSDOF 5
