REMARK  Name = ZINCvU0000000AgW.0
REMARK                            x       y       z     vdW  Elec       q    Type
REMARK                         _______ _______ _______ _____ _____    ______ ____
ROOT
ATOM      1  C   LIG    1       -1.850   1.068   2.229  0.00  0.00    +0.180 A 
ATOM      2  C   LIG    1       -2.913   1.053   3.119  0.00  0.00    +0.060 A 
ATOM      3  N   LIG    1       -3.516  -0.144   3.026  0.00  0.00    -0.380 NA
ATOM      4  C   LIG    1       -2.882  -0.883   2.131  0.00  0.00    +0.150 A 
ATOM      5  C   LIG    1       -3.085  -2.192   1.655  0.00  0.00    +0.390 A 
ATOM      6  N   LIG    1       -2.283  -2.685   0.740  0.00  0.00    -0.450 NA
ATOM      7  C   LIG    1       -1.268  -1.970   0.243  0.00  0.00    -0.560 A 
ATOM      8  C   LIG    1       -1.027  -0.712   0.662  0.00  0.00    +0.290 A 
ATOM      9  N   LIG    1       -1.834  -0.146   1.617  0.00  0.00    -0.380 N 
ENDROOT
BRANCH   2  10
ATOM     10  C   LIG    1       -3.314   2.159   4.009  0.00  0.00    +0.020 C 
ATOM     11  C   LIG    1       -4.412   2.010   4.734  0.00  0.00    -0.150 C 
ATOM     12  C   LIG    1       -4.937   3.057   5.673  0.00  0.00    +0.080 C 
ATOM     13  C   LIG    1       -3.844   4.081   5.986  0.00  0.00    +0.020 C 
ATOM     14  C   LIG    1       -3.227   4.554   4.664  0.00  0.00    +0.020 C 
ATOM     15  C   LIG    1       -2.452   3.386   4.046  0.00  0.00    +0.090 C 
BRANCH  11  16
ATOM     16  S   LIG    1       -5.306   0.499   4.589  0.00  0.00    +0.050 S 
BRANCH  16  17
ATOM     17  C   LIG    1       -5.143  -0.214   6.192  0.00  0.00    -0.100 A 
ATOM     18  C   LIG    1       -4.320   0.384   7.140  0.00  0.00    -0.010 A 
ATOM     19  C   LIG    1       -4.199  -0.174   8.397  0.00  0.00    +0.020 A 
ATOM     20  C   LIG    1       -4.887  -1.333   8.710  0.00  0.00    -0.010 A 
ATOM     21  C   LIG    1       -5.702  -1.934   7.768  0.00  0.00    +0.020 A 
ATOM     22  C   LIG    1       -5.832  -1.378   6.511  0.00  0.00    +0.010 A 
ENDBRANCH  16  17
ENDBRANCH  11  16
ENDBRANCH   2  10
BRANCH   7  23
ATOM     23  P   LIG    1       -0.196  -2.708  -1.020  0.00  0.00    +2.560 P 
ATOM     24  O   LIG    1        0.847  -1.734  -1.413  0.00  0.00    -0.970 OA
ATOM     25  C   LIG    1       -1.193  -3.152  -2.480  0.00  0.00    -0.480 C 
ATOM     26  C   LIG    1        0.595  -4.206  -0.346  0.00  0.00    -0.500 C 
ENDBRANCH   7  23
BRANCH   1  27
ATOM     27  N   LIG    1       -0.964   2.122   2.008  0.00  0.00    -0.580 N 
ATOM     28  H   LIG    1       -0.608   2.483   2.880  0.00  0.00    +0.380 HD
BRANCH  27  29
ATOM     29  C   LIG    1        0.132   1.712   1.121  0.00  0.00    +0.220 C 
BRANCH  29  30
ATOM     30  C   LIG    1       -0.313   1.850  -0.337  0.00  0.00    +0.050 C 
BRANCH  30  32
ATOM     31  C   LIG    1        0.358   1.646  -3.088  0.00  0.00    +0.140 C 
ATOM     32  S   LIG    1        1.068   1.426  -1.433  0.00  0.00    -0.190 S 
ENDBRANCH  30  32
ENDBRANCH  29  30
ENDBRANCH  27  29
ENDBRANCH   1  27
TORSDOF 8
