REMARK  Name = ZINCpk00000Fd3qQ.0
REMARK                            x       y       z     vdW  Elec       q    Type
REMARK                         _______ _______ _______ _____ _____    ______ ____
ROOT
ATOM      1  C   LIG    1       -0.016   1.344   0.009  0.00  0.00    +0.610 C 
ATOM      2  N   LIG    1        0.002  -0.004   0.002  0.00  0.00    -0.610 N 
ATOM      3  C   LIG    1        1.274  -0.742  -0.014  0.00  0.00    +0.290 C 
ATOM      4  C   LIG    1        1.228  -1.768  -1.151  0.00  0.00    +0.190 C 
ATOM      5  N   LIG    1        0.028  -2.602  -1.005  0.00  0.00    -0.530 NA
ATOM      6  C   LIG    1       -1.197  -1.801  -1.129  0.00  0.00    +0.270 C 
ATOM      7  C   LIG    1        0.034  -3.707  -1.973  0.00  0.00    +0.200 C 
ATOM      8  C   LIG    1       -1.250  -0.776   0.016  0.00  0.00    +0.320 C 
ATOM      9  O   LIG    1       -1.077   1.937   0.018  0.00  0.00    -0.530 OA
ENDROOT
BRANCH   1  17
ATOM     10  C   LIG    1        1.562   2.296  -2.574  0.00  0.00    +0.150 C 
ATOM     11  C   LIG    1        1.963   2.528  -1.140  0.00  0.00    +0.110 A 
ATOM     12  N   LIG    1        3.027   3.165  -0.735  0.00  0.00    -0.290 NA
ATOM     13  N   LIG    1        3.051   3.163   0.664  0.00  0.00    -0.360 N 
ATOM     14  C   LIG    1        1.965   2.511   1.108  0.00  0.00    +0.130 A 
ATOM     15  C   LIG    1        1.594   2.274   2.549  0.00  0.00    +0.160 C 
ATOM     16  C   LIG    1        4.088   3.771   1.503  0.00  0.00    +0.360 C 
ATOM     17  C   LIG    1        1.250   2.098   0.001  0.00  0.00    -0.290 A 
ENDBRANCH   1  17
BRANCH   6  18
ATOM     18  C   LIG    1       -2.400  -2.705  -1.048  0.00  0.00    +0.190 A 
ATOM     19  N   LIG    1       -3.457  -2.669  -1.823  0.00  0.00    -0.470 NA
ATOM     20  C   LIG    1       -4.261  -3.654  -1.385  0.00  0.00    +0.200 A 
ATOM     21  N   LIG    1       -3.666  -4.223  -0.380  0.00  0.00    -0.380 NA
ATOM     22  O   LIG    1       -2.596  -3.693  -0.170  0.00  0.00    +0.100 OA
BRANCH  20  23
ATOM     23  C   LIG    1       -5.607  -4.026  -1.952  0.00  0.00    +0.060 C 
ATOM     24  C   LIG    1       -6.445  -5.042  -1.174  0.00  0.00    +0.050 C 
ATOM     25  C   LIG    1       -5.779  -5.448  -2.490  0.00  0.00    +0.050 C 
ENDBRANCH  20  23
ENDBRANCH   6  18
TORSDOF 3
