REMARK  Name = ZINCkj00000dDM4c.1
REMARK                            x       y       z     vdW  Elec       q    Type
REMARK                         _______ _______ _______ _____ _____    ______ ____
ROOT
ATOM      1  C   LIG    1        1.527   0.196   4.517  0.00  0.00    +0.100 C 
ATOM      2  C   LIG    1        0.186   0.821   4.910  0.00  0.00    +0.230 C 
ATOM      3  C   LIG    1        0.369   1.662   6.184  0.00  0.00    +0.260 C 
ATOM      4  N   LIG    1       -0.872   2.390   6.418  0.00  0.00    -0.400 N 
ATOM      5  C   LIG    1       -0.893   3.204   7.645  0.00  0.00    +0.270 C 
ATOM      6  C   LIG    1       -2.037   4.219   7.387  0.00  0.00    +0.070 C 
ATOM      7  C   LIG    1       -2.153   4.307   5.844  0.00  0.00    +0.080 C 
ATOM      8  C   LIG    1       -1.038   3.388   5.327  0.00  0.00    +0.160 C 
ATOM      9  C   LIG    1       -1.397   2.623   4.063  0.00  0.00    +0.320 C 
ATOM     10  H   LIG    1       -1.651   1.749   6.419  0.00  0.00    +0.420 HD
ATOM     11  N   LIG    1       -0.295   1.671   3.814  0.00  0.00    -0.640 N 
ATOM     12  C   LIG    1        0.267   1.588   2.592  0.00  0.00    +0.520 C 
ATOM     13  O   LIG    1        1.229   0.870   2.414  0.00  0.00    -0.500 OA
ENDROOT
BRANCH  12  14
ATOM     14  C   LIG    1       -0.299   2.386   1.446  0.00  0.00    +0.060 C 
BRANCH  14  15
ATOM     15  C   LIG    1        0.518   2.112   0.181  0.00  0.00    +0.040 C 
BRANCH  15  16
ATOM     16  C   LIG    1       -0.057   2.922  -0.983  0.00  0.00    +0.290 C 
BRANCH  16  17
ATOM     17  N   LIG    1        0.725   2.660  -2.194  0.00  0.00    -0.460 N 
ATOM     18  C   LIG    1        0.487   1.677  -3.117  0.00  0.00    +0.110 A 
ATOM     19  C   LIG    1        1.439   1.793  -4.062  0.00  0.00    +0.150 A 
ATOM     20  N   LIG    1        2.236   2.818  -3.726  0.00  0.00    -0.490 NA
ATOM     21  C   LIG    1        1.811   3.345  -2.611  0.00  0.00    +0.380 A 
ENDBRANCH  16  17
ENDBRANCH  15  16
ENDBRANCH  14  15
ENDBRANCH  12  14
TORSDOF 4
