REMARK  Name = ZINCkj00000dDM4c.0
REMARK                            x       y       z     vdW  Elec       q    Type
REMARK                         _______ _______ _______ _____ _____    ______ ____
ROOT
ATOM      1  C   LIG    1       -4.681   4.137   2.034  0.00  0.00    +0.080 C 
ATOM      2  C   LIG    1       -3.271   3.816   1.534  0.00  0.00    +0.230 C 
ATOM      3  C   LIG    1       -2.791   2.555   2.216  0.00  0.00    +0.270 C 
ATOM      4  N   LIG    1       -1.857   1.769   1.484  0.00  0.00    -0.370 N 
ATOM      5  C   LIG    1       -0.439   2.050   1.741  0.00  0.00    +0.260 C 
ATOM      6  C   LIG    1        0.305   1.210   0.677  0.00  0.00    +0.070 C 
ATOM      7  C   LIG    1       -0.682   1.114  -0.503  0.00  0.00    +0.080 C 
ATOM      8  C   LIG    1       -2.055   1.552   0.066  0.00  0.00    +0.170 C 
ATOM      9  C   LIG    1       -2.479   2.805  -0.686  0.00  0.00    +0.310 C 
ATOM     10  H   LIG    1       -1.965   0.845   1.875  0.00  0.00    +0.420 HD
ATOM     11  N   LIG    1       -3.303   3.700   0.092  0.00  0.00    -0.620 N 
ATOM     12  C   LIG    1       -4.168   4.487  -0.577  0.00  0.00    +0.520 C 
ATOM     13  O   LIG    1       -4.935   5.201   0.035  0.00  0.00    -0.500 OA
ENDROOT
BRANCH  12  14
ATOM     14  C   LIG    1       -4.183   4.481  -2.083  0.00  0.00    +0.060 C 
BRANCH  14  15
ATOM     15  C   LIG    1       -5.250   5.456  -2.587  0.00  0.00    +0.040 C 
BRANCH  15  16
ATOM     16  C   LIG    1       -5.265   5.450  -4.117  0.00  0.00    +0.300 C 
BRANCH  16  17
ATOM     17  N   LIG    1       -6.286   6.383  -4.599  0.00  0.00    -0.460 N 
ATOM     18  C   LIG    1       -6.106   7.711  -4.877  0.00  0.00    +0.110 A 
ATOM     19  C   LIG    1       -7.296   8.187  -5.290  0.00  0.00    +0.150 A 
ATOM     20  N   LIG    1       -8.178   7.178  -5.265  0.00  0.00    -0.490 NA
ATOM     21  C   LIG    1       -7.579   6.092  -4.858  0.00  0.00    +0.380 A 
ENDBRANCH  16  17
ENDBRANCH  15  16
ENDBRANCH  14  15
ENDBRANCH  12  14
TORSDOF 4
