REMARK  Name = ZINCrD00000l7e0D.0
REMARK                            x       y       z     vdW  Elec       q    Type
REMARK                         _______ _______ _______ _____ _____    ______ ____
ROOT
ATOM      1  C   LIG    1        2.312   0.070  -0.524  0.00  0.00    +0.630 A 
ATOM      2  N   LIG    1        1.174  -0.620  -0.506  0.00  0.00    -0.610 NA
ATOM      3  C   LIG    1        0.024   0.005  -0.320  0.00  0.00    +0.430 A 
ATOM      4  N   LIG    1       -0.001   1.315  -0.151  0.00  0.00    -0.610 NA
ATOM      5  C   LIG    1        1.134   2.011  -0.167  0.00  0.00    +0.630 A 
ATOM      6  N   LIG    1        2.292   1.387  -0.354  0.00  0.00    -0.630 NA
ENDROOT
BRANCH   1   7
ATOM      7  N   LIG    1        3.513  -0.583  -0.719  0.00  0.00    -0.800 N 
ATOM      8  H   LIG    1        4.342  -0.080  -0.731  0.00  0.00    +0.420 HD
ATOM      9  H   LIG    1        3.527  -1.545  -0.842  0.00  0.00    +0.420 HD
ENDBRANCH   1   7
BRANCH   5  10
ATOM     10  N   LIG    1        1.107   3.381   0.009  0.00  0.00    -0.620 N 
ATOM     11  H   LIG    1        0.258   3.846   0.065  0.00  0.00    +0.430 HD
BRANCH  10  12
ATOM     12  C   LIG    1        2.305   4.098   0.107  0.00  0.00    +0.150 A 
ATOM     13  C   LIG    1        3.416   3.517   0.705  0.00  0.00    +0.060 A 
ATOM     14  C   LIG    1        4.599   4.224   0.796  0.00  0.00    +0.010 A 
ATOM     15  C   LIG    1        4.675   5.515   0.302  0.00  0.00    +0.080 A 
ATOM     16  C   LIG    1        3.567   6.098  -0.290  0.00  0.00    +0.010 A 
ATOM     17  F   LIG    1        5.831   6.207   0.398  0.00  0.00    -0.140 F 
ATOM     18  C   LIG    1        2.384   5.393  -0.388  0.00  0.00    +0.030 A 
ENDBRANCH  10  12
ENDBRANCH   5  10
BRANCH   3  19
ATOM     19  C   LIG    1       -1.262  -0.780  -0.301  0.00  0.00    +0.360 C 
BRANCH  19  20
ATOM     20  O   LIG    1       -1.801  -0.859  -1.647  0.00  0.00    -0.350 OA
BRANCH  20  21
ATOM     21  C   LIG    1       -2.953  -1.530  -1.804  0.00  0.00    +0.470 C 
ATOM     22  O   LIG    1       -3.494  -2.034  -0.848  0.00  0.00    -0.490 OA
BRANCH  21  23
ATOM     23  C   LIG    1       -3.572  -1.655  -3.172  0.00  0.00    +0.170 C 
BRANCH  23  24
ATOM     24  C   LIG    1       -4.850  -2.448  -3.075  0.00  0.00    -0.070 A 
ATOM     25  C   LIG    1       -4.823  -3.822  -3.221  0.00  0.00    +0.030 A 
ATOM     26  C   LIG    1       -5.993  -4.551  -3.127  0.00  0.00    +0.050 A 
ATOM     27  C   LIG    1       -7.194  -3.904  -2.897  0.00  0.00    -0.090 A 
ATOM     28  C   LIG    1       -7.221  -2.528  -2.755  0.00  0.00    +0.050 A 
ATOM     29 BR   LIG    1       -8.797  -4.899  -2.775  0.00  0.00    -0.050 Br
ATOM     30  C   LIG    1       -6.050  -1.801  -2.845  0.00  0.00    +0.030 A 
ENDBRANCH  23  24
ENDBRANCH  21  23
ENDBRANCH  20  21
ENDBRANCH  19  20
ENDBRANCH   3  19
TORSDOF 8
