REMARK  Name = ZINCrD0000075slS.0
REMARK                            x       y       z     vdW  Elec       q    Type
REMARK                         _______ _______ _______ _____ _____    ______ ____
ROOT
ATOM      1  O   LIG    1       -2.595  -2.771   0.013  0.00  0.00    -0.340 OA
ENDROOT
BRANCH   1   2
ATOM      2  C   LIG    1       -2.751  -4.110   0.007  0.00  0.00    +0.510 C 
ATOM      3  O   LIG    1       -1.775  -4.835  -0.006  0.00  0.00    -0.490 OA
BRANCH   2   4
ATOM      4  C   LIG    1       -4.102  -4.694   0.017  0.00  0.00    -0.160 A 
ATOM      5  C   LIG    1       -4.258  -6.078   0.011  0.00  0.00    +0.210 A 
ATOM      6  C   LIG    1       -5.558  -6.626   0.021  0.00  0.00    -0.100 A 
ATOM      7  C   LIG    1       -5.759  -8.015   0.015  0.00  0.00    +0.060 A 
ATOM      8  C   LIG    1       -7.028  -8.512   0.025  0.00  0.00    +0.010 A 
ATOM      9  C   LIG    1       -8.130  -7.661   0.040  0.00  0.00    +0.040 A 
ATOM     10  C   LIG    1       -7.971  -6.308   0.046  0.00  0.00    +0.010 A 
ATOM     11  C   LIG    1       -6.678  -5.759   0.037  0.00  0.00    -0.010 A 
ATOM     12  C   LIG    1       -6.483  -4.364   0.042  0.00  0.00    +0.020 A 
ATOM     13  C   LIG    1       -5.229  -3.850   0.039  0.00  0.00    +0.080 A 
BRANCH   5  14
ATOM     14  O   LIG    1       -3.174  -6.890  -0.004  0.00  0.00    -0.470 OA
ATOM     15  H   LIG    1       -2.850  -7.130   0.875  0.00  0.00    +0.400 HD
ENDBRANCH   5  14
ENDBRANCH   2   4
ENDBRANCH   1   2
BRANCH   1  16
ATOM     16  C   LIG    1       -1.234  -2.265   0.002  0.00  0.00    +0.240 C 
BRANCH  16  18
ATOM     17  O   LIG    1       -2.318  -0.169   0.024  0.00  0.00    -0.420 OA
ATOM     18  C   LIG    1       -1.258  -0.758   0.010  0.00  0.00    +0.400 C 
BRANCH  18  19
ATOM     19  C   LIG    1        0.002  -0.004   0.002  0.00  0.00    -0.170 A 
ATOM     20  C   LIG    1        1.227  -0.682  -0.013  0.00  0.00    +0.070 A 
ATOM     21  C   LIG    1        2.405   0.029  -0.019  0.00  0.00    +0.030 A 
ATOM     22  C   LIG    1        2.386   1.419  -0.011  0.00  0.00    +0.090 A 
ATOM     23  O   LIG    1        3.563   2.099  -0.013  0.00  0.00    -0.300 OA
ATOM     24  C   LIG    1        3.509   3.481  -0.384  0.00  0.00    +0.230 C 
ATOM     25  C   LIG    1        2.345   4.136   0.371  0.00  0.00    +0.230 C 
ATOM     26  O   LIG    1        1.136   3.462   0.002  0.00  0.00    -0.300 OA
ATOM     27  C   LIG    1        1.171   2.102   0.002  0.00  0.00    +0.040 A 
ATOM     28  C   LIG    1       -0.017   1.396   0.010  0.00  0.00    +0.100 A 
ENDBRANCH  18  19
ENDBRANCH  16  18
ENDBRANCH   1  16
TORSDOF 6
