REMARK  Name = ZINCrH000004kVvP.0
REMARK                            x       y       z     vdW  Elec       q    Type
REMARK                         _______ _______ _______ _____ _____    ______ ____
ROOT
ATOM      1  N   LIG    1        3.152  -2.400   1.438  0.00  0.00    -0.660 N 
ATOM      2  H   LIG    1        2.274  -2.774   1.612  0.00  0.00    +0.410 HD
ATOM      3  C   LIG    1        3.265  -1.155   0.934  0.00  0.00    +0.550 C 
ATOM      4  O   LIG    1        4.361  -0.711   0.652  0.00  0.00    -0.490 OA
ENDROOT
BRANCH   3   5
ATOM      5  C   LIG    1        2.056  -0.328   0.725  0.00  0.00    -0.000 A 
ATOM      6  C   LIG    1        2.156   1.029   0.363  0.00  0.00    -0.200 A 
ATOM      7  C   LIG    1        3.276   1.935   0.112  0.00  0.00    +0.160 A 
ATOM      8  N   LIG    1        2.776   3.094  -0.192  0.00  0.00    -0.270 NA
ATOM      9  O   LIG    1        1.364   3.027  -0.161  0.00  0.00    -0.080 OA
ATOM     10  C   LIG    1        4.740   1.587   0.190  0.00  0.00    +0.210 C 
ATOM     11  C   LIG    1        0.982   1.778   0.174  0.00  0.00    +0.300 A 
ATOM     12  N   LIG    1       -0.202   1.208   0.337  0.00  0.00    -0.460 NA
ATOM     13  C   LIG    1       -0.327  -0.058   0.675  0.00  0.00    +0.240 A 
ATOM     14  C   LIG    1        0.779  -0.868   0.880  0.00  0.00    -0.020 A 
BRANCH  13  15
ATOM     15  C   LIG    1       -1.706  -0.641   0.843  0.00  0.00    +0.020 C 
ATOM     16  C   LIG    1       -1.831  -2.166   0.857  0.00  0.00    +0.040 C 
ATOM     17  C   LIG    1       -2.316  -1.369  -0.357  0.00  0.00    +0.060 C 
ENDBRANCH  13  15
ENDBRANCH   3   5
BRANCH   1  22
ATOM     18  C   LIG    1        6.574  -3.748   1.199  0.00  0.00    -0.110 A 
ATOM     19  C   LIG    1        6.569  -4.653   2.262  0.00  0.00    +0.070 A 
ATOM     20  C   LIG    1        5.436  -4.801   3.037  0.00  0.00    +0.030 A 
ATOM     21  C   LIG    1        4.305  -4.055   2.765  0.00  0.00    -0.070 A 
ATOM     22  C   LIG    1        4.300  -3.151   1.709  0.00  0.00    +0.130 A 
ATOM     23  C   LIG    1        3.072  -4.224   3.616  0.00  0.00    +0.100 C 
ATOM     24  C   LIG    1        5.430  -2.999   0.921  0.00  0.00    +0.110 A 
BRANCH  18  25
ATOM     25  C   LIG    1        7.785  -3.588   0.368  0.00  0.00    +0.510 C 
ATOM     26  O   LIG    1        7.787  -2.800  -0.556  0.00  0.00    -0.500 OA
BRANCH  25  28
ATOM     27  C   LIG    1       10.039  -4.106  -0.222  0.00  0.00    +0.270 C 
ATOM     28  O   LIG    1        8.887  -4.315   0.636  0.00  0.00    -0.350 OA
ENDBRANCH  25  28
ENDBRANCH  18  25
ENDBRANCH   1  22
TORSDOF 5
