REMARK  Name = ZINCtV000002OHJ2.0
REMARK                            x       y       z     vdW  Elec       q    Type
REMARK                         _______ _______ _______ _____ _____    ______ ____
ROOT
ATOM      1  O   LIG    1       -4.900  -3.718   0.074  0.00  0.00    -0.470 OA
ATOM      2  C   LIG    1       -3.964  -4.490   0.164  0.00  0.00    +0.590 C 
ATOM      3  N   LIG    1       -2.701  -4.019   0.179  0.00  0.00    -0.620 N 
ATOM      4  H   LIG    1       -1.955  -4.635   0.251  0.00  0.00    +0.420 HD
ENDROOT
BRANCH   2   5
ATOM      5  C   LIG    1       -4.210  -5.933   0.256  0.00  0.00    -0.240 A 
ATOM      6  C   LIG    1       -5.423  -6.501   0.249  0.00  0.00    +0.060 A 
ATOM      7  C   LIG    1       -5.436  -7.903   0.347  0.00  0.00    -0.100 A 
ATOM      8  C   LIG    1       -6.546  -8.780   0.366  0.00  0.00    +0.130 A 
ATOM      9  C   LIG    1       -6.362 -10.123   0.466  0.00  0.00    +0.000 A 
ATOM     10  C   LIG    1       -5.082 -10.660   0.553  0.00  0.00    +0.150 A 
ATOM     11  C   LIG    1       -3.982  -9.831   0.537  0.00  0.00    +0.020 A 
ATOM     12  F   LIG    1       -4.917 -11.998   0.651  0.00  0.00    -0.120 F 
ATOM     13  C   LIG    1       -4.148  -8.447   0.435  0.00  0.00    -0.090 A 
ATOM     14 CL   LIG    1       -6.881  -5.568   0.127  0.00  0.00    +0.000 Cl
ATOM     15  S   LIG    1       -2.955  -7.154   0.382  0.00  0.00    +0.190 S 
ENDBRANCH   2   5
BRANCH   3  16
ATOM     16  C   LIG    1       -2.468  -2.654   0.092  0.00  0.00    +0.270 A 
ATOM     17  N   LIG    1       -1.300  -2.091   0.098  0.00  0.00    -0.490 NA
ATOM     18  C   LIG    1       -1.269  -0.768   0.006  0.00  0.00    +0.130 A 
ATOM     19  C   LIG    1       -2.470  -0.168  -0.076  0.00  0.00    -0.110 A 
ATOM     20  S   LIG    1       -3.713  -1.415  -0.042  0.00  0.00    +0.210 S 
BRANCH  18  21
ATOM     21  C   LIG    1        0.002  -0.004   0.002  0.00  0.00    -0.030 A 
ATOM     22  C   LIG    1       -0.017   1.389   0.010  0.00  0.00    +0.020 A 
ATOM     23  C   LIG    1        1.171   2.087   0.002  0.00  0.00    +0.000 A 
ATOM     24  C   LIG    1        2.388   1.416  -0.013  0.00  0.00    -0.070 A 
ATOM     25  C   LIG    1        3.644   2.248  -0.035  0.00  0.00    +0.080 C 
ATOM     26  C   LIG    1        4.850   1.411   0.389  0.00  0.00    +0.020 C 
ATOM     27  C   LIG    1        4.867   0.129  -0.451  0.00  0.00    +0.020 C 
ATOM     28  C   LIG    1        3.697  -0.750  -0.013  0.00  0.00    +0.070 C 
ATOM     29  C   LIG    1        2.413   0.038  -0.015  0.00  0.00    -0.080 A 
ATOM     30  C   LIG    1        1.222  -0.673  -0.010  0.00  0.00    +0.040 A 
ENDBRANCH  18  21
ENDBRANCH   3  16
TORSDOF 3
