REMARK  Name = ZINCqH0000034zmv.0
REMARK                            x       y       z     vdW  Elec       q    Type
REMARK                         _______ _______ _______ _____ _____    ______ ____
ROOT
ATOM      1  C   LIG    1        6.065   1.825  -0.045  0.00  0.00    -0.200 A 
ATOM      2  C   LIG    1        4.853   1.193  -0.037  0.00  0.00    +0.030 A 
ATOM      3  S   LIG    1        5.055  -0.497  -0.040  0.00  0.00    +0.290 S 
ATOM      4  C   LIG    1        6.807  -0.371  -0.063  0.00  0.00    -0.240 A 
ATOM      5  C   LIG    1        7.761  -1.550  -0.078  0.00  0.00    +0.120 C 
ATOM      6  C   LIG    1        9.146  -1.056  -0.505  0.00  0.00    +0.020 C 
ATOM      7  C   LIG    1        9.523   0.165   0.339  0.00  0.00    +0.020 C 
ATOM      8  C   LIG    1        8.646   1.350  -0.073  0.00  0.00    +0.100 C 
ATOM      9  C   LIG    1        7.191   0.910  -0.061  0.00  0.00    -0.050 A 
ENDROOT
BRANCH   1  12
ATOM     10  C   LIG    1        6.182   3.238  -2.475  0.00  0.00    +0.290 C 
ATOM     11  N   LIG    1        6.268   3.960  -1.204  0.00  0.00    -0.610 N 
ATOM     12  C   LIG    1        6.212   3.284  -0.039  0.00  0.00    +0.580 C 
ATOM     13  O   LIG    1        6.283   3.884   1.017  0.00  0.00    -0.520 OA
BRANCH  11  14
ATOM     14  C   LIG    1        6.416   5.418  -1.198  0.00  0.00    +0.310 C 
BRANCH  14  15
ATOM     15  C   LIG    1        7.902   5.780  -1.211  0.00  0.00    -0.070 C 
ATOM     16  C   LIG    1        8.458   6.525   0.005  0.00  0.00    +0.020 C 
ATOM     17  C   LIG    1        8.267   7.262  -1.323  0.00  0.00    +0.020 C 
ENDBRANCH  14  15
ENDBRANCH  11  14
ENDBRANCH   1  12
BRANCH   2  18
ATOM     18  N   LIG    1        3.627   1.839  -0.022  0.00  0.00    -0.630 N 
ATOM     19  H   LIG    1        3.590   2.808  -0.017  0.00  0.00    +0.420 HD
ATOM     20  C   LIG    1        2.487   1.121  -0.015  0.00  0.00    +0.560 C 
ATOM     21  O   LIG    1        2.533  -0.094  -0.022  0.00  0.00    -0.490 OA
BRANCH  20  22
ATOM     22  C   LIG    1        1.179   1.810   0.001  0.00  0.00    -0.190 A 
ATOM     23  C   LIG    1       -0.013   1.076   0.008  0.00  0.00    +0.140 A 
ATOM     24  C   LIG    1       -1.210   1.769   0.017  0.00  0.00    -0.030 A 
ATOM     25  C   LIG    1       -1.191   3.152   0.030  0.00  0.00    +0.300 A 
ATOM     26  N   LIG    1       -0.052   3.818   0.023  0.00  0.00    -0.480 NA
ATOM     27  C   LIG    1        1.112   3.204   0.009  0.00  0.00    +0.290 A 
ENDBRANCH  20  22
ENDBRANCH   2  18
TORSDOF 5
