REMARK  Name = ZINCqH0000006yvg.0
REMARK                            x       y       z     vdW  Elec       q    Type
REMARK                         _______ _______ _______ _____ _____    ______ ____
ROOT
ATOM      1  C   LIG    1       -0.512   1.124   4.850  0.00  0.00    +0.200 A 
ATOM      2  C   LIG    1        0.666   0.393   4.972  0.00  0.00    -0.110 A 
ATOM      3  C   LIG    1        1.116   0.010   6.204  0.00  0.00    +0.160 A 
ATOM      4  C   LIG    1        0.389   0.356   7.346  0.00  0.00    -0.290 A 
ATOM      5  C   LIG    1        0.853  -0.048   8.682  0.00  0.00    +0.410 C 
ATOM      6  C   LIG    1        0.162   0.605   9.866  0.00  0.00    +0.020 C 
ATOM      7  C   LIG    1       -1.334   0.687   9.529  0.00  0.00    +0.130 C 
ATOM      8  O   LIG    1       -1.510   1.444   8.333  0.00  0.00    -0.290 OA
ATOM      9  C   LIG    1       -2.073   1.366  10.683  0.00  0.00    +0.070 C 
ATOM     10  C   LIG    1       -3.568   1.435  10.364  0.00  0.00    +0.020 C 
ATOM     11  C   LIG    1       -4.114   0.019  10.170  0.00  0.00    +0.010 C 
ATOM     12  C   LIG    1       -3.377  -0.656   9.011  0.00  0.00    +0.020 C 
ATOM     13  C   LIG    1       -1.882  -0.727   9.330  0.00  0.00    +0.000 C 
ATOM     14  O   LIG    1        1.741  -0.862   8.830  0.00  0.00    -0.450 OA
ATOM     15  C   LIG    1       -0.802   1.097   7.233  0.00  0.00    +0.230 A 
ATOM     16  C   LIG    1       -1.241   1.480   5.976  0.00  0.00    -0.050 A 
ENDROOT
BRANCH   1  17
ATOM     17  O   LIG    1       -0.949   1.497   3.621  0.00  0.00    -0.300 OA
BRANCH  17  18
ATOM     18  C   LIG    1       -0.151   1.104   2.503  0.00  0.00    +0.190 C 
BRANCH  18  19
ATOM     19  C   LIG    1       -0.798   1.611   1.212  0.00  0.00    +0.180 C 
BRANCH  19  20
ATOM     20  C   LIG    1       -0.013   1.086   0.008  0.00  0.00    -0.020 C 
ATOM     21  C   LIG    1       -0.596   1.638  -1.321  0.00  0.00    +0.020 C 
ATOM     22  C   LIG    1        0.662   1.617  -2.225  0.00  0.00    +0.200 C 
ATOM     23  O   LIG    1        1.752   1.973  -1.360  0.00  0.00    -0.380 OA
ATOM     24  C   LIG    1        1.422   1.655  -0.003  0.00  0.00    +0.210 C 
ENDBRANCH  19  20
BRANCH  19  26
ATOM     25  C   LIG    1       -1.946   3.635   1.787  0.00  0.00    +0.220 C 
ATOM     26  O   LIG    1       -0.786   3.040   1.202  0.00  0.00    -0.370 OA
ENDBRANCH  19  26
ENDBRANCH  18  19
ENDBRANCH  17  18
ENDBRANCH   1  17
TORSDOF 5
