REMARK  Name = ZINCAx0000000ajQ.0
REMARK                            x       y       z     vdW  Elec       q    Type
REMARK                         _______ _______ _______ _____ _____    ______ ____
ROOT
ATOM      1  C   LIG    1        0.237   2.019   2.240  0.00  0.00    +0.270 C 
ENDROOT
BRANCH   1   5
ATOM      2  C   LIG    1       -0.195   1.180  -1.302  0.00  0.00    +0.270 C 
ATOM      3  C   LIG    1       -1.429   2.078  -1.059  0.00  0.00    +0.060 C 
ATOM      4  C   LIG    1       -1.155   2.671   0.346  0.00  0.00    +0.200 C 
ATOM      5  N   LIG    1       -0.525   1.540   1.079  0.00  0.00    -0.470 NA
ATOM      6  C   LIG    1        0.363   0.875   0.101  0.00  0.00    +0.180 C 
BRANCH   2   9
ATOM      7  C   LIG    1        2.222   2.452  -3.660  0.00  0.00    -0.100 A 
ATOM      8  C   LIG    1        1.345   1.481  -3.265  0.00  0.00    +0.130 A 
ATOM      9  N   LIG    1        0.804   1.893  -2.102  0.00  0.00    -0.360 N 
ATOM     10  N   LIG    1        1.385   3.134  -1.801  0.00  0.00    -0.040 NA
ATOM     11  C   LIG    1        1.040   0.197  -3.992  0.00  0.00    +0.190 C 
ATOM     12  N   LIG    1        2.214   3.432  -2.740  0.00  0.00    -0.170 NA
BRANCH   7  13
ATOM     13  C   LIG    1        3.043   2.426  -4.884  0.00  0.00    +0.560 C 
ATOM     14  O   LIG    1        2.966   1.483  -5.647  0.00  0.00    -0.500 OA
BRANCH  13  16
ATOM     15  C   LIG    1        4.655   3.355  -6.380  0.00  0.00    +0.290 C 
ATOM     16  O   LIG    1        3.877   3.447  -5.157  0.00  0.00    -0.340 OA
ENDBRANCH  13  16
ENDBRANCH   7  13
ENDBRANCH   2   9
ENDBRANCH   1   5
BRANCH   1  17
ATOM     17  C   LIG    1        1.338   2.937   1.775  0.00  0.00    +0.140 A 
ATOM     18  N   LIG    1        1.192   4.075   1.141  0.00  0.00    -0.280 NA
ATOM     19  N   LIG    1        2.365   4.561   0.920  0.00  0.00    -0.050 NA
ATOM     20  N   LIG    1        3.255   3.758   1.390  0.00  0.00    -0.090 NA
ATOM     21  N   LIG    1        2.662   2.745   1.925  0.00  0.00    -0.310 N 
BRANCH  21  22
ATOM     22  C   LIG    1        3.307   1.601   2.573  0.00  0.00    +0.350 C 
BRANCH  22  23
ATOM     23  C   LIG    1        3.393   1.850   4.080  0.00  0.00    -0.040 C 
ATOM     24  C   LIG    1        3.957   0.607   4.803  0.00  0.00    +0.030 C 
ATOM     25  C   LIG    1        5.259   1.114   5.462  0.00  0.00    +0.200 C 
ATOM     26  O   LIG    1        5.068   2.538   5.607  0.00  0.00    -0.370 OA
ATOM     27  C   LIG    1        4.418   2.964   4.387  0.00  0.00    +0.210 C 
ENDBRANCH  22  23
ENDBRANCH  21  22
ENDBRANCH   1  17
BRANCH   1  28
ATOM     28  C   LIG    1       -0.697   2.779   3.185  0.00  0.00    +0.050 C 
BRANCH  28  29
ATOM     29  C   LIG    1       -1.740   1.816   3.754  0.00  0.00    +0.030 C 
ATOM     30  C   LIG    1       -2.647   1.317   2.626  0.00  0.00    +0.040 C 
ATOM     31  C   LIG    1       -3.744   0.426   3.211  0.00  0.00    +0.000 C 
ATOM     32  C   LIG    1       -4.625   1.242   4.159  0.00  0.00    +0.000 C 
ATOM     33  C   LIG    1       -3.781   1.739   5.337  0.00  0.00    +0.040 C 
ATOM     34  C   LIG    1       -2.597   2.545   4.793  0.00  0.00    -0.110 C 
ATOM     35  C   LIG    1       -2.781   4.054   4.630  0.00  0.00    +0.010 C 
ATOM     36  C   LIG    1       -1.892   3.506   5.749  0.00  0.00    +0.000 C 
ENDBRANCH  28  29
ENDBRANCH   1  28
TORSDOF 9
