REMARK  Name = ZINCvU00000008Rz.0
REMARK                            x       y       z     vdW  Elec       q    Type
REMARK                         _______ _______ _______ _____ _____    ______ ____
ROOT
ATOM      1  C   LIG    1        1.522  -7.263  -0.052  0.00  0.00    +0.000 A 
ATOM      2  C   LIG    1        1.991  -8.538  -0.070  0.00  0.00    -0.040 A 
ATOM      3  C   LIG    1        0.813  -9.404  -0.058  0.00  0.00    -0.140 A 
ATOM      4  C   LIG    1        0.622 -10.787  -0.064  0.00  0.00    +0.080 A 
ATOM      5  C   LIG    1       -0.646 -11.296  -0.054  0.00  0.00    +0.010 A 
ATOM      6  C   LIG    1       -1.744 -10.447  -0.039  0.00  0.00    +0.070 A 
ATOM      7  C   LIG    1       -1.577  -9.079  -0.033  0.00  0.00    +0.030 A 
ATOM      8  C   LIG    1       -0.297  -8.538  -0.043  0.00  0.00    +0.080 A 
ATOM      9  O   LIG    1        0.172  -7.275  -0.040  0.00  0.00    -0.160 OA
ENDROOT
BRANCH   1  10
ATOM     10  C   LIG    1        2.356  -6.055  -0.054  0.00  0.00    +0.550 C 
ATOM     11  O   LIG    1        3.567  -6.153  -0.067  0.00  0.00    -0.470 OA
BRANCH  10  12
ATOM     12  O   LIG    1        1.778  -4.836  -0.042  0.00  0.00    -0.320 OA
BRANCH  12  13
ATOM     13  C   LIG    1        2.664  -3.686  -0.044  0.00  0.00    +0.300 C 
BRANCH  13  16
ATOM     14  N   LIG    1        2.460  -1.221  -0.028  0.00  0.00    -0.630 N 
ATOM     15  H   LIG    1        3.428  -1.172  -0.038  0.00  0.00    +0.420 HD
ATOM     16  C   LIG    1        1.846  -2.421  -0.029  0.00  0.00    +0.510 C 
ATOM     17  O   LIG    1        0.634  -2.482  -0.017  0.00  0.00    -0.470 OA
BRANCH  14  19
ATOM     18  C   LIG    1        2.229   1.210  -0.013  0.00  0.00    -0.110 A 
ATOM     19  C   LIG    1        1.706  -0.056  -0.015  0.00  0.00    +0.050 A 
ATOM     20  S   LIG    1        0.002  -0.004   0.002  0.00  0.00    +0.320 S 
ATOM     21  C   LIG    1       -0.022   1.750   0.012  0.00  0.00    -0.100 A 
ATOM     22  C   LIG    1        1.212   2.238   0.003  0.00  0.00    +0.080 A 
BRANCH  18  24
ATOM     23  N   LIG    1        4.748   1.706  -0.034  0.00  0.00    -0.420 NA
ATOM     24  C   LIG    1        3.634   1.487  -0.025  0.00  0.00    +0.270 C 
ENDBRANCH  18  24
ENDBRANCH  14  19
ENDBRANCH  13  16
ENDBRANCH  12  13
ENDBRANCH  10  12
ENDBRANCH   1  10
BRANCH   2  25
ATOM     25  C   LIG    1        3.434  -8.971  -0.092  0.00  0.00    +0.180 C 
BRANCH  25  26
ATOM     26  S   LIG    1        4.036  -9.161   1.609  0.00  0.00    -0.240 S 
BRANCH  26  27
ATOM     27  C   LIG    1        5.759  -9.677   1.377  0.00  0.00    +0.040 C 
ATOM     28  C   LIG    1        5.794 -11.049   0.701  0.00  0.00    +0.030 C 
ATOM     29  C   LIG    1        7.247 -11.485   0.505  0.00  0.00    +0.010 C 
ATOM     30  C   LIG    1        7.942 -11.569   1.866  0.00  0.00    +0.000 C 
ATOM     31  C   LIG    1        7.908 -10.197   2.542  0.00  0.00    +0.020 C 
ATOM     32  C   LIG    1        6.454  -9.761   2.737  0.00  0.00    +0.040 C 
ENDBRANCH  26  27
ENDBRANCH  25  26
ENDBRANCH   2  25
TORSDOF 9
