REMARK  Name = ZINCvU00000005fK.0
REMARK                            x       y       z     vdW  Elec       q    Type
REMARK                         _______ _______ _______ _____ _____    ______ ____
ROOT
ATOM      1  N   LIG    1        2.101   4.392  -1.096  0.00  0.00    -0.450 N 
ATOM      2  C   LIG    1        1.984   3.586   0.002  0.00  0.00    +0.180 A 
ATOM      3  N   LIG    1        2.111   4.343   1.055  0.00  0.00    -0.250 NA
ATOM      4  N   LIG    1        2.295   5.565   0.700  0.00  0.00    -0.290 NA
ATOM      5  C   LIG    1        2.295   5.653  -0.610  0.00  0.00    +0.160 A 
ENDROOT
BRANCH   1   7
ATOM      6  C   LIG    1        0.581   4.065  -2.984  0.00  0.00    +0.050 C 
ATOM      7  C   LIG    1        2.031   3.987  -2.502  0.00  0.00    +0.300 C 
ENDBRANCH   1   7
BRANCH   2   8
ATOM      8  C   LIG    1        1.756   2.096  -0.004  0.00  0.00    +0.230 C 
BRANCH   8   9
ATOM      9  S   LIG    1       -0.022   1.758   0.012  0.00  0.00    +0.040 S 
BRANCH   9  10
ATOM     10  C   LIG    1        0.002  -0.004   0.002  0.00  0.00    +0.080 A 
ATOM     11  N   LIG    1        1.071  -0.726  -0.018  0.00  0.00    -0.470 NA
ATOM     12  C   LIG    1        0.926  -2.066  -0.018  0.00  0.00    +0.090 A 
ATOM     13  C   LIG    1        1.925  -3.062  -0.034  0.00  0.00    +0.080 A 
ATOM     14  C   LIG    1        1.582  -4.391  -0.038  0.00  0.00    +0.040 A 
ATOM     15  C   LIG    1        0.250  -4.776  -0.027  0.00  0.00    +0.040 A 
ATOM     16  C   LIG    1       -0.743  -3.821  -0.012  0.00  0.00    +0.060 A 
ATOM     17  C   LIG    1       -0.413  -2.468  -0.007  0.00  0.00    -0.170 A 
ATOM     18  S   LIG    1       -1.427  -1.027   0.010  0.00  0.00    +0.120 S 
ENDBRANCH   9  10
ENDBRANCH   8   9
ENDBRANCH   2   8
BRANCH   5  19
ATOM     19  S   LIG    1        2.510   7.121  -1.561  0.00  0.00    +0.050 S 
BRANCH  19  20
ATOM     20  C   LIG    1        2.709   8.332  -0.230  0.00  0.00    +0.070 C 
BRANCH  20  21
ATOM     21  C   LIG    1        2.916   9.723  -0.833  0.00  0.00    +0.250 C 
BRANCH  21  22
ATOM     22  O   LIG    1        1.734  10.120  -1.532  0.00  0.00    -0.540 OA
ATOM     23  H   LIG    1        0.944  10.164  -0.976  0.00  0.00    +0.380 HD
ENDBRANCH  21  22
BRANCH  21  24
ATOM     24  C   LIG    1        3.208  10.725   0.286  0.00  0.00    +0.180 C 
BRANCH  24  25
ATOM     25  O   LIG    1        3.515  11.998  -0.284  0.00  0.00    -0.300 OA
BRANCH  25  26
ATOM     26  C   LIG    1        3.801  13.008   0.579  0.00  0.00    +0.120 A 
ATOM     27  C   LIG    1        3.780  12.779   1.948  0.00  0.00    -0.080 A 
ATOM     28  C   LIG    1        4.077  13.805   2.823  0.00  0.00    +0.040 A 
ATOM     29  C   LIG    1        4.383  15.063   2.337  0.00  0.00    -0.120 A 
ATOM     30  C   LIG    1        4.399  15.296   0.975  0.00  0.00    +0.050 A 
ATOM     31  C   LIG    1        4.700  16.183   3.295  0.00  0.00    +0.100 C 
ATOM     32  C   LIG    1        4.109  14.271   0.095  0.00  0.00    -0.020 A 
ENDBRANCH  25  26
ENDBRANCH  24  25
ENDBRANCH  21  24
ENDBRANCH  20  21
ENDBRANCH  19  20
ENDBRANCH   5  19
TORSDOF 11
