REMARK  Name = ZINCpe000000T1uW.0
REMARK                            x       y       z     vdW  Elec       q    Type
REMARK                         _______ _______ _______ _____ _____    ______ ____
ROOT
ATOM      1  C   LIG    1        0.157  -0.050   0.107  0.00  0.00    +0.520 C 
ATOM      2  N   LIG    1        0.684  -0.692  -0.954  0.00  0.00    -0.610 N 
ATOM      3  C   LIG    1        1.210   0.062  -2.100  0.00  0.00    +0.270 C 
ATOM      4  C   LIG    1        2.652  -0.397  -2.367  0.00  0.00    +0.000 C 
ATOM      5  C   LIG    1        2.671  -1.916  -2.552  0.00  0.00    +0.160 C 
ATOM      6  C   LIG    1        2.179  -2.594  -1.272  0.00  0.00    +0.030 C 
ATOM      7  C   LIG    1        0.737  -2.160  -0.990  0.00  0.00    +0.280 C 
ATOM      8  O   LIG    1       -0.188  -0.678   1.086  0.00  0.00    -0.530 OA
ENDROOT
BRANCH   1   9
ATOM      9  C   LIG    1       -0.002   1.448   0.078  0.00  0.00    +0.290 C 
BRANCH   9  10
ATOM     10  N   LIG    1       -1.258   1.819   0.736  0.00  0.00    -0.970 NA
ATOM     11  C   LIG    1       -1.619   1.535   2.127  0.00  0.00    +0.250 C 
ATOM     12  C   LIG    1       -2.988   2.090   2.532  0.00  0.00    +0.090 C 
ATOM     13  C   LIG    1       -3.838   2.147   1.230  0.00  0.00    -0.310 C 
ATOM     14  S   LIG    1       -2.530   2.647   0.035  0.00  0.00    +2.560 S 
ATOM     15  O   LIG    1       -2.725   2.036  -1.234  0.00  0.00    -0.960 OA
ATOM     16  O   LIG    1       -2.203   4.024   0.165  0.00  0.00    -0.940 OA
ENDBRANCH   9  10
BRANCH   9  18
ATOM     17  C   LIG    1        2.477   1.756   0.096  0.00  0.00    +0.030 C 
ATOM     18  C   LIG    1        1.171   2.100   0.813  0.00  0.00    -0.010 C 
ATOM     19  C   LIG    1        0.982   3.619   0.829  0.00  0.00    +0.040 C 
ENDBRANCH   9  18
ENDBRANCH   1   9
BRANCH   5  20
ATOM     20  O   LIG    1        4.005  -2.344  -2.836  0.00  0.00    -0.370 OA
BRANCH  20  21
ATOM     21  C   LIG    1        4.325  -2.364  -4.228  0.00  0.00    +0.140 C 
ATOM     22  C   LIG    1        5.831  -2.090  -4.441  0.00  0.00    +0.010 C 
ATOM     23  C   LIG    1        6.352  -3.371  -5.128  0.00  0.00    +0.200 C 
ATOM     24  O   LIG    1        5.190  -3.949  -5.761  0.00  0.00    -0.370 OA
ATOM     25  C   LIG    1        4.115  -3.779  -4.812  0.00  0.00    +0.180 C 
ENDBRANCH  20  21
ENDBRANCH   5  20
TORSDOF 5
