REMARK  Name = ZINCnE000001Twq9.0
REMARK                            x       y       z     vdW  Elec       q    Type
REMARK                         _______ _______ _______ _____ _____    ______ ____
ROOT
ATOM      1  O   LIG    1       -4.010  -0.418   0.037  0.00  0.00    -0.600 OA
ATOM      2  C   LIG    1       -2.845  -0.071   0.028  0.00  0.00    +0.670 C 
ATOM      3  N   LIG    1       -2.533   1.240   0.032  0.00  0.00    -0.550 N 
ATOM      4  C   LIG    1       -3.506   2.335   0.047  0.00  0.00    +0.280 C 
ATOM      5  C   LIG    1       -2.665   3.622   0.046  0.00  0.00    +0.040 C 
ATOM      6  C   LIG    1       -1.232   3.140   0.030  0.00  0.00    -0.160 A 
ATOM      7  C   LIG    1       -0.041   3.840   0.023  0.00  0.00    +0.060 A 
ATOM      8  C   LIG    1        1.164   3.161   0.008  0.00  0.00    -0.060 A 
ATOM      9  C   LIG    1        1.174   1.778   0.000  0.00  0.00    +0.030 A 
ATOM     10  C   LIG    1       -0.013   1.076   0.008  0.00  0.00    +0.020 A 
ATOM     11  C   LIG    1       -1.232   1.754   0.017  0.00  0.00    +0.190 A 
ATOM     12  N   LIG    1       -1.866  -0.997   0.014  0.00  0.00    -0.680 NA
ENDROOT
BRANCH  12  13
ATOM     13  C   LIG    1       -2.187  -2.344   0.009  0.00  0.00    +0.410 A 
ATOM     14  N   LIG    1       -3.386  -2.815   0.024  0.00  0.00    -0.560 NA
ATOM     15  C   LIG    1       -3.539  -4.154   0.013  0.00  0.00    +0.150 A 
ATOM     16  C   LIG    1       -4.732  -4.906   0.019  0.00  0.00    +0.000 A 
ATOM     17  C   LIG    1       -4.688  -6.278   0.012  0.00  0.00    +0.020 A 
ATOM     18  C   LIG    1       -3.473  -6.946  -0.004  0.00  0.00    -0.050 A 
ATOM     19  C   LIG    1       -2.295  -6.232  -0.011  0.00  0.00    +0.060 A 
ATOM     20  C   LIG    1       -2.320  -4.839  -0.003  0.00  0.00    -0.220 A 
ATOM     21  S   LIG    1       -1.016  -3.655  -0.009  0.00  0.00    -0.030 S 
ENDBRANCH  12  13
BRANCH   5  22
ATOM     22  C   LIG    1       -2.962   4.453  -1.204  0.00  0.00    +0.190 C 
BRANCH  22  23
ATOM     23  O   LIG    1       -2.199   5.661  -1.166  0.00  0.00    -0.570 OA
ATOM     24  H   LIG    1       -2.338   6.238  -1.929  0.00  0.00    +0.380 HD
ENDBRANCH  22  23
ENDBRANCH   5  22
TORSDOF 3
