REMARK  Name = ZINCvU0000000IGs.1
REMARK                            x       y       z     vdW  Elec       q    Type
REMARK                         _______ _______ _______ _____ _____    ______ ____
ROOT
ATOM      1  N   LIG    1       -0.020   1.652   0.011  0.00  0.00    -1.040 N 
ATOM      2  H   LIG    1        0.810   2.146  -0.068  0.00  0.00    +0.440 HD
ENDROOT
BRANCH   1   3
ATOM      3  C   LIG    1       -1.240   2.334   0.037  0.00  0.00    +0.170 A 
ATOM      4  C   LIG    1       -2.282   1.866   0.825  0.00  0.00    +0.070 A 
ATOM      5  C   LIG    1       -3.485   2.546   0.853  0.00  0.00    -0.150 A 
ATOM      6  C   LIG    1       -3.659   3.685   0.089  0.00  0.00    +0.100 A 
ATOM      7  C   LIG    1       -2.628   4.155  -0.703  0.00  0.00    +0.040 A 
ATOM      8  C   LIG    1       -1.415   3.483  -0.733  0.00  0.00    +0.160 A 
BRANCH   8   9
ATOM      9  N   LIG    1       -0.367   3.959  -1.536  0.00  0.00    -0.330 N 
ATOM     10  C   LIG    1       -0.389   5.045  -2.332  0.00  0.00    +0.500 A 
ATOM     11  N   LIG    1        0.782   5.149  -2.908  0.00  0.00    -0.530 NA
ATOM     12  C   LIG    1        1.570   4.150  -2.513  0.00  0.00    +0.450 A 
ATOM     13  N   LIG    1        0.911   3.394  -1.673  0.00  0.00    -0.330 NA
ENDBRANCH   8   9
BRANCH   5  14
ATOM     14  C   LIG    1       -4.614   2.039   1.714  0.00  0.00    +0.510 C 
ATOM     15  F   LIG    1       -4.208   2.023   3.052  0.00  0.00    -0.170 F 
ATOM     16  F   LIG    1       -4.960   0.744   1.315  0.00  0.00    -0.170 F 
ATOM     17  F   LIG    1       -5.722   2.882   1.573  0.00  0.00    -0.170 F 
ENDBRANCH   5  14
ENDBRANCH   1   3
BRANCH   1  19
ATOM     18  O   LIG    1        1.358  -0.393  -0.085  0.00  0.00    -0.940 OA
ATOM     19  S   LIG    1        0.006  -0.001   0.109  0.00  0.00    +2.690 S 
ATOM     20  O   LIG    1       -0.745  -0.347   1.264  0.00  0.00    -0.950 OA
BRANCH  19  21
ATOM     21  C   LIG    1       -0.894  -0.620  -1.274  0.00  0.00    -0.680 A 
ATOM     22  C   LIG    1       -2.254  -0.846  -1.167  0.00  0.00    +0.120 A 
ATOM     23  C   LIG    1       -2.961  -1.327  -2.253  0.00  0.00    +0.000 A 
ATOM     24  C   LIG    1       -2.308  -1.591  -3.442  0.00  0.00    -0.010 A 
ATOM     25  C   LIG    1       -0.947  -1.370  -3.547  0.00  0.00    -0.010 A 
ATOM     26  C   LIG    1       -0.240  -0.885  -2.462  0.00  0.00    +0.130 A 
BRANCH  24  27
ATOM     27  C   LIG    1       -3.078  -2.119  -4.625  0.00  0.00    +0.020 C 
ATOM     28  C   LIG    1       -4.165  -1.115  -5.015  0.00  0.00    +0.020 C 
ATOM     29  C   LIG    1       -4.947  -1.652  -6.216  0.00  0.00    +0.000 C 
ATOM     30  C   LIG    1       -5.595  -2.987  -5.847  0.00  0.00    +0.000 C 
ATOM     31  C   LIG    1       -4.509  -3.991  -5.456  0.00  0.00    +0.010 C 
ATOM     32  C   LIG    1       -3.726  -3.455  -4.256  0.00  0.00    +0.030 C 
ENDBRANCH  24  27
ENDBRANCH  19  21
ENDBRANCH   1  19
TORSDOF 6
