REMARK  Name = ZINCrg00000cfi5B.0
REMARK                            x       y       z     vdW  Elec       q    Type
REMARK                         _______ _______ _______ _____ _____    ______ ____
ROOT
ATOM      1  C   LIG    1       -3.938   6.268   0.080  0.00  0.00    +0.260 C 
ENDROOT
BRANCH   1   7
ATOM      2  C   LIG    1       -5.952   8.470  -0.681  0.00  0.00    +0.520 C 
ATOM      3  N   LIG    1       -5.009   8.469   0.282  0.00  0.00    -0.610 N 
ATOM      4  C   LIG    1       -5.104   9.165   1.578  0.00  0.00    +0.250 C 
ATOM      5  C   LIG    1       -3.635   9.387   2.018  0.00  0.00    +0.040 C 
ATOM      6  C   LIG    1       -2.961   8.080   1.526  0.00  0.00    +0.040 C 
ATOM      7  C   LIG    1       -3.714   7.775   0.213  0.00  0.00    +0.210 C 
ATOM      8  O   LIG    1       -5.804   7.790  -1.674  0.00  0.00    -0.520 OA
BRANCH   2  13
ATOM      9  O   LIG    1       -9.974   9.424  -2.627  0.00  0.00    -0.520 OA
ATOM     10  C   LIG    1       -9.185   9.329  -1.710  0.00  0.00    +0.520 C 
ATOM     11  C   LIG    1       -9.555   9.015  -0.278  0.00  0.00    +0.070 C 
ATOM     12  C   LIG    1       -8.217   8.597   0.376  0.00  0.00    +0.070 C 
ATOM     13  C   LIG    1       -7.188   9.316  -0.524  0.00  0.00    +0.230 C 
ATOM     14  N   LIG    1       -7.854   9.489  -1.821  0.00  0.00    -0.710 N 
ATOM     15  H   LIG    1       -7.392   9.692  -2.650  0.00  0.00    +0.420 HD
ENDBRANCH   2  13
ENDBRANCH   1   7
BRANCH   1  16
ATOM     16  N   LIG    1       -2.646   5.591  -0.053  0.00  0.00    -0.730 N 
ATOM     17  H   LIG    1       -1.830   6.113  -0.119  0.00  0.00    +0.400 HD
ATOM     18  C   LIG    1       -2.589   4.245  -0.082  0.00  0.00    +0.570 C 
ATOM     19  O   LIG    1       -3.611   3.592   0.002  0.00  0.00    -0.540 OA
BRANCH  18  20
ATOM     20  C   LIG    1       -1.287   3.564  -0.216  0.00  0.00    -0.190 A 
ATOM     21  C   LIG    1       -0.111   4.314  -0.312  0.00  0.00    +0.080 A 
ATOM     22  C   LIG    1        1.099   3.673  -0.438  0.00  0.00    -0.070 A 
ATOM     23  C   LIG    1        1.155   2.280  -0.471  0.00  0.00    +0.250 A 
ATOM     24  N   LIG    1        2.395   1.658  -0.605  0.00  0.00    -0.740 N 
ATOM     25  H   LIG    1        3.176   2.170  -0.867  0.00  0.00    +0.400 HD
ATOM     26  C   LIG    1        2.501   0.217  -0.342  0.00  0.00    +0.260 C 
ATOM     27  C   LIG    1        1.317  -0.474  -1.032  0.00  0.00    +0.010 C 
ATOM     28  C   LIG    1        0.018   0.024  -0.399  0.00  0.00    +0.080 C 
ATOM     29  C   LIG    1       -0.011   1.530  -0.372  0.00  0.00    -0.160 A 
ATOM     30  C   LIG    1       -1.226   2.169  -0.241  0.00  0.00    +0.120 A 
ENDBRANCH  18  20
ENDBRANCH   1  16
TORSDOF 4
