REMARK  Name = ZINCAx0000000f8J.0
REMARK                            x       y       z     vdW  Elec       q    Type
REMARK                         _______ _______ _______ _____ _____    ______ ____
ROOT
ATOM      1  C   LIG    1        3.524  -2.948  -5.978  0.00  0.00    +0.040 A 
ATOM      2  C   LIG    1        3.587  -2.783  -7.365  0.00  0.00    +0.080 A 
ATOM      3  C   LIG    1        3.615  -1.514  -7.909  0.00  0.00    +0.020 A 
ATOM      4  C   LIG    1        3.580  -0.401  -7.093  0.00  0.00    +0.110 A 
ATOM      5  C   LIG    1        3.518  -0.550  -5.705  0.00  0.00    -0.150 A 
ATOM      6  C   LIG    1        3.470   0.429  -4.602  0.00  0.00    +0.570 C 
ATOM      7  O   LIG    1        3.479   1.636  -4.744  0.00  0.00    -0.500 OA
ATOM      8  N   LIG    1        3.416  -0.204  -3.418  0.00  0.00    -0.610 N 
ATOM      9  C   LIG    1        3.429  -1.652  -3.658  0.00  0.00    +0.330 C 
ATOM     10  C   LIG    1        3.490  -1.831  -5.154  0.00  0.00    -0.060 A 
ENDROOT
BRANCH   8  11
ATOM     11  C   LIG    1        3.360   0.443  -2.105  0.00  0.00    +0.300 C 
ATOM     12  C   LIG    1        1.921   0.407  -1.577  0.00  0.00    +0.070 C 
ATOM     13  C   LIG    1        1.520  -1.055  -1.355  0.00  0.00    +0.090 C 
ATOM     14  C   LIG    1        2.518  -1.707  -0.434  0.00  0.00    +0.520 C 
ATOM     15  N   LIG    1        3.794  -1.298  -0.389  0.00  0.00    -0.670 N 
ATOM     16  H   LIG    1        4.408  -1.752   0.209  0.00  0.00    +0.420 HD
ATOM     17  O   LIG    1        2.160  -2.618   0.282  0.00  0.00    -0.490 OA
ATOM     18  C   LIG    1        4.257  -0.290  -1.143  0.00  0.00    +0.520 C 
ATOM     19  O   LIG    1        5.420   0.037  -1.049  0.00  0.00    -0.470 OA
ENDBRANCH   8  11
BRANCH   1  21
ATOM     20  C   LIG    1        3.474  -5.340  -4.946  0.00  0.00    -0.130 C 
ATOM     21  C   LIG    1        3.496  -4.262  -5.411  0.00  0.00    -0.160 C 
BRANCH  20  32
ATOM     22  C   LIG    1        6.929 -13.264   0.350  0.00  0.00    +0.030 C 
ATOM     23  C   LIG    1        6.999 -12.092  -0.631  0.00  0.00    -0.070 C 
ATOM     24  C   LIG    1        7.221 -12.627  -2.048  0.00  0.00    +0.030 C 
ATOM     25  C   LIG    1        7.325 -11.450  -3.023  0.00  0.00    +0.290 C 
ATOM     26  N   LIG    1        6.130 -10.607  -2.877  0.00  0.00    -0.630 N 
ATOM     27  C   LIG    1        5.777 -10.109  -1.541  0.00  0.00    +0.260 C 
ATOM     28  C   LIG    1        5.376 -10.293  -3.949  0.00  0.00    +0.710 C 
ATOM     29  N   LIG    1        4.501  -9.270  -3.880  0.00  0.00    -0.630 N 
ATOM     30  C   LIG    1        3.428  -9.136  -4.874  0.00  0.00    +0.300 C 
ATOM     31  C   LIG    1        3.492  -7.732  -5.483  0.00  0.00    +0.020 C 
ATOM     32  C   LIG    1        3.445  -6.691  -4.362  0.00  0.00    +0.120 C 
ATOM     33  C   LIG    1        4.654  -6.875  -3.442  0.00  0.00    +0.020 C 
ATOM     34  C   LIG    1        4.602  -8.269  -2.809  0.00  0.00    +0.270 C 
ATOM     35  O   LIG    1        5.486 -10.931  -4.978  0.00  0.00    -0.580 OA
ATOM     36  C   LIG    1        8.159 -11.173  -0.246  0.00  0.00    +0.030 C 
ATOM     37  C   LIG    1        5.687 -11.306  -0.581  0.00  0.00    +0.030 C 
ENDBRANCH  20  32
ENDBRANCH   1  21
TORSDOF 3
