REMARK  Name = ZINCrH000004rKtj.0
REMARK                            x       y       z     vdW  Elec       q    Type
REMARK                         _______ _______ _______ _____ _____    ______ ____
ROOT
ATOM      1  C   LIG    1       -6.102   3.544   0.049  0.00  0.00    +0.030 C 
ATOM      2  C   LIG    1       -6.518   3.224   1.486  0.00  0.00    +0.090 C 
ENDROOT
BRANCH   1   3
ATOM      3  C   LIG    1       -4.710   4.121   0.046  0.00  0.00    +0.530 C 
ATOM      4  N   LIG    1       -3.640   3.301   0.037  0.00  0.00    -0.610 N 
ATOM      5  H   LIG    1       -3.766   2.340   0.032  0.00  0.00    +0.440 HD
ATOM      6  O   LIG    1       -4.552   5.324   0.053  0.00  0.00    -0.490 OA
BRANCH   4   7
ATOM      7  C   LIG    1       -2.359   3.833   0.034  0.00  0.00    +0.080 A 
ATOM      8  C   LIG    1       -1.207   3.090   0.025  0.00  0.00    -0.240 A 
ATOM      9  C   LIG    1       -0.013   3.906   0.029  0.00  0.00    +0.060 A 
ATOM     10  C   LIG    1       -0.271   5.207   0.032  0.00  0.00    -0.110 A 
ATOM     11  S   LIG    1       -2.001   5.499   0.041  0.00  0.00    +0.300 S 
BRANCH   8  12
ATOM     12  C   LIG    1       -1.187   1.624   0.017  0.00  0.00    +0.590 C 
ATOM     13  O   LIG    1       -2.233   1.001   0.018  0.00  0.00    -0.560 OA
ATOM     14  N   LIG    1       -0.011   0.966   0.007  0.00  0.00    -0.850 N 
ATOM     15  H   LIG    1        0.822   1.462   0.002  0.00  0.00    +0.400 HD
ATOM     16  H   LIG    1        0.002  -0.004   0.002  0.00  0.00    +0.410 HD
ENDBRANCH   8  12
ENDBRANCH   4   7
ENDBRANCH   1   3
BRANCH   1  17
ATOM     17  S   LIG    1       -7.255   4.745  -0.660  0.00  0.00    +0.070 S 
BRANCH  17  22
ATOM     18  N   LIG    1       -9.950   4.198  -1.119  0.00  0.00    -0.390 N 
ATOM     19  C   LIG    1      -10.820   3.141  -0.952  0.00  0.00    +0.150 A 
ATOM     20  C   LIG    1      -10.111   2.131  -0.420  0.00  0.00    +0.170 A 
ATOM     21  N   LIG    1       -8.841   2.540  -0.264  0.00  0.00    -0.480 NA
ATOM     22  C   LIG    1       -8.730   3.782  -0.674  0.00  0.00    +0.180 A 
BRANCH  18  28
ATOM     23  C   LIG    1       -9.380   7.571  -4.652  0.00  0.00    +0.100 C 
ATOM     24  C   LIG    1       -9.999   7.119  -3.355  0.00  0.00    -0.070 A 
ATOM     25  C   LIG    1      -10.875   7.950  -2.682  0.00  0.00    +0.030 A 
ATOM     26  C   LIG    1      -11.446   7.539  -1.490  0.00  0.00    +0.020 A 
ATOM     27  C   LIG    1      -11.141   6.296  -0.970  0.00  0.00    +0.030 A 
ATOM     28  C   LIG    1      -10.262   5.460  -1.645  0.00  0.00    +0.100 A 
ATOM     29  C   LIG    1       -9.687   5.877  -2.837  0.00  0.00    -0.060 A 
ATOM     30  C   LIG    1       -8.727   4.975  -3.568  0.00  0.00    +0.100 C 
ENDBRANCH  18  28
ENDBRANCH  17  22
ENDBRANCH   1  17
TORSDOF 6
