REMARK  Name = ZINCah0000002tmd.0
REMARK                            x       y       z     vdW  Elec       q    Type
REMARK                         _______ _______ _______ _____ _____    ______ ____
ROOT
ATOM      1  C   LIG    1       -1.349   2.730   0.028  0.00  0.00    +0.150 C 
ATOM      2  C   LIG    1       -0.959   1.695  -1.040  0.00  0.00    -0.030 C 
ATOM      3  C   LIG    1       -0.013   1.086   0.008  0.00  0.00    +0.150 C 
ATOM      4  C   LIG    1       -0.939   1.683   1.080  0.00  0.00    -0.080 C 
ATOM      5  C   LIG    1       -0.190   2.275   2.276  0.00  0.00    +0.060 C 
ATOM      6  C   LIG    1       -2.079   0.751   1.494  0.00  0.00    +0.070 C 
ENDROOT
BRANCH   3   7
ATOM      7  O   LIG    1        1.296   1.659  -0.001  0.00  0.00    -0.540 OA
ATOM      8  H   LIG    1        1.876   1.303  -0.689  0.00  0.00    +0.380 HD
ENDBRANCH   3   7
BRANCH   1   9
ATOM      9  O   LIG    1       -0.519   3.893   0.028  0.00  0.00    -0.350 OA
BRANCH   9  11
ATOM     10  C   LIG    1       -0.195   6.250  -0.402  0.00  0.00    +0.040 C 
ATOM     11  C   LIG    1       -1.173   5.073  -0.444  0.00  0.00    +0.150 C 
ENDBRANCH   9  11
ENDBRANCH   1   9
TORSDOF 3
