REMARK  Name = ZINCvU00000007qU.0
REMARK                            x       y       z     vdW  Elec       q    Type
REMARK                         _______ _______ _______ _____ _____    ______ ____
ROOT
ATOM      1  C   LIG    1       -8.421   3.257   0.827  0.00  0.00    -0.030 C 
ATOM      2  C   LIG    1       -8.286   1.746   1.034  0.00  0.00    +0.040 C 
ATOM      3  C   LIG    1       -7.388   1.163  -0.062  0.00  0.00    +0.270 C 
ATOM      4  N   LIG    1       -6.110   1.889  -0.062  0.00  0.00    -0.610 N 
ATOM      5  C   LIG    1       -6.131   3.355  -0.158  0.00  0.00    +0.280 C 
ATOM      6  C   LIG    1       -4.942   1.223   0.031  0.00  0.00    +0.550 C 
ATOM      7  O   LIG    1       -3.897   1.839   0.126  0.00  0.00    -0.540 OA
ATOM      8  C   LIG    1       -7.043   3.913   0.933  0.00  0.00    +0.040 C 
ENDROOT
BRANCH   1   9
ATOM      9  C   LIG    1       -9.332   3.828   1.883  0.00  0.00    +0.410 C 
ATOM     10  O   LIG    1       -9.394   3.308   2.977  0.00  0.00    -0.450 OA
BRANCH   9  14
ATOM     11  C   LIG    1      -11.675   7.252   1.031  0.00  0.00    +0.160 A 
ATOM     12  C   LIG    1      -11.748   6.657   2.286  0.00  0.00    -0.030 A 
ATOM     13  C   LIG    1      -10.992   5.549   2.567  0.00  0.00    +0.120 A 
ATOM     14  C   LIG    1      -10.145   5.015   1.588  0.00  0.00    -0.210 A 
ATOM     15  C   LIG    1      -10.071   5.621   0.327  0.00  0.00    +0.110 A 
ATOM     16  C   LIG    1      -10.836   6.726   0.055  0.00  0.00    -0.080 A 
BRANCH  11  18
ATOM     17  C   LIG    1      -12.303   8.910  -0.550  0.00  0.00    +0.240 C 
ATOM     18  O   LIG    1      -12.425   8.349   0.758  0.00  0.00    -0.310 OA
ENDBRANCH  11  18
ENDBRANCH   9  14
ENDBRANCH   1   9
BRANCH   6  19
ATOM     19  C   LIG    1       -4.931  -0.239   0.017  0.00  0.00    -0.090 C 
ATOM     20  C   LIG    1       -3.757  -0.905   0.008  0.00  0.00    +0.130 C 
BRANCH  20  21
ATOM     21  C   LIG    1       -3.746  -2.374  -0.006  0.00  0.00    -0.080 A 
ATOM     22  C   LIG    1       -4.949  -3.087  -0.015  0.00  0.00    +0.110 A 
ATOM     23  C   LIG    1       -4.931  -4.466  -0.021  0.00  0.00    -0.120 A 
ATOM     24  C   LIG    1       -3.724  -5.149  -0.025  0.00  0.00    +0.100 A 
ATOM     25  C   LIG    1       -2.529  -4.457  -0.022  0.00  0.00    -0.040 A 
ATOM     26 BR   LIG    1       -6.558  -5.429  -0.025  0.00  0.00    -0.040 Br
ATOM     27  C   LIG    1       -2.527  -3.071  -0.015  0.00  0.00    +0.150 A 
BRANCH  27  28
ATOM     28  O   LIG    1       -1.353  -2.391  -0.011  0.00  0.00    -0.310 OA
BRANCH  28  29
ATOM     29  C   LIG    1       -0.153  -3.168  -0.015  0.00  0.00    +0.600 C 
ATOM     30  F   LIG    1       -0.120  -3.969  -1.161  0.00  0.00    -0.190 F 
ATOM     31  F   LIG    1       -0.120  -3.981   1.123  0.00  0.00    -0.190 F 
ENDBRANCH  28  29
ENDBRANCH  27  28
ENDBRANCH  20  21
ENDBRANCH   6  19
TORSDOF 7
