REMARK  Name = ZINCpk00000FeICZ.1
REMARK                            x       y       z     vdW  Elec       q    Type
REMARK                         _______ _______ _______ _____ _____    ______ ____
ROOT
ATOM      1  C   LIG    1        2.108  -0.001   1.144  0.00  0.00    +0.290 C 
ATOM      2  C   LIG    1        2.108   1.530   1.164  0.00  0.00    +0.170 C 
ATOM      3  N   LIG    1        1.362   2.030   0.000  0.00  0.00    -0.530 NA
ATOM      4  C   LIG    1       -0.019   1.527   0.010  0.00  0.00    +0.150 C 
ATOM      5  C   LIG    1        0.002  -0.004   0.002  0.00  0.00    +0.250 C 
ATOM      6  O   LIG    1        0.757  -0.472   1.123  0.00  0.00    -0.370 OA
ENDROOT
BRANCH   1  10
ATOM      7  C   LIG    1        5.615  -2.030   4.086  0.00  0.00    +0.200 C 
ATOM      8  C   LIG    1        4.324  -1.398   3.636  0.00  0.00    +0.290 A 
ATOM      9  N   LIG    1        4.024  -1.053   2.410  0.00  0.00    -0.530 NA
ATOM     10  C   LIG    1        2.803  -0.520   2.376  0.00  0.00    +0.230 A 
ATOM     11  N   LIG    1        2.303  -0.527   3.584  0.00  0.00    -0.290 NA
ATOM     12  N   LIG    1        3.277  -1.094   4.422  0.00  0.00    -0.480 N 
ATOM     13  H   LIG    1        3.207  -1.239   5.379  0.00  0.00    +0.440 HD
ENDBRANCH   1  10
BRANCH   3  14
ATOM     14  C   LIG    1        1.387   3.498  -0.050  0.00  0.00    +0.240 C 
BRANCH  14  15
ATOM     15  C   LIG    1        0.804   4.062   1.248  0.00  0.00    -0.030 C 
BRANCH  15  16
ATOM     16  C   LIG    1        0.829   5.591   1.196  0.00  0.00    +0.340 C 
BRANCH  16  17
ATOM     17  N   LIG    1        0.271   6.131   2.438  0.00  0.00    -0.550 N 
ATOM     18  C   LIG    1       -1.023   6.432   2.665  0.00  0.00    +0.630 A 
ATOM     19  O   LIG    1       -1.160   6.900   3.916  0.00  0.00    -0.240 OA
ATOM     20  C   LIG    1        0.053   6.919   4.520  0.00  0.00    +0.030 A 
ATOM     21  C   LIG    1        0.475   7.305   5.782  0.00  0.00    +0.060 A 
ATOM     22  C   LIG    1        1.810   7.209   6.122  0.00  0.00    +0.030 A 
ATOM     23  C   LIG    1        2.731   6.727   5.208  0.00  0.00    +0.040 A 
ATOM     24  C   LIG    1        2.320   6.340   3.947  0.00  0.00    +0.030 A 
ATOM     25  O   LIG    1       -1.927   6.298   1.863  0.00  0.00    -0.480 OA
ATOM     26  C   LIG    1        0.982   6.434   3.599  0.00  0.00    +0.070 A 
ENDBRANCH  16  17
ENDBRANCH  15  16
ENDBRANCH  14  15
ENDBRANCH   3  14
TORSDOF 5
