REMARK  Name = ZINCpk00000FeICZ.0
REMARK                            x       y       z     vdW  Elec       q    Type
REMARK                         _______ _______ _______ _____ _____    ______ ____
ROOT
ATOM      1  C   LIG    1       -3.965   2.780   5.023  0.00  0.00    +0.290 C 
ATOM      2  C   LIG    1       -3.503   2.445   3.602  0.00  0.00    +0.180 C 
ATOM      3  N   LIG    1       -3.256   3.693   2.866  0.00  0.00    -0.530 NA
ATOM      4  C   LIG    1       -2.240   4.508   3.548  0.00  0.00    +0.150 C 
ATOM      5  C   LIG    1       -2.715   4.822   4.969  0.00  0.00    +0.250 C 
ATOM      6  O   LIG    1       -2.980   3.598   5.659  0.00  0.00    -0.390 OA
ENDROOT
BRANCH   1  11
ATOM      7  C   LIG    1       -3.634  -0.814   8.558  0.00  0.00    +0.200 C 
ATOM      8  C   LIG    1       -4.002  -0.034   7.322  0.00  0.00    +0.180 A 
ATOM      9  N   LIG    1       -4.807  -0.425   6.372  0.00  0.00    -0.290 NA
ATOM     10  N   LIG    1       -4.892   0.490   5.472  0.00  0.00    -0.280 NA
ATOM     11  C   LIG    1       -4.144   1.506   5.807  0.00  0.00    +0.180 A 
ATOM     12  N   LIG    1       -3.554   1.200   6.988  0.00  0.00    -0.560 N 
ATOM     13  H   LIG    1       -2.938   1.754   7.493  0.00  0.00    +0.430 HD
ENDBRANCH   1  11
BRANCH   3  14
ATOM     14  C   LIG    1       -2.864   3.417   1.477  0.00  0.00    +0.240 C 
BRANCH  14  15
ATOM     15  C   LIG    1       -1.618   2.529   1.466  0.00  0.00    -0.040 C 
BRANCH  15  16
ATOM     16  C   LIG    1       -1.210   2.241   0.020  0.00  0.00    +0.340 C 
BRANCH  16  17
ATOM     17  N   LIG    1       -0.017   1.390   0.010  0.00  0.00    -0.550 N 
ATOM     18  C   LIG    1        1.263   1.813  -0.000  0.00  0.00    +0.630 A 
ATOM     19  O   LIG    1        2.084   0.751  -0.014  0.00  0.00    -0.240 OA
ATOM     20  C   LIG    1        1.344  -0.384  -0.013  0.00  0.00    +0.030 A 
ATOM     21  C   LIG    1        1.677  -1.729  -0.023  0.00  0.00    +0.060 A 
ATOM     22  C   LIG    1        0.680  -2.686  -0.018  0.00  0.00    +0.030 A 
ATOM     23  C   LIG    1       -0.650  -2.308  -0.003  0.00  0.00    +0.040 A 
ATOM     24  C   LIG    1       -0.992  -0.969   0.007  0.00  0.00    +0.040 A 
ATOM     25  O   LIG    1        1.618   2.976   0.002  0.00  0.00    -0.480 OA
ATOM     26  C   LIG    1        0.002  -0.004   0.002  0.00  0.00    +0.070 A 
ENDBRANCH  16  17
ENDBRANCH  15  16
ENDBRANCH  14  15
ENDBRANCH   3  14
TORSDOF 5
