REMARK  Name = ZINCvU00000008NT.0
REMARK                            x       y       z     vdW  Elec       q    Type
REMARK                         _______ _______ _______ _____ _____    ______ ____
ROOT
ATOM      1  C   LIG    1       -2.059  -0.772  -0.986  0.00  0.00    +0.110 C 
ATOM      2  C   LIG    1       -2.434  -0.112   0.127  0.00  0.00    -0.060 C 
ENDROOT
BRANCH   2   3
ATOM      3  C   LIG    1       -2.464   1.353   0.136  0.00  0.00    +0.170 A 
ATOM      4  N   LIG    1       -3.524   2.071   0.329  0.00  0.00    -0.470 NA
ATOM      5  C   LIG    1       -3.392   3.402   0.311  0.00  0.00    +0.080 A 
ATOM      6  C   LIG    1       -4.385   4.391   0.497  0.00  0.00    +0.060 A 
ATOM      7  C   LIG    1       -4.064   5.712   0.439  0.00  0.00    +0.020 A 
ATOM      8  C   LIG    1       -2.759   6.117   0.197  0.00  0.00    +0.030 A 
ATOM      9  C   LIG    1       -1.769   5.176   0.012  0.00  0.00    +0.060 A 
ATOM     10  C   LIG    1       -2.078   3.819   0.067  0.00  0.00    -0.180 A 
ATOM     11  S   LIG    1       -1.067   2.389  -0.123  0.00  0.00    +0.100 S 
ENDBRANCH   2   3
BRANCH   1  17
ATOM     12  C   LIG    1       -0.836  -0.450  -3.133  0.00  0.00    +0.150 A 
ATOM     13  C   LIG    1       -0.631   0.254  -4.308  0.00  0.00    -0.080 A 
ATOM     14  C   LIG    1       -1.406   1.361  -4.597  0.00  0.00    +0.060 A 
ATOM     15  C   LIG    1       -2.391   1.776  -3.717  0.00  0.00    -0.040 A 
ATOM     16  C   LIG    1       -2.609   1.089  -2.543  0.00  0.00    +0.060 A 
ATOM     17  C   LIG    1       -1.833  -0.033  -2.238  0.00  0.00    -0.110 A 
BRANCH  12  19
ATOM     18  C   LIG    1        0.920  -1.902  -3.807  0.00  0.00    +0.250 C 
ATOM     19  O   LIG    1       -0.075  -1.538  -2.848  0.00  0.00    -0.310 OA
ENDBRANCH  12  19
ENDBRANCH   1  17
BRANCH   2  20
ATOM     20  C   LIG    1       -2.822  -0.881   1.364  0.00  0.00    +0.130 C 
BRANCH  20  21
ATOM     21  C   LIG    1       -1.627  -1.006   2.274  0.00  0.00    +0.510 C 
ATOM     22  N   LIG    1       -1.739  -1.659   3.447  0.00  0.00    -0.730 N 
ATOM     23  H   LIG    1       -2.589  -2.048   3.707  0.00  0.00    +0.400 HD
ATOM     24  O   LIG    1       -0.565  -0.518   1.950  0.00  0.00    -0.520 OA
BRANCH  22  25
ATOM     25  C   LIG    1       -0.577  -1.780   4.332  0.00  0.00    +0.320 C 
BRANCH  25  26
ATOM     26  C   LIG    1       -0.966  -2.549   5.568  0.00  0.00    -0.120 A 
ATOM     27  C   LIG    1       -1.443  -1.876   6.678  0.00  0.00    +0.070 A 
ATOM     28  C   LIG    1       -1.805  -2.581   7.811  0.00  0.00    -0.020 A 
ATOM     29  C   LIG    1       -1.678  -3.959   7.838  0.00  0.00    +0.110 A 
ATOM     30  C   LIG    1       -1.194  -4.631   6.728  0.00  0.00    -0.020 A 
ATOM     31  F   LIG    1       -2.025  -4.648   8.947  0.00  0.00    -0.140 F 
ATOM     32  C   LIG    1       -0.839  -3.925   5.594  0.00  0.00    +0.070 A 
ENDBRANCH  25  26
ENDBRANCH  22  25
ENDBRANCH  20  21
ENDBRANCH   2  20
TORSDOF 7
