REMARK  Name = ZINCvU0000000GmV.0
REMARK                            x       y       z     vdW  Elec       q    Type
REMARK                         _______ _______ _______ _____ _____    ______ ____
ROOT
ATOM      1  C   LIG    1       -1.437  -1.007   0.531  0.00  0.00    +0.070 C 
ENDROOT
BRANCH   1   2
ATOM      2  C   LIG    1       -2.142  -0.724  -0.771  0.00  0.00    -0.100 A 
ATOM      3  C   LIG    1       -1.550  -1.078  -1.969  0.00  0.00    +0.040 A 
ATOM      4  C   LIG    1       -2.199  -0.821  -3.162  0.00  0.00    +0.000 A 
ATOM      5  C   LIG    1       -3.436  -0.204  -3.158  0.00  0.00    +0.010 A 
ATOM      6  C   LIG    1       -4.026   0.153  -1.960  0.00  0.00    +0.010 A 
ATOM      7  C   LIG    1       -3.379  -0.106  -0.767  0.00  0.00    +0.060 A 
ENDBRANCH   1   2
BRANCH   1   8
ATOM      8  C   LIG    1       -0.111  -0.292   0.550  0.00  0.00    +0.550 C 
ATOM      9  N   LIG    1       -0.045   0.995   0.943  0.00  0.00    -0.660 N 
ATOM     10  H   LIG    1       -0.859   1.484   1.140  0.00  0.00    +0.420 HD
ATOM     11  O   LIG    1        0.897  -0.875   0.211  0.00  0.00    -0.500 OA
BRANCH   9  12
ATOM     12  C   LIG    1        1.198   1.628   1.062  0.00  0.00    +0.130 A 
ATOM     13  C   LIG    1        2.312   0.902   1.463  0.00  0.00    +0.050 A 
ATOM     14  C   LIG    1        3.539   1.527   1.575  0.00  0.00    +0.010 A 
ATOM     15  C   LIG    1        3.656   2.879   1.298  0.00  0.00    +0.090 A 
ATOM     16  C   LIG    1        2.545   3.606   0.904  0.00  0.00    +0.010 A 
ATOM     17  F   LIG    1        4.855   3.490   1.414  0.00  0.00    -0.140 F 
ATOM     18  C   LIG    1        1.318   2.984   0.786  0.00  0.00    +0.030 A 
ENDBRANCH   9  12
ENDBRANCH   1   8
BRANCH   1  19
ATOM     19  S   LIG    1       -1.164  -2.789   0.694  0.00  0.00    +0.080 S 
BRANCH  19  21
ATOM     20  N   LIG    1       -3.248  -4.641   0.929  0.00  0.00    -0.450 N 
ATOM     21  C   LIG    1       -2.833  -3.347   0.794  0.00  0.00    +0.150 A 
ATOM     22  N   LIG    1       -3.910  -2.594   0.758  0.00  0.00    -0.280 NA
ATOM     23  N   LIG    1       -4.962  -3.325   0.852  0.00  0.00    -0.270 NA
ATOM     24  C   LIG    1       -4.622  -4.588   0.964  0.00  0.00    +0.230 A 
BRANCH  24  25
ATOM     25  C   LIG    1       -5.542  -5.737   1.100  0.00  0.00    -0.020 A 
ATOM     26  C   LIG    1       -5.066  -6.966   1.558  0.00  0.00    +0.010 A 
ATOM     27  C   LIG    1       -5.931  -8.033   1.688  0.00  0.00    +0.010 A 
ATOM     28  C   LIG    1       -7.266  -7.889   1.356  0.00  0.00    +0.030 A 
ATOM     29  C   LIG    1       -7.744  -6.675   0.895  0.00  0.00    +0.010 A 
ATOM     30  C   LIG    1       -6.890  -5.599   0.766  0.00  0.00    +0.070 A 
ENDBRANCH  24  25
BRANCH  20  32
ATOM     31  C   LIG    1       -2.011  -6.073   2.479  0.00  0.00    +0.050 C 
ATOM     32  C   LIG    1       -2.405  -5.836   1.020  0.00  0.00    +0.300 C 
ENDBRANCH  20  32
ENDBRANCH  19  21
ENDBRANCH   1  19
TORSDOF 7
