REMARK  Name = ZINCnE00000rhnQe.0
REMARK                            x       y       z     vdW  Elec       q    Type
REMARK                         _______ _______ _______ _____ _____    ______ ____
ROOT
ATOM      1  C   LIG    1       -4.819   1.934   0.957  0.00  0.00    +0.190 A 
ATOM      2  N   LIG    1       -5.151   1.033   0.052  0.00  0.00    -0.490 NA
ATOM      3  C   LIG    1       -6.382   0.526  -0.032  0.00  0.00    +0.130 A 
ATOM      4  C   LIG    1       -6.705  -0.438  -1.005  0.00  0.00    +0.030 A 
ATOM      5  C   LIG    1       -7.971  -0.933  -1.070  0.00  0.00    +0.010 A 
ATOM      6  C   LIG    1       -8.958  -0.501  -0.187  0.00  0.00    -0.020 A 
ATOM      7  C   LIG    1       -8.682   0.433   0.768  0.00  0.00    +0.060 A 
ATOM      8  C   LIG    1       -7.392   0.962   0.864  0.00  0.00    -0.090 A 
ATOM      9  C   LIG    1       -7.050   1.967   1.874  0.00  0.00    -0.040 A 
ATOM     10  C   LIG    1       -5.745   2.434   1.892  0.00  0.00    -0.140 A 
ATOM     11  C   LIG    1       -5.321   3.468   2.904  0.00  0.00    +0.100 C 
ENDROOT
BRANCH   9  12
ATOM     12  C   LIG    1       -8.056   2.462   2.835  0.00  0.00    +0.530 C 
ATOM     13  O   LIG    1       -8.147   1.951   3.942  0.00  0.00    -0.670 OA
ATOM     14  O   LIG    1       -8.799   3.381   2.523  0.00  0.00    -0.670 OA
ENDBRANCH   9  12
BRANCH   1  16
ATOM     15  C   LIG    1       -2.534   1.974   0.099  0.00  0.00    +0.090 C 
ATOM     16  C   LIG    1       -3.438   2.438   0.985  0.00  0.00    +0.040 C 
BRANCH  15  19
ATOM     17  C   LIG    1        0.068   0.208   0.119  0.00  0.00    +0.110 C 
ATOM     18  C   LIG    1       -0.003   1.714   0.136  0.00  0.00    -0.220 A 
ATOM     19  C   LIG    1       -1.156   2.476   0.127  0.00  0.00    +0.110 A 
ATOM     20  N   LIG    1       -0.769   3.787   0.152  0.00  0.00    -0.370 N 
ATOM     21  N   LIG    1        0.631   3.817   0.168  0.00  0.00    -0.300 NA
ATOM     22  C   LIG    1       -1.658   4.951   0.155  0.00  0.00    +0.350 C 
ATOM     23  C   LIG    1        1.081   2.588   0.158  0.00  0.00    +0.230 A 
ENDBRANCH  15  19
ENDBRANCH   1  16
TORSDOF 3
