REMARK  Name = ZINCkj00000xm7D7.2
REMARK                            x       y       z     vdW  Elec       q    Type
REMARK                         _______ _______ _______ _____ _____    ______ ____
ROOT
ATOM      1  C   LIG    1        1.694   2.830   1.339  0.00  0.00    +0.170 C 
ATOM      2  C   LIG    1        3.015   3.609   1.200  0.00  0.00    +0.090 C 
ATOM      3  C   LIG    1        2.609   5.101   1.228  0.00  0.00    +0.080 C 
ATOM      4  C   LIG    1        1.230   5.071   1.934  0.00  0.00    +0.270 C 
ATOM      5  N   LIG    1        0.606   3.830   1.410  0.00  0.00    -0.390 N 
ATOM      6  H   LIG    1        0.224   3.994   0.490  0.00  0.00    +0.410 HD
ENDROOT
BRANCH   1  13
ATOM      7  C   LIG    1        4.138  -0.867   0.558  0.00  0.00    +0.120 C 
ATOM      8  C   LIG    1        3.016   0.085   0.883  0.00  0.00    +0.530 C 
ATOM      9  N   LIG    1        2.636   1.013  -0.018  0.00  0.00    -0.610 N 
ATOM     10  C   LIG    1        3.296   1.276  -1.310  0.00  0.00    +0.260 C 
ATOM     11  C   LIG    1        2.194   1.912  -2.195  0.00  0.00    +0.060 C 
ATOM     12  C   LIG    1        1.427   2.779  -1.162  0.00  0.00    +0.020 C 
ATOM     13  C   LIG    1        1.492   1.925   0.122  0.00  0.00    +0.230 C 
ATOM     14  O   LIG    1        2.454   0.016   1.956  0.00  0.00    -0.540 OA
ENDBRANCH   1  13
BRANCH   5  15
ATOM     15  C   LIG    1       -0.448   3.368   2.322  0.00  0.00    +0.400 C 
BRANCH  15  16
ATOM     16  C   LIG    1       -1.607   4.330   2.279  0.00  0.00    +0.120 A 
ATOM     17  N   LIG    1       -1.805   5.320   3.107  0.00  0.00    -0.440 NA
ATOM     18  C   LIG    1       -2.932   5.963   2.766  0.00  0.00    +0.170 A 
ATOM     19  C   LIG    1       -3.456   5.344   1.690  0.00  0.00    +0.180 A 
ATOM     20  N   LIG    1       -2.616   4.308   1.382  0.00  0.00    -0.450 N 
ATOM     21  C   LIG    1       -2.780   3.354   0.282  0.00  0.00    +0.340 C 
ENDBRANCH  15  16
ENDBRANCH   5  15
TORSDOF 3
