REMARK  Name = ZINCkj00000xm7D7.1
REMARK                            x       y       z     vdW  Elec       q    Type
REMARK                         _______ _______ _______ _____ _____    ______ ____
ROOT
ATOM      1  C   LIG    1       -2.620   6.076  -1.333  0.00  0.00    +0.160 C 
ATOM      2  C   LIG    1       -1.674   7.140  -1.928  0.00  0.00    +0.080 C 
ATOM      3  C   LIG    1       -0.685   6.295  -2.773  0.00  0.00    +0.080 C 
ATOM      4  C   LIG    1       -0.547   5.021  -1.907  0.00  0.00    +0.270 C 
ATOM      5  N   LIG    1       -1.899   4.790  -1.352  0.00  0.00    -0.380 N 
ATOM      6  H   LIG    1       -2.395   4.131  -1.932  0.00  0.00    +0.420 HD
ENDROOT
BRANCH   1  13
ATOM      7  C   LIG    1       -5.790   9.085  -0.276  0.00  0.00    +0.120 C 
ATOM      8  C   LIG    1       -5.010   7.810  -0.461  0.00  0.00    +0.540 C 
ATOM      9  N   LIG    1       -3.800   7.670   0.116  0.00  0.00    -0.610 N 
ATOM     10  C   LIG    1       -3.072   8.716   0.863  0.00  0.00    +0.260 C 
ATOM     11  C   LIG    1       -2.119   7.940   1.806  0.00  0.00    +0.060 C 
ATOM     12  C   LIG    1       -1.699   6.745   0.910  0.00  0.00    +0.030 C 
ATOM     13  C   LIG    1       -2.982   6.448   0.106  0.00  0.00    +0.220 C 
ATOM     14  O   LIG    1       -5.471   6.909  -1.130  0.00  0.00    -0.540 OA
ENDBRANCH   1  13
BRANCH   5  15
ATOM     15  C   LIG    1       -1.789   4.264   0.015  0.00  0.00    +0.370 C 
BRANCH  15  16
ATOM     16  C   LIG    1       -1.281   2.846  -0.032  0.00  0.00    +0.110 A 
ATOM     17  N   LIG    1       -0.027   2.489  -0.086  0.00  0.00    -0.450 NA
ATOM     18  C   LIG    1        0.050   1.150  -0.116  0.00  0.00    +0.170 A 
ATOM     19  C   LIG    1       -1.203   0.659  -0.079  0.00  0.00    +0.180 A 
ATOM     20  N   LIG    1       -2.048   1.735  -0.031  0.00  0.00    -0.450 N 
ATOM     21  C   LIG    1       -3.512   1.689   0.016  0.00  0.00    +0.340 C 
ENDBRANCH  15  16
ENDBRANCH   5  15
TORSDOF 3
