REMARK  Name = ZINCpk00000Kfrpw.1
REMARK                            x       y       z     vdW  Elec       q    Type
REMARK                         _______ _______ _______ _____ _____    ______ ____
ROOT
ATOM      1  C   LIG    1       -2.072   1.141  -1.214  0.00  0.00    +0.290 C 
ATOM      2  C   LIG    1       -2.812   1.636   0.031  0.00  0.00    +0.170 C 
ATOM      3  N   LIG    1       -2.131   1.131   1.232  0.00  0.00    -0.520 NA
ATOM      4  C   LIG    1       -0.731   1.580   1.266  0.00  0.00    +0.160 C 
ATOM      5  C   LIG    1       -0.013   1.086   0.008  0.00  0.00    +0.230 C 
ATOM      6  O   LIG    1       -0.706   1.560  -1.149  0.00  0.00    -0.370 OA
ENDROOT
BRANCH   1   9
ATOM      7  C   LIG    1       -3.893   1.853  -4.256  0.00  0.00    +0.290 A 
ATOM      8  N   LIG    1       -3.496   1.054  -3.299  0.00  0.00    -0.530 NA
ATOM      9  C   LIG    1       -2.718   1.720  -2.447  0.00  0.00    +0.230 A 
ATOM     10  N   LIG    1       -2.600   2.955  -2.857  0.00  0.00    -0.280 NA
ATOM     11  N   LIG    1       -3.357   3.066  -4.035  0.00  0.00    -0.480 N 
ATOM     12  H   LIG    1       -3.471   3.860  -4.580  0.00  0.00    +0.440 HD
BRANCH   7  14
ATOM     13  C   LIG    1       -3.929   1.100  -6.618  0.00  0.00    +0.050 C 
ATOM     14  C   LIG    1       -4.787   1.477  -5.409  0.00  0.00    +0.150 C 
ENDBRANCH   7  14
ENDBRANCH   1   9
BRANCH   3  15
ATOM     15  C   LIG    1       -2.844   1.538   2.451  0.00  0.00    +0.300 C 
BRANCH  15  16
ATOM     16  C   LIG    1       -1.998   1.219   3.657  0.00  0.00    +0.380 A 
ATOM     17  N   LIG    1       -1.162   2.131   4.093  0.00  0.00    -0.550 NA
ATOM     18  C   LIG    1       -0.391   1.889   5.164  0.00  0.00    +0.190 A 
ATOM     19  C   LIG    1        0.512   2.840   5.658  0.00  0.00    +0.030 A 
ATOM     20  C   LIG    1        1.272   2.542   6.750  0.00  0.00    +0.060 A 
ATOM     21  C   LIG    1        1.165   1.308   7.384  0.00  0.00    +0.000 A 
ATOM     22  C   LIG    1        0.296   0.360   6.929  0.00  0.00    +0.060 A 
ATOM     23  C   LIG    1       -0.498   0.634   5.811  0.00  0.00    -0.200 A 
ATOM     24  C   LIG    1       -1.420  -0.309   5.292  0.00  0.00    +0.480 A 
ATOM     25  N   LIG    1       -2.137   0.035   4.231  0.00  0.00    -0.580 NA
BRANCH  24  26
ATOM     26  N   LIG    1       -1.569  -1.548   5.877  0.00  0.00    -0.820 N 
ATOM     27  H   LIG    1       -2.204  -2.184   5.511  0.00  0.00    +0.410 HD
ATOM     28  H   LIG    1       -1.040  -1.785   6.655  0.00  0.00    +0.410 HD
ENDBRANCH  24  26
ENDBRANCH  15  16
ENDBRANCH   3  15
TORSDOF 5
