REMARK  Name = ZINCpk00000Kfrpw.0
REMARK                            x       y       z     vdW  Elec       q    Type
REMARK                         _______ _______ _______ _____ _____    ______ ____
ROOT
ATOM      1  C   LIG    1        0.603   9.761  -2.840  0.00  0.00    +0.290 C 
ATOM      2  C   LIG    1        0.682   9.297  -1.383  0.00  0.00    +0.200 C 
ATOM      3  N   LIG    1        0.966   7.855  -1.348  0.00  0.00    -0.530 NA
ATOM      4  C   LIG    1        2.227   7.555  -2.041  0.00  0.00    +0.160 C 
ATOM      5  C   LIG    1        2.133   8.037  -3.491  0.00  0.00    +0.250 C 
ATOM      6  O   LIG    1        1.826   9.434  -3.505  0.00  0.00    -0.390 OA
ENDROOT
BRANCH   1  10
ATOM      7  C   LIG    1        0.601  13.366  -3.300  0.00  0.00    +0.180 A 
ATOM      8  N   LIG    1       -0.443  13.170  -2.542  0.00  0.00    -0.280 NA
ATOM      9  N   LIG    1       -0.571  11.913  -2.298  0.00  0.00    -0.280 NA
ATOM     10  C   LIG    1        0.391  11.252  -2.882  0.00  0.00    +0.180 A 
ATOM     11  N   LIG    1        1.160  12.155  -3.538  0.00  0.00    -0.560 N 
ATOM     12  H   LIG    1        1.950  11.971  -4.069  0.00  0.00    +0.430 HD
BRANCH   7  14
ATOM     13  C   LIG    1       -0.039  15.401  -4.564  0.00  0.00    +0.050 C 
ATOM     14  C   LIG    1        1.093  14.693  -3.816  0.00  0.00    +0.140 C 
ENDBRANCH   7  14
ENDBRANCH   1  10
BRANCH   3  15
ATOM     15  C   LIG    1        0.993   7.357   0.034  0.00  0.00    +0.310 C 
BRANCH  15  16
ATOM     16  C   LIG    1        1.040   5.851   0.024  0.00  0.00    +0.380 A 
ATOM     17  N   LIG    1       -0.092   5.189   0.030  0.00  0.00    -0.530 NA
ATOM     18  C   LIG    1       -0.096   3.847   0.023  0.00  0.00    +0.190 A 
ATOM     19  C   LIG    1       -1.286   3.108   0.030  0.00  0.00    +0.030 A 
ATOM     20  C   LIG    1       -1.232   1.746   0.017  0.00  0.00    +0.060 A 
ATOM     21  C   LIG    1       -0.013   1.076   0.008  0.00  0.00    +0.000 A 
ATOM     22  C   LIG    1        1.165   1.765   0.000  0.00  0.00    +0.060 A 
ATOM     23  C   LIG    1        1.145   3.163   0.008  0.00  0.00    -0.200 A 
ATOM     24  C   LIG    1        2.333   3.934   0.001  0.00  0.00    +0.480 A 
ATOM     25  N   LIG    1        2.223   5.256   0.010  0.00  0.00    -0.600 NA
BRANCH  24  26
ATOM     26  N   LIG    1        3.571   3.327  -0.014  0.00  0.00    -0.820 N 
ATOM     27  H   LIG    1        4.376   3.868  -0.018  0.00  0.00    +0.410 HD
ATOM     28  H   LIG    1        3.636   2.359  -0.020  0.00  0.00    +0.410 HD
ENDBRANCH  24  26
ENDBRANCH  15  16
ENDBRANCH   3  15
TORSDOF 5
