REMARK  Name = ZINCtV00001bB3f1.0
REMARK                            x       y       z     vdW  Elec       q    Type
REMARK                         _______ _______ _______ _____ _____    ______ ____
ROOT
ATOM      1  N   LIG    1        3.364  -5.071  -0.117  0.00  0.00    -0.520 NA
ATOM      2  C   LIG    1        2.364  -4.213  -0.046  0.00  0.00    +0.370 A 
ATOM      3  S   LIG    1        0.640  -4.580   0.144  0.00  0.00    +0.010 S 
ATOM      4  C   LIG    1        0.129  -2.883   0.134  0.00  0.00    -0.020 A 
ATOM      5  C   LIG    1        1.251  -2.166  -0.007  0.00  0.00    +0.180 A 
ATOM      6  N   LIG    1        2.434  -2.849  -0.110  0.00  0.00    -0.360 N 
ENDROOT
BRANCH   1  14
ATOM      7  C   LIG    1        3.396  -6.278   2.456  0.00  0.00    +0.100 C 
ATOM      8  C   LIG    1        3.122  -7.060   1.197  0.00  0.00    -0.080 A 
ATOM      9  C   LIG    1        2.868  -8.414   1.266  0.00  0.00    +0.010 A 
ATOM     10  C   LIG    1        2.621  -9.134   0.110  0.00  0.00    +0.000 A 
ATOM     11  C   LIG    1        2.622  -8.502  -1.121  0.00  0.00    +0.010 A 
ATOM     12  C   LIG    1        2.869  -7.148  -1.205  0.00  0.00    -0.090 A 
ATOM     13  C   LIG    1        2.869  -6.462  -2.546  0.00  0.00    +0.090 C 
ATOM     14  C   LIG    1        3.118  -6.414  -0.042  0.00  0.00    +0.100 A 
ENDBRANCH   1  14
BRANCH   5  15
ATOM     15  C   LIG    1        1.214  -0.689  -0.058  0.00  0.00    -0.030 A 
ATOM     16  C   LIG    1        0.271  -0.039  -0.856  0.00  0.00    +0.050 A 
ATOM     17  C   LIG    1        0.241   1.340  -0.899  0.00  0.00    +0.030 A 
ATOM     18  C   LIG    1        1.142   2.079  -0.153  0.00  0.00    +0.040 A 
ATOM     19  C   LIG    1        2.080   1.440   0.641  0.00  0.00    -0.040 A 
ATOM     20 CL   LIG    1        3.202   2.376   1.579  0.00  0.00    -0.060 Cl
ATOM     21  C   LIG    1        2.120   0.061   0.692  0.00  0.00    +0.080 A 
ENDBRANCH   5  15
BRANCH   6  22
ATOM     22  N   LIG    1        3.656  -2.182  -0.267  0.00  0.00    -0.260 NA
ATOM     23  C   LIG    1        4.728  -2.850  -0.475  0.00  0.00    +0.270 C 
BRANCH  23  24
ATOM     24  C   LIG    1        6.061  -2.148  -0.494  0.00  0.00    +0.050 C 
ATOM     25  C   LIG    1        6.968  -2.736   0.590  0.00  0.00    +0.070 C 
ATOM     26  C   LIG    1        8.373  -2.241   0.413  0.00  0.00    -0.040 C 
ATOM     27  C   LIG    1        8.822  -1.704  -0.676  0.00  0.00    -0.040 C 
ATOM     28  C   LIG    1        7.996  -1.494  -1.912  0.00  0.00    +0.070 C 
ATOM     29  C   LIG    1        6.733  -2.354  -1.858  0.00  0.00    +0.030 C 
ENDBRANCH  23  24
ENDBRANCH   6  22
TORSDOF 4
