REMARK  Name = ZINCbw0000000HnA.0
REMARK                            x       y       z     vdW  Elec       q    Type
REMARK                         _______ _______ _______ _____ _____    ______ ____
ROOT
ATOM      1  C   LIG    1        2.397   0.030  -0.020  0.00  0.00    -0.100 A 
ATOM      2  C   LIG    1        2.379   1.412  -0.013  0.00  0.00    +0.090 A 
ATOM      3  C   LIG    1        1.173   2.088   0.002  0.00  0.00    +0.000 A 
ATOM      4  C   LIG    1       -0.017   1.381   0.010  0.00  0.00    +0.130 A 
ATOM      5  C   LIG    1        0.002  -0.004   0.002  0.00  0.00    -0.130 A 
ATOM      6 BR   LIG    1       -1.622  -0.972   0.012  0.00  0.00    -0.020 Br
ATOM      7  F   LIG    1       -1.195   2.042   0.019  0.00  0.00    -0.120 F 
ATOM      8  C   LIG    1        1.209  -0.678  -0.013  0.00  0.00    +0.100 A 
ENDROOT
BRANCH   1   9
ATOM      9  C   LIG    1        3.712  -0.706  -0.037  0.00  0.00    +0.270 C 
BRANCH   9  11
ATOM     10  N   LIG    1        4.447  -1.116  -2.505  0.00  0.00    -0.420 NA
ATOM     11  C   LIG    1        4.127  -0.937  -1.430  0.00  0.00    +0.200 C 
ENDBRANCH   9  11
ENDBRANCH   1   9
TORSDOF 2
