REMARK  Name = ZINCpe00000VVGML.0
REMARK                            x       y       z     vdW  Elec       q    Type
REMARK                         _______ _______ _______ _____ _____    ______ ____
ROOT
ATOM      1  N   LIG    1        2.876  -0.390   1.263  0.00  0.00    -0.720 N 
ATOM      2  H   LIG    1        3.661   0.080   1.584  0.00  0.00    +0.390 HD
ATOM      3  C   LIG    1        2.477  -1.528   1.867  0.00  0.00    +0.740 C 
ATOM      4  N   LIG    1        3.170  -2.012   2.917  0.00  0.00    -0.630 N 
ATOM      5  C   LIG    1        4.317  -1.353   3.566  0.00  0.00    +0.240 C 
ATOM      6  C   LIG    1        4.345  -1.931   5.003  0.00  0.00    +0.010 C 
ATOM      7  C   LIG    1        3.927  -3.404   4.755  0.00  0.00    +0.060 C 
ATOM      8  C   LIG    1        2.901  -3.281   3.608  0.00  0.00    +0.250 C 
ATOM      9  O   LIG    1        1.493  -2.116   1.464  0.00  0.00    -0.590 OA
ENDROOT
BRANCH   8  10
ATOM     10  C   LIG    1        3.071  -4.449   2.635  0.00  0.00    -0.010 C 
ATOM     11  C   LIG    1        4.515  -4.486   2.126  0.00  0.00    +0.220 C 
ATOM     12  O   LIG    1        4.686  -5.613   1.264  0.00  0.00    -0.380 OA
ATOM     13  C   LIG    1        4.451  -6.873   1.895  0.00  0.00    +0.200 C 
ATOM     14  C   LIG    1        3.005  -6.931   2.393  0.00  0.00    -0.020 C 
ATOM     15  C   LIG    1        2.756  -5.765   3.354  0.00  0.00    +0.140 C 
ATOM     16  C   LIG    1        1.292  -5.768   3.798  0.00  0.00    +0.020 C 
BRANCH  15  17
ATOM     17  O   LIG    1        3.603  -5.899   4.497  0.00  0.00    -0.550 OA
ATOM     18  H   LIG    1        3.457  -6.711   5.001  0.00  0.00    +0.370 HD
ENDBRANCH  15  17
ENDBRANCH   8  10
BRANCH   1  23
ATOM     19  C   LIG    1        3.094   0.619  -0.976  0.00  0.00    -0.010 C 
ATOM     20  C   LIG    1        3.236   2.139  -0.715  0.00  0.00    +0.030 C 
ATOM     21  C   LIG    1        1.802   2.549  -0.297  0.00  0.00    +0.020 C 
ATOM     22  C   LIG    1        1.301   1.363   0.553  0.00  0.00    +0.010 C 
ATOM     23  C   LIG    1        2.123   0.136   0.121  0.00  0.00    +0.290 C 
BRANCH  19  27
ATOM     24  C   LIG    1        6.850  -0.111  -1.116  0.00  0.00    +0.280 C 
ATOM     25  N   LIG    1        5.552   0.555  -1.250  0.00  0.00    -0.740 N 
ATOM     26  H   LIG    1        5.500   1.444  -1.636  0.00  0.00    +0.400 HD
ATOM     27  C   LIG    1        4.429  -0.066  -0.838  0.00  0.00    +0.520 C 
ATOM     28  O   LIG    1        4.494  -1.177  -0.355  0.00  0.00    -0.520 OA
ENDBRANCH  19  27
ENDBRANCH   1  23
TORSDOF 4
