REMARK  Name = ZINCrH00000No54d.0
REMARK                            x       y       z     vdW  Elec       q    Type
REMARK                         _______ _______ _______ _____ _____    ______ ____
ROOT
ATOM      1  N   LIG    1       -4.860   4.207  -1.032  0.00  0.00    -0.680 N 
ATOM      2  H   LIG    1       -5.042   3.256  -1.094  0.00  0.00    +0.410 HD
ATOM      3  C   LIG    1       -3.677   4.636  -0.549  0.00  0.00    +0.710 C 
ATOM      4  N   LIG    1       -2.790   3.750  -0.054  0.00  0.00    -0.660 N 
ATOM      5  H   LIG    1       -3.003   2.804  -0.045  0.00  0.00    +0.410 HD
ATOM      6  O   LIG    1       -3.410   5.822  -0.560  0.00  0.00    -0.530 OA
ENDROOT
BRANCH   1   9
ATOM      7  C   LIG    1       -7.626   5.750  -2.906  0.00  0.00    +0.150 A 
ATOM      8  C   LIG    1       -6.671   4.830  -2.501  0.00  0.00    -0.100 A 
ATOM      9  C   LIG    1       -5.825   5.133  -1.444  0.00  0.00    +0.200 A 
ATOM     10  C   LIG    1       -5.941   6.353  -0.790  0.00  0.00    -0.010 A 
ATOM     11  C   LIG    1       -6.890   7.269  -1.200  0.00  0.00    +0.080 A 
ATOM     12  C   LIG    1       -7.734   6.970  -2.253  0.00  0.00    -0.090 A 
BRANCH  12  13
ATOM     13  C   LIG    1       -8.771   7.970  -2.693  0.00  0.00    +0.010 C 
ATOM     14  C   LIG    1       -8.711   9.369  -2.076  0.00  0.00    +0.020 C 
ATOM     15  C   LIG    1       -9.821   8.398  -1.666  0.00  0.00    +0.020 C 
ENDBRANCH  12  13
BRANCH   7  17
ATOM     16  C   LIG    1       -8.289   4.183  -4.567  0.00  0.00    +0.250 C 
ATOM     17  O   LIG    1       -8.456   5.457  -3.941  0.00  0.00    -0.310 OA
ENDBRANCH   7  17
ENDBRANCH   1   9
BRANCH   4  18
ATOM     18  C   LIG    1       -1.566   4.194   0.446  0.00  0.00    +0.320 A 
ATOM     19  C   LIG    1       -1.138   5.485   0.495  0.00  0.00    -0.080 A 
ATOM     20  C   LIG    1        0.138   5.492   1.066  0.00  0.00    +0.110 A 
ATOM     21  N   LIG    1        0.465   4.259   1.356  0.00  0.00    -0.280 NA
ATOM     22  N   LIG    1       -0.588   3.420   0.970  0.00  0.00    -0.390 N 
BRANCH  20  23
ATOM     23  C   LIG    1        0.988   6.712   1.312  0.00  0.00    +0.010 C 
ATOM     24  C   LIG    1        0.958   7.613   0.076  0.00  0.00    +0.040 C 
ATOM     25  C   LIG    1        2.429   6.281   1.594  0.00  0.00    +0.040 C 
ATOM     26  C   LIG    1        0.440   7.480   2.517  0.00  0.00    +0.040 C 
ENDBRANCH  20  23
BRANCH  22  27
ATOM     27  C   LIG    1       -0.627   1.963   1.114  0.00  0.00    +0.330 C 
BRANCH  27  28
ATOM     28  C   LIG    1       -0.054   1.310  -0.145  0.00  0.00    +0.170 C 
BRANCH  28  29
ATOM     29  O   LIG    1       -0.091  -0.111  -0.005  0.00  0.00    -0.570 OA
ATOM     30  H   LIG    1        0.258  -0.591  -0.768  0.00  0.00    +0.390 HD
ENDBRANCH  28  29
ENDBRANCH  27  28
ENDBRANCH  22  27
ENDBRANCH   4  18
TORSDOF 8
