REMARK  Name = ZINCpk000000mR1T.0
REMARK                            x       y       z     vdW  Elec       q    Type
REMARK                         _______ _______ _______ _____ _____    ______ ____
ROOT
ATOM      1  N   LIG    1       -3.254   3.272   2.926  0.00  0.00    -0.740 N 
ATOM      2  H   LIG    1       -2.697   2.961   3.657  0.00  0.00    +0.400 HD
ATOM      3  C   LIG    1       -2.877   3.053   1.651  0.00  0.00    +0.710 C 
ATOM      4  N   LIG    1       -1.725   2.402   1.391  0.00  0.00    -0.740 N 
ATOM      5  H   LIG    1       -1.168   2.091   2.122  0.00  0.00    +0.400 HD
ATOM      6  O   LIG    1       -3.575   3.443   0.735  0.00  0.00    -0.580 OA
ENDROOT
BRANCH   1  12
ATOM      7  C   LIG    1       -7.189   6.091   6.914  0.00  0.00    +0.090 C 
ATOM      8  C   LIG    1       -6.486   6.595   5.680  0.00  0.00    +0.510 C 
ATOM      9  N   LIG    1       -6.148   5.735   4.699  0.00  0.00    -0.620 N 
ATOM     10  C   LIG    1       -6.345   4.289   4.870  0.00  0.00    +0.290 C 
ATOM     11  C   LIG    1       -5.019   3.574   4.592  0.00  0.00    +0.020 C 
ATOM     12  C   LIG    1       -4.505   3.979   3.209  0.00  0.00    +0.250 C 
ATOM     13  C   LIG    1       -4.256   5.489   3.178  0.00  0.00    +0.010 C 
ATOM     14  C   LIG    1       -5.574   6.225   3.439  0.00  0.00    +0.280 C 
ATOM     15  O   LIG    1       -6.226   7.774   5.569  0.00  0.00    -0.540 OA
ENDBRANCH   1  12
BRANCH   4  16
ATOM     16  C   LIG    1       -1.315   2.165   0.005  0.00  0.00    +0.340 C 
BRANCH  16  17
ATOM     17  C   LIG    1       -0.003   1.424  -0.011  0.00  0.00    -0.050 A 
ATOM     18  C   LIG    1        0.029   0.036  -0.013  0.00  0.00    -0.040 A 
ATOM     19  C   LIG    1        1.248  -0.613  -0.033  0.00  0.00    +0.290 A 
ATOM     20  N   LIG    1        2.377   0.070  -0.049  0.00  0.00    -0.510 NA
ATOM     21  C   LIG    1        2.389   1.394  -0.047  0.00  0.00    +0.300 A 
ATOM     22  C   LIG    1        1.198   2.112  -0.028  0.00  0.00    -0.020 A 
BRANCH  21  23
ATOM     23  N   LIG    1        3.602   2.072  -0.065  0.00  0.00    -0.460 N 
ATOM     24  C   LIG    1        3.774   2.887   1.165  0.00  0.00    +0.180 C 
ATOM     25  C   LIG    1        5.305   3.117   1.227  0.00  0.00    +0.040 C 
ATOM     26  C   LIG    1        5.877   1.771   0.727  0.00  0.00    +0.020 C 
ATOM     27  C   LIG    1        4.738   1.126  -0.084  0.00  0.00    +0.200 C 
ENDBRANCH  21  23
ENDBRANCH  16  17
ENDBRANCH   4  16
TORSDOF 4
