REMARK  Name = ZINCpe00000ygM5N.0
REMARK                            x       y       z     vdW  Elec       q    Type
REMARK                         _______ _______ _______ _____ _____    ______ ____
ROOT
ATOM      1  C   LIG    1       -0.708   3.229  -1.676  0.00  0.00    +0.160 C 
ATOM      2  O   LIG    1       -0.604   1.812  -1.844  0.00  0.00    -0.370 OA
ATOM      3  C   LIG    1        0.008   1.144  -0.738  0.00  0.00    +0.230 C 
ATOM      4  C   LIG    1       -0.799   1.423   0.532  0.00  0.00    +0.160 C 
ATOM      5  N   LIG    1       -0.890   2.876   0.739  0.00  0.00    -0.530 NA
ATOM      6  C   LIG    1       -1.523   3.529  -0.416  0.00  0.00    +0.200 C 
ENDROOT
BRANCH   6   7
ATOM      7  C   LIG    1       -1.570   5.019  -0.190  0.00  0.00    +0.090 A 
ATOM      8  C   LIG    1       -2.686   5.781  -0.122  0.00  0.00    -0.110 A 
ATOM      9  C   LIG    1       -2.291   7.104   0.099  0.00  0.00    +0.230 A 
ATOM     10  N   LIG    1       -0.984   7.135   0.162  0.00  0.00    -0.290 NA
ATOM     11  N   LIG    1       -0.506   5.830  -0.013  0.00  0.00    -0.350 N 
ATOM     12  C   LIG    1        0.900   5.419  -0.007  0.00  0.00    +0.350 C 
ENDBRANCH   6   7
BRANCH   5  13
ATOM     13  C   LIG    1       -1.612   3.187   1.981  0.00  0.00    +0.170 C 
ATOM     14  C   LIG    1       -0.794   2.704   3.180  0.00  0.00    +0.030 C 
ENDBRANCH   5  13
BRANCH   1  15
ATOM     15  C   LIG    1       -1.405   3.839  -2.893  0.00  0.00    +0.320 C 
BRANCH  15  16
ATOM     16  N   LIG    1       -0.626   3.546  -4.099  0.00  0.00    -0.690 N 
ATOM     17  H   LIG    1        0.196   3.035  -4.034  0.00  0.00    +0.420 HD
BRANCH  16  22
ATOM     18  N   LIG    1       -0.757   4.176  -7.733  0.00  0.00    -0.480 N 
ATOM     19  C   LIG    1       -1.919   4.888  -7.756  0.00  0.00    +0.160 A 
ATOM     20  C   LIG    1       -2.604   5.135  -6.619  0.00  0.00    +0.190 A 
ATOM     21  N   LIG    1       -2.178   4.695  -5.435  0.00  0.00    -0.500 NA
ATOM     22  C   LIG    1       -1.065   4.001  -5.336  0.00  0.00    +0.350 A 
ATOM     23  C   LIG    1       -0.289   3.719  -6.550  0.00  0.00    +0.480 A 
ATOM     24  O   LIG    1        0.749   3.083  -6.493  0.00  0.00    -0.530 OA
BRANCH  18  26
ATOM     25  C   LIG    1        0.979   5.044  -9.220  0.00  0.00    +0.030 C 
ATOM     26  C   LIG    1       -0.022   3.914  -8.973  0.00  0.00    +0.290 C 
ENDBRANCH  18  26
ENDBRANCH  16  22
ENDBRANCH  15  16
ENDBRANCH   1  15
TORSDOF 6
