REMARK  Name = ZINCpk00000l5jHv.0
REMARK                            x       y       z     vdW  Elec       q    Type
REMARK                         _______ _______ _______ _____ _____    ______ ____
ROOT
ATOM      1  C   LIG    1       -1.931   8.341  -1.098  0.00  0.00    +0.240 C 
ATOM      2  C   LIG    1       -1.990   7.751   0.336  0.00  0.00    +0.030 C 
ATOM      3  C   LIG    1       -2.235   6.248   0.042  0.00  0.00    +0.260 C 
ATOM      4  N   LIG    1       -1.433   5.966  -1.163  0.00  0.00    -0.620 N 
ATOM      5  C   LIG    1       -0.961   4.758  -1.527  0.00  0.00    +0.540 C 
ATOM      6  O   LIG    1       -1.258   3.772  -0.886  0.00  0.00    -0.530 OA
ATOM      7  C   LIG    1       -1.239   7.221  -1.903  0.00  0.00    +0.260 C 
ENDROOT
BRANCH   5   8
ATOM      8  C   LIG    1       -0.064   4.631  -2.731  0.00  0.00    -0.020 C 
ATOM      9  C   LIG    1       -0.873   4.163  -3.967  0.00  0.00    +0.040 C 
ATOM     10  C   LIG    1        0.213   3.517  -4.864  0.00  0.00    +0.050 C 
ATOM     11  C   LIG    1        1.151   2.812  -3.868  0.00  0.00    -0.130 C 
ATOM     12  C   LIG    1        1.389   1.307  -3.951  0.00  0.00    +0.030 C 
ATOM     13  C   LIG    1        2.510   2.283  -4.314  0.00  0.00    +0.020 C 
ATOM     14  C   LIG    1        0.978   3.512  -2.514  0.00  0.00    +0.080 C 
ENDBRANCH   5   8
BRANCH   1  17
ATOM     15  O   LIG    1       -2.927  10.824  -0.763  0.00  0.00    -0.520 OA
ATOM     16  C   LIG    1       -1.727  10.764  -0.946  0.00  0.00    +0.560 C 
ATOM     17  N   LIG    1       -1.132   9.569  -1.125  0.00  0.00    -0.720 N 
ATOM     18  H   LIG    1       -0.174   9.521  -1.271  0.00  0.00    +0.400 HD
BRANCH  16  19
ATOM     19  C   LIG    1       -0.919  12.006  -0.974  0.00  0.00    -0.090 A 
ATOM     20  C   LIG    1        0.462  11.959  -1.183  0.00  0.00    +0.000 A 
ATOM     21  C   LIG    1        1.177  13.142  -1.201  0.00  0.00    +0.270 A 
ATOM     22  N   LIG    1        0.574  14.300  -1.025  0.00  0.00    -0.460 NA
ATOM     23  CA  LIG    1       -0.727  14.388  -0.825  0.00  0.00    +0.120 A 
ATOM     24  C   LIG    1       -1.518  13.257  -0.796  0.00  0.00    +0.070 A 
BRANCH  23  25
ATOM     25  C   LIG    1       -1.358  15.743  -0.630  0.00  0.00    +0.270 C 
BRANCH  25  26
ATOM     26  O   LIG    1       -2.765  15.588  -0.432  0.00  0.00    -0.570 OA
ATOM     27  H   LIG    1       -3.237  16.421  -0.300  0.00  0.00    +0.390 HD
ENDBRANCH  25  26
ENDBRANCH  23  25
ENDBRANCH  16  19
ENDBRANCH   1  17
TORSDOF 5
