REMARK  Name = ZINCqH00000515PY.0
REMARK                            x       y       z     vdW  Elec       q    Type
REMARK                         _______ _______ _______ _____ _____    ______ ____
ROOT
ATOM      1  C   LIG    1       -3.691   2.014  -0.034  0.00  0.00    +0.180 C 
ENDROOT
BRANCH   1   2
ATOM      2  C   LIG    1       -4.989   1.250  -0.028  0.00  0.00    -0.100 A 
ATOM      3  C   LIG    1       -5.492   0.731  -1.207  0.00  0.00    +0.080 A 
ATOM      4  C   LIG    1       -6.679   0.025  -1.202  0.00  0.00    -0.010 A 
ATOM      5  C   LIG    1       -7.372  -0.154  -0.016  0.00  0.00    +0.100 A 
ATOM      6  C   LIG    1       -6.872   0.371   1.163  0.00  0.00    -0.010 A 
ATOM      7  F   LIG    1       -8.537  -0.839  -0.011  0.00  0.00    -0.140 F 
ATOM      8  C   LIG    1       -5.680   1.071   1.156  0.00  0.00    +0.040 A 
ENDBRANCH   1   2
BRANCH   1   9
ATOM      9  N   LIG    1       -3.630   2.866  -1.229  0.00  0.00    -0.520 NA
ATOM     10  C   LIG    1       -2.342   3.570  -1.310  0.00  0.00    +0.150 C 
ATOM     11  C   LIG    1       -2.298   4.398  -2.597  0.00  0.00    +0.220 C 
ATOM     12  O   LIG    1       -3.409   5.298  -2.617  0.00  0.00    -0.380 OA
ATOM     13  C   LIG    1       -4.680   4.646  -2.540  0.00  0.00    +0.220 C 
ATOM     14  C   LIG    1       -4.748   3.821  -1.252  0.00  0.00    +0.160 C 
ENDBRANCH   1   9
BRANCH   1  15
ATOM     15  C   LIG    1       -2.519   1.030  -0.049  0.00  0.00    +0.290 C 
BRANCH  15  18
ATOM     16  O   LIG    1       -0.858  -1.034   0.457  0.00  0.00    -0.540 OA
ATOM     17  C   LIG    1       -1.661  -0.780   1.338  0.00  0.00    +0.560 C 
ATOM     18  N   LIG    1       -2.535   0.234   1.180  0.00  0.00    -0.730 N 
ATOM     19  H   LIG    1       -3.174   0.436   1.881  0.00  0.00    +0.400 HD
BRANCH  17  20
ATOM     20  C   LIG    1       -1.671  -1.544   2.527  0.00  0.00    -0.110 C 
ATOM     21  C   LIG    1       -0.787  -2.562   2.687  0.00  0.00    +0.180 C 
BRANCH  21  22
ATOM     22  C   LIG    1       -0.798  -3.327   3.877  0.00  0.00    -0.200 A 
ATOM     23  C   LIG    1        0.037  -4.378   4.154  0.00  0.00    +0.080 A 
ATOM     24  C   LIG    1       -0.189  -4.940   5.387  0.00  0.00    +0.020 A 
ATOM     25  C   LIG    1       -1.181  -4.379   6.094  0.00  0.00    -0.180 A 
ATOM     26 CL   LIG    1       -1.677  -4.899   7.674  0.00  0.00    -0.010 Cl
ATOM     27  S   LIG    1       -1.890  -3.087   5.234  0.00  0.00    +0.250 S 
ENDBRANCH  21  22
ENDBRANCH  17  20
ENDBRANCH  15  18
ENDBRANCH   1  15
TORSDOF 6
