REMARK  Name = ZINCrg000000tagr.0
REMARK                            x       y       z     vdW  Elec       q    Type
REMARK                         _______ _______ _______ _____ _____    ______ ____
ROOT
ATOM      1  O   LIG    1       -4.694   5.301  -0.636  0.00  0.00    -0.530 OA
ATOM      2  C   LIG    1       -4.031   4.893  -1.566  0.00  0.00    +0.520 C 
ATOM      3  N   LIG    1       -2.900   4.198  -1.333  0.00  0.00    -0.730 N 
ATOM      4  H   LIG    1       -2.369   3.872  -2.076  0.00  0.00    +0.400 HD
ENDROOT
BRANCH   3   5
ATOM      5  C   LIG    1       -2.471   3.937   0.044  0.00  0.00    +0.340 C 
BRANCH   5   6
ATOM      6  C   LIG    1       -1.187   3.148   0.029  0.00  0.00    -0.170 A 
ATOM      7  C   LIG    1       -1.216   1.761   0.017  0.00  0.00    +0.120 A 
ATOM      8  C   LIG    1       -0.013   1.076   0.008  0.00  0.00    -0.010 A 
ATOM      9  C   LIG    1        1.175   1.796   0.001  0.00  0.00    +0.370 A 
ATOM     10  N   LIG    1        1.161   3.119   0.007  0.00  0.00    -0.500 NA
ATOM     11  C   LIG    1        0.032   3.799   0.021  0.00  0.00    +0.330 A 
BRANCH   9  12
ATOM     12  N   LIG    1        2.397   1.116  -0.015  0.00  0.00    -0.340 N 
ATOM     13  C   LIG    1        3.628   1.666  -0.029  0.00  0.00    +0.520 A 
ATOM     14  N   LIG    1        4.505   0.695  -0.037  0.00  0.00    -0.540 NA
ATOM     15  C   LIG    1        3.877  -0.481  -0.038  0.00  0.00    +0.450 A 
ATOM     16  N   LIG    1        2.587  -0.276  -0.025  0.00  0.00    -0.310 NA
ENDBRANCH   9  12
ENDBRANCH   5   6
ENDBRANCH   3   5
BRANCH   2  17
ATOM     17  C   LIG    1       -4.471   5.162  -2.981  0.00  0.00    +0.050 C 
BRANCH  17  18
ATOM     18  C   LIG    1       -5.775   5.962  -2.966  0.00  0.00    +0.290 C 
BRANCH  18  19
ATOM     19  N   LIG    1       -6.204   6.224  -4.343  0.00  0.00    -0.740 N 
ATOM     20  H   LIG    1       -5.673   5.898  -5.086  0.00  0.00    +0.400 HD
ATOM     21  C   LIG    1       -7.335   6.918  -4.576  0.00  0.00    +0.510 C 
ATOM     22  O   LIG    1       -7.999   7.326  -3.646  0.00  0.00    -0.520 OA
BRANCH  21  23
ATOM     23  C   LIG    1       -7.776   7.188  -5.991  0.00  0.00    +0.100 C 
BRANCH  23  24
ATOM     24  C   LIG    1       -9.060   7.976  -5.976  0.00  0.00    -0.070 A 
ATOM     25  C   LIG    1      -10.275   7.317  -5.975  0.00  0.00    +0.010 A 
ATOM     26  C   LIG    1      -11.453   8.040  -5.956  0.00  0.00    +0.000 A 
ATOM     27  C   LIG    1      -11.416   9.422  -5.950  0.00  0.00    +0.000 A 
ATOM     28  C   LIG    1      -10.201  10.081  -5.957  0.00  0.00    +0.000 A 
ATOM     29  C   LIG    1       -9.023   9.358  -5.970  0.00  0.00    +0.010 A 
ENDBRANCH  23  24
ENDBRANCH  21  23
ENDBRANCH  18  19
ENDBRANCH  17  18
ENDBRANCH   2  17
TORSDOF 8
