REMARK  Name = ZINCpk000000nARL.1
REMARK                            x       y       z     vdW  Elec       q    Type
REMARK                         _______ _______ _______ _____ _____    ______ ____
ROOT
ATOM      1  N   LIG    1       -0.001   4.190   0.023  0.00  0.00    -0.510 N 
ATOM      2  C   LIG    1        1.141   3.474   0.009  0.00  0.00    +0.590 A 
ATOM      3  N   LIG    1        1.134   2.170   0.003  0.00  0.00    -0.530 NA
ATOM      4  C   LIG    1       -0.018   1.477   0.010  0.00  0.00    +0.220 A 
ATOM      5  C   LIG    1       -1.223   2.158   0.019  0.00  0.00    -0.120 A 
ATOM      6  C   LIG    1       -1.197   3.565   0.031  0.00  0.00    +0.530 A 
ATOM      7  O   LIG    1       -2.235   4.206   0.044  0.00  0.00    -0.530 OA
ENDROOT
BRANCH   4   8
ATOM      8  C   LIG    1        0.002  -0.004   0.002  0.00  0.00    -0.070 A 
ATOM      9  C   LIG    1       -1.194  -0.721   0.015  0.00  0.00    +0.040 A 
ATOM     10  C   LIG    1       -1.169  -2.100   0.002  0.00  0.00    +0.000 A 
ATOM     11  C   LIG    1        0.040  -2.773  -0.013  0.00  0.00    +0.030 A 
ATOM     12  C   LIG    1        1.230  -2.067  -0.021  0.00  0.00    +0.000 A 
ATOM     13  C   LIG    1        1.218  -0.688  -0.013  0.00  0.00    +0.070 A 
ENDBRANCH   4   8
BRANCH   1  14
ATOM     14  C   LIG    1        0.056   5.654   0.029  0.00  0.00    +0.330 C 
BRANCH  14  20
ATOM     15  N   LIG    1        1.199  10.008  -2.106  0.00  0.00    -0.530 NA
ATOM     16  C   LIG    1        1.289   8.983  -3.154  0.00  0.00    +0.170 C 
ATOM     17  C   LIG    1        0.119   8.004  -3.007  0.00  0.00    +0.300 C 
ATOM     18  N   LIG    1        0.112   7.487  -1.631  0.00  0.00    -0.610 N 
ATOM     19  C   LIG    1        0.154   8.455  -0.524  0.00  0.00    +0.290 C 
ATOM     20  C   LIG    1        0.062   6.162  -1.390  0.00  0.00    +0.500 C 
ATOM     21  O   LIG    1        0.023   5.379  -2.315  0.00  0.00    -0.520 OA
ATOM     22  C   LIG    1        1.329   9.416  -0.768  0.00  0.00    +0.170 C 
BRANCH  15  24
ATOM     23  C   LIG    1        1.997  12.171  -1.279  0.00  0.00    +0.040 C 
ATOM     24  C   LIG    1        2.201  11.063  -2.313  0.00  0.00    +0.170 C 
ATOM     25  C   LIG    1        3.604  10.471  -2.157  0.00  0.00    -0.010 C 
ENDBRANCH  15  24
ENDBRANCH  14  20
ENDBRANCH   1  14
TORSDOF 4
