REMARK  Name = ZINCvU0000000EmG.0
REMARK                            x       y       z     vdW  Elec       q    Type
REMARK                         _______ _______ _______ _____ _____    ______ ____
ROOT
ATOM      1  C   LIG    1        0.517   1.455  -0.041  0.00  0.00    +0.190 A 
ATOM      2  C   LIG    1       -0.670   1.044  -0.632  0.00  0.00    +0.050 A 
ATOM      3  C   LIG    1       -1.771   1.877  -0.622  0.00  0.00    +0.090 A 
ATOM      4  C   LIG    1       -1.693   3.123  -0.013  0.00  0.00    +0.130 A 
ATOM      5  C   LIG    1       -0.505   3.534   0.579  0.00  0.00    +0.070 A 
ATOM      6  C   LIG    1        0.596   2.702   0.565  0.00  0.00    -0.200 A 
ENDROOT
BRANCH   1   8
ATOM      7  C   LIG    1        1.473  -0.724   0.029  0.00  0.00    +0.520 C 
ATOM      8  N   LIG    1        1.635   0.612  -0.056  0.00  0.00    -0.680 N 
ATOM      9  H   LIG    1        2.526   0.988  -0.127  0.00  0.00    +0.410 HD
ATOM     10  O   LIG    1        0.370  -1.190   0.217  0.00  0.00    -0.510 OA
BRANCH   7  11
ATOM     11  C   LIG    1        2.663  -1.638  -0.111  0.00  0.00    +0.070 C 
BRANCH  11  12
ATOM     12  C   LIG    1        2.208  -3.092   0.023  0.00  0.00    +0.120 C 
BRANCH  12  18
ATOM     13  C   LIG    1        4.192  -4.286   0.987  0.00  0.00    +0.130 A 
ATOM     14  C   LIG    1        5.283  -5.133   0.856  0.00  0.00    -0.080 A 
ATOM     15  C   LIG    1        5.584  -5.685  -0.374  0.00  0.00    +0.040 A 
ATOM     16  C   LIG    1        4.796  -5.399  -1.473  0.00  0.00    -0.040 A 
ATOM     17  C   LIG    1        3.704  -4.561  -1.344  0.00  0.00    +0.050 A 
ATOM     18  C   LIG    1        3.398  -4.006  -0.116  0.00  0.00    -0.120 A 
BRANCH  13  20
ATOM     19  C   LIG    1        4.757  -4.070   3.286  0.00  0.00    +0.250 C 
ATOM     20  O   LIG    1        3.897  -3.737   2.195  0.00  0.00    -0.310 OA
ENDBRANCH  13  20
ENDBRANCH  12  18
ENDBRANCH  11  12
ENDBRANCH   7  11
ENDBRANCH   1   8
BRANCH   4  21
ATOM     21  N   LIG    1       -2.811   3.966   0.001  0.00  0.00    -0.660 N 
ATOM     22  H   LIG    1       -2.694   4.927  -0.065  0.00  0.00    +0.420 HD
ATOM     23  C   LIG    1       -4.048   3.443   0.107  0.00  0.00    +0.610 C 
ATOM     24  O   LIG    1       -4.191   2.249   0.290  0.00  0.00    -0.490 OA
BRANCH  23  25
ATOM     25  C   LIG    1       -5.223   4.314   0.001  0.00  0.00    -0.090 A 
ATOM     26  C   LIG    1       -6.527   3.916   0.083  0.00  0.00    +0.050 A 
ATOM     27  C   LIG    1       -7.312   5.070  -0.070  0.00  0.00    -0.070 A 
ATOM     28  C   LIG    1       -6.463   6.107  -0.244  0.00  0.00    +0.210 A 
ATOM     29  O   LIG    1       -5.206   5.648  -0.202  0.00  0.00    -0.170 OA
ENDBRANCH  23  25
ENDBRANCH   4  21
BRANCH   6  30
ATOM     30  C   LIG    1        1.885   3.148   1.206  0.00  0.00    +0.510 C 
ATOM     31  F   LIG    1        2.900   3.175   0.244  0.00  0.00    -0.180 F 
ATOM     32  F   LIG    1        2.232   2.255   2.225  0.00  0.00    -0.170 F 
ATOM     33  F   LIG    1        1.719   4.429   1.745  0.00  0.00    -0.170 F 
ENDBRANCH   6  30
TORSDOF 8
