REMARK  Name = ZINCpk000000nQtm.0
REMARK                            x       y       z     vdW  Elec       q    Type
REMARK                         _______ _______ _______ _____ _____    ______ ____
ROOT
ATOM      1  N   LIG    1       -0.016   1.344   0.009  0.00  0.00    -0.730 N 
ATOM      2  H   LIG    1       -0.863   1.817   0.016  0.00  0.00    +0.400 HD
ATOM      3  C   LIG    1        0.002  -0.004   0.002  0.00  0.00    +0.730 C 
ATOM      4  N   LIG    1       -1.156  -0.694   0.009  0.00  0.00    -0.630 N 
ATOM      5  C   LIG    1       -2.503  -0.106   0.032  0.00  0.00    +0.260 C 
ATOM      6  C   LIG    1       -3.513  -1.273   0.003  0.00  0.00    +0.100 C 
ATOM      7  C   LIG    1       -2.683  -2.438  -0.597  0.00  0.00    +0.080 C 
ATOM      8  C   LIG    1       -1.281  -2.163   0.003  0.00  0.00    +0.300 C 
ATOM      9  O   LIG    1        1.063  -0.598  -0.011  0.00  0.00    -0.580 OA
ENDROOT
BRANCH   1  14
ATOM     10  C   LIG    1        4.644   4.316   1.997  0.00  0.00    +0.230 A 
ATOM     11  N   LIG    1        3.847   3.372   2.431  0.00  0.00    -0.310 NA
ATOM     12  N   LIG    1        2.878   3.181   1.441  0.00  0.00    -0.370 N 
ATOM     13  C   LIG    1        1.760   2.239   1.437  0.00  0.00    +0.310 C 
ATOM     14  C   LIG    1        1.242   2.093   0.001  0.00  0.00    +0.260 C 
ATOM     15  C   LIG    1        1.006   3.482  -0.600  0.00  0.00    +0.040 C 
ATOM     16  C   LIG    1        2.356   4.176  -0.818  0.00  0.00    +0.180 C 
ATOM     17  C   LIG    1        3.163   4.048   0.451  0.00  0.00    +0.270 A 
ATOM     18  N   LIG    1        4.224   4.722   0.796  0.00  0.00    -0.530 NA
BRANCH  10  20
ATOM     19  C   LIG    1        7.101   4.635   1.894  0.00  0.00    +0.050 C 
ATOM     20  C   LIG    1        5.841   4.859   2.734  0.00  0.00    +0.090 C 
ATOM     21  C   LIG    1        5.652   6.356   2.982  0.00  0.00    +0.050 C 
ENDBRANCH  10  20
ENDBRANCH   1  14
BRANCH   7  22
ATOM     22  C   LIG    1       -3.222  -3.792  -0.131  0.00  0.00    +0.440 C 
ATOM     23  F   LIG    1       -2.368  -4.810  -0.569  0.00  0.00    -0.180 F 
ATOM     24  F   LIG    1       -4.500  -3.994  -0.663  0.00  0.00    -0.170 F 
ATOM     25  F   LIG    1       -3.290  -3.811   1.267  0.00  0.00    -0.170 F 
ENDBRANCH   7  22
BRANCH   7  26
ATOM     26  O   LIG    1       -2.653  -2.365  -2.023  0.00  0.00    -0.510 OA
ATOM     27  H   LIG    1       -2.068  -3.014  -2.439  0.00  0.00    +0.390 HD
ENDBRANCH   7  26
TORSDOF 4
