REMARK  Name = ZINCqH0000007vko.0
REMARK                            x       y       z     vdW  Elec       q    Type
REMARK                         _______ _______ _______ _____ _____    ______ ____
ROOT
ATOM      1  C   LIG    1       -1.489   2.701  -3.588  0.00  0.00    -0.030 C 
ATOM      2  C   LIG    1       -1.257   3.503  -2.570  0.00  0.00    -0.040 C 
ATOM      3  C   LIG    1       -0.640   3.035  -1.283  0.00  0.00    +0.220 C 
ATOM      4  N   LIG    1       -0.723   1.572  -1.182  0.00  0.00    -0.530 NA
ATOM      5  C   LIG    1       -0.195   0.946  -2.405  0.00  0.00    +0.200 C 
ATOM      6  C   LIG    1       -1.162   1.234  -3.556  0.00  0.00    +0.090 C 
ENDROOT
BRANCH   1  14
ATOM      7  C   LIG    1       -5.840   4.079  -4.661  0.00  0.00    +0.100 A 
ATOM      8  C   LIG    1       -5.937   4.554  -5.965  0.00  0.00    -0.050 A 
ATOM      9  C   LIG    1       -4.831   4.584  -6.785  0.00  0.00    +0.030 A 
ATOM     10  C   LIG    1       -3.602   4.135  -6.312  0.00  0.00    +0.060 A 
ATOM     11  N   LIG    1       -2.348   4.043  -6.881  0.00  0.00    -0.590 N 
ATOM     12  H   LIG    1       -2.129   4.308  -7.788  0.00  0.00    +0.420 HD
ATOM     13  C   LIG    1       -1.459   3.532  -5.981  0.00  0.00    +0.250 A 
ATOM     14  C   LIG    1       -2.094   3.265  -4.810  0.00  0.00    -0.150 A 
ATOM     15  C   LIG    1       -3.502   3.655  -4.995  0.00  0.00    -0.050 A 
ATOM     16  C   LIG    1       -4.628   3.629  -4.173  0.00  0.00    +0.020 A 
BRANCH   7  18
ATOM     17  C   LIG    1       -8.162   4.535  -4.431  0.00  0.00    +0.230 C 
ATOM     18  O   LIG    1       -6.941   4.056  -3.864  0.00  0.00    -0.320 OA
ENDBRANCH   7  18
ENDBRANCH   1  14
BRANCH   4  19
ATOM     19  C   LIG    1       -0.013   1.086   0.008  0.00  0.00    +0.350 C 
BRANCH  19  20
ATOM     20  C   LIG    1       -0.718   1.572   1.248  0.00  0.00    +0.190 A 
ATOM     21  N   LIG    1       -1.680   0.955   1.891  0.00  0.00    -0.460 NA
ATOM     22  C   LIG    1       -1.996   1.757   2.924  0.00  0.00    +0.200 A 
ATOM     23  N   LIG    1       -1.224   2.800   2.858  0.00  0.00    -0.380 NA
ATOM     24  O   LIG    1       -0.479   2.711   1.905  0.00  0.00    +0.080 OA
BRANCH  22  25
ATOM     25  C   LIG    1       -3.051   1.493   3.967  0.00  0.00    +0.060 C 
ATOM     26  C   LIG    1       -3.385   2.628   4.937  0.00  0.00    +0.050 C 
ATOM     27  C   LIG    1       -2.598   1.411   5.426  0.00  0.00    +0.050 C 
ENDBRANCH  22  25
ENDBRANCH  19  20
ENDBRANCH   4  19
TORSDOF 5
