REMARK  Name = ZINCrD0000074lN3.0
REMARK                            x       y       z     vdW  Elec       q    Type
REMARK                         _______ _______ _______ _____ _____    ______ ____
ROOT
ATOM      1  C   LIG    1       -4.878   4.042   2.435  0.00  0.00    +0.550 C 
ATOM      2  O   LIG    1       -4.360   3.018   2.833  0.00  0.00    -0.510 OA
ENDROOT
BRANCH   1   5
ATOM      3  C   LIG    1       -6.925   1.874   3.445  0.00  0.00    +0.180 C 
ATOM      4  C   LIG    1       -7.252   3.240   2.900  0.00  0.00    +0.180 A 
ATOM      5  C   LIG    1       -6.344   4.184   2.459  0.00  0.00    -0.280 A 
ATOM      6  C   LIG    1       -7.087   5.308   2.031  0.00  0.00    +0.330 A 
ATOM      7  N   LIG    1       -8.352   5.050   2.211  0.00  0.00    -0.280 NA
ATOM      8  N   LIG    1       -8.481   3.768   2.756  0.00  0.00    -0.320 N 
BRANCH   8   9
ATOM      9  C   LIG    1       -9.685   3.138   3.088  0.00  0.00    +0.190 A 
ATOM     10  C   LIG    1      -10.796   3.231   2.252  0.00  0.00    -0.010 A 
ATOM     11  C   LIG    1      -11.963   2.590   2.613  0.00  0.00    +0.290 A 
ATOM     12  N   LIG    1      -12.039   1.906   3.738  0.00  0.00    -0.480 NA
ATOM     13  C   LIG    1      -11.012   1.799   4.559  0.00  0.00    +0.290 A 
ATOM     14  C   LIG    1       -9.807   2.406   4.268  0.00  0.00    -0.030 A 
ENDBRANCH   8   9
ENDBRANCH   1   5
BRANCH   1  15
ATOM     15  O   LIG    1       -4.112   5.049   1.970  0.00  0.00    -0.330 OA
BRANCH  15  16
ATOM     16  C   LIG    1       -2.675   4.840   1.975  0.00  0.00    +0.180 C 
ATOM     17  C   LIG    1       -1.982   6.164   2.170  0.00  0.00    +0.050 C 
ATOM     18  C   LIG    1       -0.470   6.060   2.309  0.00  0.00    +0.050 C 
ATOM     19  C   LIG    1        0.188   5.696   0.983  0.00  0.00    +0.080 C 
ATOM     20  C   LIG    1        0.216   4.185   0.836  0.00  0.00    -0.050 A 
ATOM     21  C   LIG    1        1.415   3.510   0.875  0.00  0.00    +0.010 A 
ATOM     22  C   LIG    1        1.439   2.137   0.687  0.00  0.00    +0.030 A 
ATOM     23  C   LIG    1        0.265   1.440   0.459  0.00  0.00    +0.010 A 
ATOM     24  C   LIG    1       -0.944   2.106   0.424  0.00  0.00    +0.060 A 
ATOM     25  C   LIG    1       -0.973   3.487   0.630  0.00  0.00    -0.160 A 
ATOM     26  C   LIG    1       -2.253   4.216   0.659  0.00  0.00    +0.400 C 
ATOM     27  O   LIG    1       -2.944   4.314  -0.333  0.00  0.00    -0.420 OA
ENDBRANCH  15  16
ENDBRANCH   1  15
TORSDOF 4
