REMARK  Name = ZINCrD000000AJ5i.0
REMARK                            x       y       z     vdW  Elec       q    Type
REMARK                         _______ _______ _______ _____ _____    ______ ____
ROOT
ATOM      1  N   LIG    1       -2.484   1.627  -0.738  0.00  0.00    -0.660 NA
ATOM      2  C   LIG    1       -1.219   2.039  -0.740  0.00  0.00    +0.480 A 
ATOM      3  C   LIG    1       -0.686   3.109   0.010  0.00  0.00    -0.110 A 
ATOM      4  C   LIG    1        0.630   3.211  -0.276  0.00  0.00    +0.340 A 
ATOM      5  N   LIG    1        0.964   2.243  -1.177  0.00  0.00    -0.390 N 
ATOM      6  N   LIG    1       -0.188   1.500  -1.472  0.00  0.00    -0.480 N 
ATOM      7  H   LIG    1       -0.247   0.749  -2.082  0.00  0.00    +0.450 HD
ENDROOT
BRANCH   1   9
ATOM      8  O   LIG    1       -3.053   3.192   0.723  0.00  0.00    -0.550 OA
ATOM      9  C   LIG    1       -3.388   2.248   0.028  0.00  0.00    +0.560 C 
BRANCH   9  10
ATOM     10  C   LIG    1       -4.794   1.791   0.030  0.00  0.00    -0.070 A 
ATOM     11  C   LIG    1       -5.244   0.916   1.006  0.00  0.00    +0.050 A 
ATOM     12  C   LIG    1       -6.564   0.482   1.014  0.00  0.00    +0.020 A 
ATOM     13  C   LIG    1       -7.450   0.901   0.068  0.00  0.00    +0.030 A 
ATOM     14  C   LIG    1       -7.037   1.789  -0.940  0.00  0.00    -0.050 A 
ATOM     15  C   LIG    1       -7.932   2.236  -1.927  0.00  0.00    +0.050 A 
ATOM     16  C   LIG    1       -7.500   3.095  -2.891  0.00  0.00    +0.010 A 
ATOM     17  C   LIG    1       -6.180   3.540  -2.914  0.00  0.00    +0.050 A 
ATOM     18  C   LIG    1       -5.285   3.127  -1.971  0.00  0.00    -0.080 A 
ATOM     19 BR   LIG    1       -3.499   3.746  -2.023  0.00  0.00    -0.020 Br
ATOM     20  C   LIG    1       -5.697   2.246  -0.962  0.00  0.00    -0.010 A 
ENDBRANCH   9  10
ENDBRANCH   1   9
BRANCH   5  21
ATOM     21  C   LIG    1        2.298   2.017  -1.739  0.00  0.00    +0.360 C 
BRANCH  21  22
ATOM     22  C   LIG    1        2.504   2.934  -2.947  0.00  0.00    +0.160 C 
BRANCH  22  23
ATOM     23  N   LIG    1        3.841   2.708  -3.511  0.00  0.00    -0.530 NA
ATOM     24  C   LIG    1        4.888   3.137  -2.572  0.00  0.00    +0.150 C 
ATOM     25  C   LIG    1        6.262   2.829  -3.173  0.00  0.00    +0.220 C 
ATOM     26  O   LIG    1        6.377   3.475  -4.444  0.00  0.00    -0.380 OA
ATOM     27  C   LIG    1        5.373   3.081  -5.383  0.00  0.00    +0.220 C 
ATOM     28  C   LIG    1        3.990   3.391  -4.804  0.00  0.00    +0.160 C 
ENDBRANCH  22  23
ENDBRANCH  21  22
ENDBRANCH   5  21
TORSDOF 5
