REMARK  Name = ZINCrD000000BHoE.0
REMARK                            x       y       z     vdW  Elec       q    Type
REMARK                         _______ _______ _______ _____ _____    ______ ____
ROOT
ATOM      1  O   LIG    1       -1.178   2.902   0.072  0.00  0.00    -0.530 OA
ATOM      2  C   LIG    1       -1.175   1.687   0.044  0.00  0.00    +0.570 C 
ATOM      3  N   LIG    1       -0.006   1.016   0.021  0.00  0.00    -0.720 N 
ATOM      4  H   LIG    1       -0.004   0.046  -0.001  0.00  0.00    +0.400 HD
ENDROOT
BRANCH   3   5
ATOM      5  C   LIG    1        1.261   1.752   0.025  0.00  0.00    +0.240 C 
ATOM      6  C   LIG    1        1.705   2.086  -1.424  0.00  0.00    +0.030 C 
ATOM      7  C   LIG    1        3.242   2.196  -1.260  0.00  0.00    +0.260 C 
ATOM      8  N   LIG    1        3.593   1.152  -0.281  0.00  0.00    -0.620 N 
ATOM      9  C   LIG    1        4.798   0.562  -0.159  0.00  0.00    +0.540 C 
ATOM     10  O   LIG    1        5.003  -0.218   0.746  0.00  0.00    -0.530 OA
ATOM     11  C   LIG    1        2.408   0.861   0.546  0.00  0.00    +0.250 C 
BRANCH   9  12
ATOM     12  C   LIG    1        5.892   0.873  -1.148  0.00  0.00    -0.010 C 
ATOM     13  C   LIG    1        5.755  -0.043  -2.365  0.00  0.00    +0.030 C 
ATOM     14  C   LIG    1        6.866   0.273  -3.369  0.00  0.00    +0.010 C 
ATOM     15  C   LIG    1        8.228   0.045  -2.711  0.00  0.00    +0.000 C 
ATOM     16  C   LIG    1        8.365   0.962  -1.493  0.00  0.00    +0.010 C 
ATOM     17  C   LIG    1        7.255   0.646  -0.489  0.00  0.00    +0.050 C 
ENDBRANCH   9  12
ENDBRANCH   3   5
BRANCH   2  18
ATOM     18  C   LIG    1       -2.454   0.944   0.034  0.00  0.00    -0.110 A 
ATOM     19  C   LIG    1       -2.453  -0.451   0.002  0.00  0.00    +0.030 A 
ATOM     20  C   LIG    1       -3.648  -1.142  -0.007  0.00  0.00    +0.050 A 
ATOM     21  C   LIG    1       -4.848  -0.456   0.017  0.00  0.00    +0.020 A 
ATOM     22  C   LIG    1       -4.859   0.933   0.049  0.00  0.00    +0.140 A 
ATOM     23  C   LIG    1       -3.665   1.636   0.063  0.00  0.00    +0.070 A 
BRANCH  22  24
ATOM     24  N   LIG    1       -6.079   1.624   0.072  0.00  0.00    -0.400 N 
ATOM     25  C   LIG    1       -6.225   2.982   0.110  0.00  0.00    +0.150 A 
ATOM     26  C   LIG    1       -7.543   3.263   0.119  0.00  0.00    -0.050 A 
ATOM     27  C   LIG    1       -8.238   2.037   0.095  0.00  0.00    -0.050 A 
ATOM     28  C   LIG    1       -7.319   1.052   0.067  0.00  0.00    +0.150 A 
ENDBRANCH  22  24
ENDBRANCH   2  18
TORSDOF 4
