REMARK  Name = ZINCqH0000032o7i.0
REMARK                            x       y       z     vdW  Elec       q    Type
REMARK                         _______ _______ _______ _____ _____    ______ ____
ROOT
ATOM      1  C   LIG    1       -2.883   2.008   1.484  0.00  0.00    +0.070 A 
ATOM      2  C   LIG    1       -4.255   1.859   1.337  0.00  0.00    +0.010 A 
ATOM      3  C   LIG    1       -5.116   2.462   2.232  0.00  0.00    +0.050 A 
ATOM      4  C   LIG    1       -4.610   3.220   3.280  0.00  0.00    +0.140 A 
ATOM      5  C   LIG    1       -3.237   3.370   3.429  0.00  0.00    -0.010 A 
ATOM      6  C   LIG    1       -2.375   2.762   2.537  0.00  0.00    +0.090 A 
ATOM      7  F   LIG    1       -1.039   2.904   2.684  0.00  0.00    -0.130 F 
ENDROOT
BRANCH   1  12
ATOM      8  C   LIG    1       -2.725   0.985  -0.652  0.00  0.00    +0.140 C 
ATOM      9  C   LIG    1       -1.742   1.155  -1.825  0.00  0.00    +0.020 C 
ATOM     10  C   LIG    1       -0.448   1.713  -1.190  0.00  0.00    +0.040 C 
ATOM     11  C   LIG    1       -0.950   2.345   0.132  0.00  0.00    +0.180 C 
ATOM     12  N   LIG    1       -2.010   1.396   0.576  0.00  0.00    -0.460 N 
BRANCH   8  14
ATOM     13  C   LIG    1       -3.863  -0.903  -1.828  0.00  0.00    +0.020 C 
ATOM     14  C   LIG    1       -3.155  -0.479  -0.540  0.00  0.00    -0.020 C 
ATOM     15  C   LIG    1       -1.921  -1.357  -0.323  0.00  0.00    +0.030 C 
ENDBRANCH   8  14
ENDBRANCH   1  12
BRANCH   4  16
ATOM     16  N   LIG    1       -5.484   3.832   4.188  0.00  0.00    -0.670 N 
ATOM     17  H   LIG    1       -5.265   4.699   4.563  0.00  0.00    +0.410 HD
ATOM     18  C   LIG    1       -6.630   3.216   4.540  0.00  0.00    +0.510 C 
ATOM     19  O   LIG    1       -6.947   2.173   4.007  0.00  0.00    -0.520 OA
BRANCH  18  20
ATOM     20  C   LIG    1       -7.519   3.824   5.594  0.00  0.00    +0.070 C 
BRANCH  20  21
ATOM     21  C   LIG    1       -8.745   2.933   5.803  0.00  0.00    +0.140 C 
BRANCH  21  22
ATOM     22  C   LIG    1       -9.634   3.540   6.858  0.00  0.00    -0.240 A 
ATOM     23  C   LIG    1       -9.570   3.299   8.188  0.00  0.00    +0.230 A 
ATOM     24  N   LIG    1      -10.530   4.035   8.786  0.00  0.00    -0.380 N 
ATOM     25  N   LIG    1      -11.212   4.745   7.789  0.00  0.00    -0.300 NA
ATOM     26  C   LIG    1      -10.813   4.079  10.223  0.00  0.00    +0.360 C 
ATOM     27  C   LIG    1      -10.674   4.447   6.634  0.00  0.00    +0.230 A 
ENDBRANCH  21  22
ENDBRANCH  20  21
ENDBRANCH  18  20
ENDBRANCH   4  16
TORSDOF 6
