REMARK  Name = ZINCvU00000007Sr.0
REMARK                            x       y       z     vdW  Elec       q    Type
REMARK                         _______ _______ _______ _____ _____    ______ ____
ROOT
ATOM      1  O   LIG    1        4.308   3.756  -0.362  0.00  0.00    -0.520 OA
ATOM      2  C   LIG    1        4.362   3.094  -1.381  0.00  0.00    +0.610 C 
ATOM      3  N   LIG    1        4.975   3.589  -2.474  0.00  0.00    -0.710 N 
ATOM      4  H   LIG    1        5.018   3.061  -3.287  0.00  0.00    +0.400 HD
ENDROOT
BRANCH   2   5
ATOM      5  C   LIG    1        3.757   1.750  -1.419  0.00  0.00    -0.270 A 
ATOM      6  C   LIG    1        3.097   1.080  -0.419  0.00  0.00    +0.070 A 
ATOM      7  O   LIG    1        2.731  -0.096  -0.934  0.00  0.00    +0.100 OA
ATOM      8  N   LIG    1        3.072  -0.238  -2.082  0.00  0.00    -0.350 NA
ATOM      9  C   LIG    1        3.715   0.795  -2.537  0.00  0.00    +0.220 A 
BRANCH   6  10
ATOM     10  C   LIG    1        2.832   1.576   0.979  0.00  0.00    +0.210 C 
BRANCH  10  11
ATOM     11  C   LIG    1        1.517   2.312   1.010  0.00  0.00    -0.090 A 
ATOM     12  C   LIG    1        0.347   1.627   1.280  0.00  0.00    +0.010 A 
ATOM     13  C   LIG    1       -0.859   2.302   1.302  0.00  0.00    +0.000 A 
ATOM     14  C   LIG    1       -0.894   3.664   1.066  0.00  0.00    +0.010 A 
ATOM     15  C   LIG    1        0.276   4.349   0.796  0.00  0.00    +0.000 A 
ATOM     16  C   LIG    1        1.482   3.673   0.768  0.00  0.00    +0.040 A 
ENDBRANCH  10  11
ENDBRANCH   6  10
ENDBRANCH   2   5
BRANCH   3  17
ATOM     17  C   LIG    1        5.576   4.925  -2.436  0.00  0.00    +0.360 C 
BRANCH  17  18
ATOM     18  C   LIG    1        4.522   5.958  -2.736  0.00  0.00    -0.100 A 
ATOM     19  C   LIG    1        3.412   5.616  -3.486  0.00  0.00    +0.030 A 
ATOM     20  C   LIG    1        2.443   6.566  -3.762  0.00  0.00    +0.090 A 
ATOM     21  C   LIG    1        2.586   7.859  -3.287  0.00  0.00    +0.030 A 
ATOM     22  C   LIG    1        3.696   8.201  -2.537  0.00  0.00    +0.030 A 
ATOM     23  F   LIG    1        1.359   6.232  -4.494  0.00  0.00    -0.130 F 
ATOM     24  C   LIG    1        4.662   7.250  -2.257  0.00  0.00    +0.110 A 
ATOM     25  F   LIG    1        5.744   7.583  -1.519  0.00  0.00    -0.130 F 
ENDBRANCH  17  18
BRANCH  17  26
ATOM     26  C   LIG    1        6.673   5.011  -3.466  0.00  0.00    -0.100 A 
ATOM     27  C   LIG    1        6.455   5.687  -4.651  0.00  0.00    +0.040 A 
ATOM     28  C   LIG    1        7.463   5.771  -5.594  0.00  0.00    +0.020 A 
ATOM     29  C   LIG    1        8.685   5.170  -5.356  0.00  0.00    +0.050 A 
ATOM     30  C   LIG    1        8.902   4.490  -4.172  0.00  0.00    +0.030 A 
ATOM     31  C   LIG    1        7.896   4.410  -3.226  0.00  0.00    -0.020 A 
ATOM     32 CL   LIG    1        8.167   3.556  -1.740  0.00  0.00    -0.060 Cl
ENDBRANCH  17  26
ENDBRANCH   3  17
TORSDOF 6
