REMARK  Name = ZINCqH00000071QM.0
REMARK                            x       y       z     vdW  Elec       q    Type
REMARK                         _______ _______ _______ _____ _____    ______ ____
ROOT
ATOM      1  N   LIG    1       -2.834   0.474  -1.315  0.00  0.00    -0.570 N 
ATOM      2  C   LIG    1       -2.474   1.661  -1.818  0.00  0.00    +0.700 C 
ATOM      3  N   LIG    1       -2.900   1.832  -3.084  0.00  0.00    -0.720 N 
ATOM      4  H   LIG    1       -2.754   2.610  -3.645  0.00  0.00    +0.440 HD
ATOM      5  C   LIG    1       -3.632   0.611  -3.447  0.00  0.00    +0.170 C 
ATOM      6  C   LIG    1       -2.955  -0.084  -4.622  0.00  0.00    +0.050 C 
ATOM      7  C   LIG    1       -3.228   0.735  -5.891  0.00  0.00    +0.040 C 
ATOM      8  C   LIG    1       -4.711   0.614  -6.235  0.00  0.00    +0.080 C 
ATOM      9  C   LIG    1       -5.564   0.940  -5.037  0.00  0.00    -0.050 A 
ATOM     10  C   LIG    1       -6.898   1.254  -5.257  0.00  0.00    +0.010 A 
ATOM     11  C   LIG    1       -7.731   1.558  -4.200  0.00  0.00    +0.030 A 
ATOM     12  C   LIG    1       -7.234   1.548  -2.910  0.00  0.00    +0.010 A 
ATOM     13  C   LIG    1       -5.908   1.238  -2.689  0.00  0.00    +0.010 A 
ATOM     14  C   LIG    1       -5.067   0.935  -3.752  0.00  0.00    -0.090 A 
ATOM     15  O   LIG    1       -1.833   2.489  -1.202  0.00  0.00    -0.510 OA
ATOM     16  C   LIG    1       -3.543  -0.250  -2.207  0.00  0.00    +0.530 C 
ATOM     17  O   LIG    1       -4.009  -1.357  -2.047  0.00  0.00    -0.450 OA
ENDROOT
BRANCH   1  18
ATOM     18  C   LIG    1       -2.505   0.019   0.038  0.00  0.00    +0.380 C 
BRANCH  18  25
ATOM     19  C   LIG    1        0.002  -0.004   0.002  0.00  0.00    +0.170 A 
ATOM     20  C   LIG    1        1.212  -0.682  -0.013  0.00  0.00    -0.070 A 
ATOM     21  C   LIG    1        1.228  -2.064  -0.021  0.00  0.00    +0.100 A 
ATOM     22  C   LIG    1        0.040  -2.771  -0.013  0.00  0.00    -0.140 A 
ATOM     23  C   LIG    1       -1.168  -2.096   0.002  0.00  0.00    +0.110 A 
ATOM     24 BR   LIG    1        0.065  -4.661  -0.023  0.00  0.00    -0.050 Br
ATOM     25  C   LIG    1       -1.189  -0.715   0.015  0.00  0.00    -0.150 A 
BRANCH  19  27
ATOM     26  C   LIG    1        1.248   2.021   0.001  0.00  0.00    +0.240 C 
ATOM     27  O   LIG    1       -0.016   1.355   0.009  0.00  0.00    -0.280 OA
ENDBRANCH  19  27
ENDBRANCH  18  25
ENDBRANCH   1  18
TORSDOF 3
