REMARK  Name = ZINCnE000001FglK.0
REMARK                            x       y       z     vdW  Elec       q    Type
REMARK                         _______ _______ _______ _____ _____    ______ ____
ROOT
ATOM      1  N   LIG    1       -0.091  -0.387   2.591  0.00  0.00    -0.680 N 
ATOM      2  H   LIG    1       -0.818  -0.849   2.144  0.00  0.00    +0.390 HD
ATOM      3  C   LIG    1        0.851  -1.091   3.249  0.00  0.00    +0.550 C 
ATOM      4  O   LIG    1        1.761  -0.513   3.810  0.00  0.00    -0.540 OA
ENDROOT
BRANCH   3   5
ATOM      5  C   LIG    1        0.777  -2.568   3.289  0.00  0.00    -0.100 A 
ATOM      6  C   LIG    1       -0.267  -3.234   2.645  0.00  0.00    +0.080 A 
ATOM      7  C   LIG    1       -0.333  -4.613   2.683  0.00  0.00    -0.090 A 
ATOM      8  C   LIG    1        0.633  -5.338   3.357  0.00  0.00    +0.090 A 
ATOM      9  C   LIG    1        1.676  -4.683   4.001  0.00  0.00    +0.080 A 
ATOM     10 BR   LIG    1       -1.749  -5.513   1.811  0.00  0.00    -0.040 Br
ATOM     11  C   LIG    1        1.754  -3.299   3.964  0.00  0.00    +0.060 A 
BRANCH   9  12
ATOM     12  N   LIG    1        2.650  -5.420   4.680  0.00  0.00    -0.480 N 
ATOM     13  C   LIG    1        3.987  -5.231   4.062  0.00  0.00    +0.170 C 
ATOM     14  C   LIG    1        4.962  -5.646   5.193  0.00  0.00    +0.030 C 
ATOM     15  C   LIG    1        4.267  -5.107   6.464  0.00  0.00    +0.010 C 
ATOM     16  C   LIG    1        2.783  -4.958   6.079  0.00  0.00    +0.170 C 
ENDBRANCH   9  12
ENDBRANCH   3   5
BRANCH   1  17
ATOM     17  CA  LIG    1       -0.018   1.075   2.552  0.00  0.00    +0.160 C 
BRANCH  17  18
ATOM     18  C   LIG    1       -0.664   1.644   3.790  0.00  0.00    +0.490 C 
ATOM     19  OXT LIG    1       -0.274   2.704   4.249  0.00  0.00    -0.690 OA
ATOM     20  O   LIG    1       -1.576   1.044   4.332  0.00  0.00    -0.690 OA
ENDBRANCH  17  18
BRANCH  17  21
ATOM     21  C   LIG    1       -0.753   1.590   1.312  0.00  0.00    +0.030 C 
BRANCH  21  22
ATOM     22  C   LIG    1       -0.023   1.114   0.054  0.00  0.00    +0.000 C 
BRANCH  22  24
ATOM     23  C   LIG    1       -0.028   1.153  -2.444  0.00  0.00    +0.000 C 
ATOM     24  C   LIG    1       -0.757   1.629  -1.186  0.00  0.00    -0.010 C 
ENDBRANCH  22  24
ENDBRANCH  21  22
ENDBRANCH  17  21
ENDBRANCH   1  17
TORSDOF 7
