REMARK  Name = ZINCtV000002O8lm.1
REMARK                            x       y       z     vdW  Elec       q    Type
REMARK                         _______ _______ _______ _____ _____    ______ ____
ROOT
ATOM      1  C   LIG    1       -4.754   1.645  -0.453  0.00  0.00    +0.140 A 
ATOM      2  C   LIG    1       -4.635   0.264  -0.519  0.00  0.00    +0.110 A 
ATOM      3  C   LIG    1       -5.769  -0.526  -0.528  0.00  0.00    +0.050 A 
ATOM      4  C   LIG    1       -7.021   0.059  -0.481  0.00  0.00    +0.040 A 
ATOM      5  C   LIG    1       -7.143   1.437  -0.421  0.00  0.00    -0.650 A 
ATOM      6 CL   LIG    1       -8.444  -0.935  -0.499  0.00  0.00    -0.040 Cl
ATOM      7  C   LIG    1       -6.013   2.231  -0.407  0.00  0.00    +0.130 A 
ENDROOT
BRANCH   1  10
ATOM      8  O   LIG    1       -2.494   0.956   0.773  0.00  0.00    -0.490 OA
ATOM      9  C   LIG    1       -2.484   2.007   0.162  0.00  0.00    +0.560 C 
ATOM     10  N   LIG    1       -3.607   2.447  -0.440  0.00  0.00    -0.670 N 
ATOM     11  H   LIG    1       -3.621   3.320  -0.862  0.00  0.00    +0.410 HD
BRANCH   9  12
ATOM     12  C   LIG    1       -1.242   2.801   0.077  0.00  0.00    -0.130 A 
ATOM     13  C   LIG    1       -1.229   4.011  -0.619  0.00  0.00    +0.090 A 
ATOM     14  C   LIG    1       -0.064   4.745  -0.700  0.00  0.00    +0.040 A 
ATOM     15  C   LIG    1        1.091   4.287  -0.086  0.00  0.00    +0.000 A 
ATOM     16  C   LIG    1        1.084   3.091   0.612  0.00  0.00    +0.040 A 
ATOM     17 CL   LIG    1        2.552   5.218  -0.192  0.00  0.00    -0.040 Cl
ATOM     18  C   LIG    1       -0.075   2.347   0.700  0.00  0.00    +0.030 A 
ATOM     19 CL   LIG    1       -0.083   0.848   1.575  0.00  0.00    -0.010 Cl
ENDBRANCH   9  12
ENDBRANCH   1  10
BRANCH   5  20
ATOM     20  S   LIG    1       -8.740   2.178  -0.362  0.00  0.00    +2.690 S 
ATOM     21  O   LIG    1       -8.530   3.584  -0.372  0.00  0.00    -0.940 OA
ATOM     22  O   LIG    1       -9.456   1.506   0.664  0.00  0.00    -0.930 OA
BRANCH  20  23
ATOM     23  N   LIG    1       -9.504   1.810  -1.784  0.00  0.00    -1.050 N 
ATOM     24  H   LIG    1      -10.321   1.287  -1.774  0.00  0.00    +0.430 HD
BRANCH  23  25
ATOM     25  C   LIG    1       -8.972   2.252  -2.999  0.00  0.00    +0.150 A 
ATOM     26  C   LIG    1       -8.529   3.562  -3.128  0.00  0.00    +0.030 A 
ATOM     27  C   LIG    1       -7.999   3.994  -4.328  0.00  0.00    +0.050 A 
ATOM     28  C   LIG    1       -7.919   3.127  -5.403  0.00  0.00    -0.040 A 
ATOM     29  C   LIG    1       -8.364   1.823  -5.279  0.00  0.00    +0.050 A 
ATOM     30 CL   LIG    1       -7.258   3.677  -6.912  0.00  0.00    -0.060 Cl
ATOM     31  C   LIG    1       -8.891   1.384  -4.080  0.00  0.00    +0.030 A 
ENDBRANCH  23  25
ENDBRANCH  20  23
ENDBRANCH   5  20
TORSDOF 5
