REMARK  Name = ZINCpk00000e9KDv.0
REMARK                            x       y       z     vdW  Elec       q    Type
REMARK                         _______ _______ _______ _____ _____    ______ ____
ROOT
ATOM      1  S   LIG    1       -6.688   1.002   4.155  0.00  0.00    +2.670 S 
ATOM      2  O   LIG    1       -6.941   0.127   5.246  0.00  0.00    -0.920 OA
ATOM      3  O   LIG    1       -6.769   0.593   2.797  0.00  0.00    -0.920 OA
ENDROOT
BRANCH   1   4
ATOM      4  C   LIG    1       -7.803   2.355   4.334  0.00  0.00    -0.620 A 
ATOM      5  C   LIG    1       -8.497   2.828   3.237  0.00  0.00    +0.150 A 
ATOM      6  C   LIG    1       -9.372   3.890   3.376  0.00  0.00    +0.100 A 
ATOM      7  C   LIG    1       -9.553   4.479   4.612  0.00  0.00    +0.080 A 
ATOM      8  C   LIG    1       -8.859   4.005   5.713  0.00  0.00    +0.140 A 
ATOM      9  F   LIG    1       -9.036   4.580   6.923  0.00  0.00    -0.110 F 
ATOM     10  C   LIG    1       -7.986   2.939   5.573  0.00  0.00    +0.030 A 
BRANCH  10  11
ATOM     11  N   LIG    1       -7.248   2.428   6.750  0.00  0.00    -0.010 N 
ATOM     12  O   LIG    1       -7.659   1.451   7.349  0.00  0.00    -0.070 OA
ATOM     13  O   LIG    1       -6.229   2.985   7.118  0.00  0.00    -0.130 OA
ENDBRANCH  10  11
ENDBRANCH   1   4
BRANCH   1  14
ATOM     14  N   LIG    1       -5.158   1.595   4.376  0.00  0.00    -0.990 NA
ATOM     15  C   LIG    1       -4.431   1.304   5.614  0.00  0.00    +0.320 C 
BRANCH  14  16
ATOM     16  C   LIG    1       -4.531   2.410   3.332  0.00  0.00    +0.380 C 
BRANCH  16  21
ATOM     17  C   LIG    1       -1.623   0.506   2.108  0.00  0.00    +0.560 A 
ATOM     18  N   LIG    1       -2.047  -0.017   0.967  0.00  0.00    -0.560 NA
ATOM     19  C   LIG    1       -3.276   0.210   0.535  0.00  0.00    +0.360 A 
ATOM     20  C   LIG    1       -4.122   1.006   1.290  0.00  0.00    -0.120 A 
ATOM     21  C   LIG    1       -3.646   1.538   2.478  0.00  0.00    +0.190 A 
ATOM     22  N   LIG    1       -2.408   1.268   2.856  0.00  0.00    -0.550 NA
BRANCH  17  24
ATOM     23  C   LIG    1        0.551  -0.596   1.719  0.00  0.00    +0.300 C 
ATOM     24  N   LIG    1       -0.330   0.248   2.530  0.00  0.00    -0.590 N 
ATOM     25  C   LIG    1        0.157   0.818   3.789  0.00  0.00    +0.300 C 
ENDBRANCH  17  24
ENDBRANCH  16  21
ENDBRANCH  14  16
ENDBRANCH   1  14
TORSDOF 6
