REMARK  Name = ZINCrH000004tS3z.0
REMARK                            x       y       z     vdW  Elec       q    Type
REMARK                         _______ _______ _______ _____ _____    ______ ____
ROOT
ATOM      1  O   LIG    1        3.554   2.023   0.080  0.00  0.00    -0.510 OA
ATOM      2  C   LIG    1        3.532   3.236   0.086  0.00  0.00    +0.520 C 
ATOM      3  N   LIG    1        2.356   3.889  -0.001  0.00  0.00    -0.670 N 
ATOM      4  H   LIG    1        2.341   4.856  -0.063  0.00  0.00    +0.410 HD
ENDROOT
BRANCH   3   5
ATOM      5  C   LIG    1        1.155   3.170  -0.000  0.00  0.00    +0.150 A 
ATOM      6  C   LIG    1        1.088   1.927  -0.616  0.00  0.00    +0.050 A 
ATOM      7  C   LIG    1       -0.098   1.220  -0.614  0.00  0.00    +0.030 A 
ATOM      8  C   LIG    1       -1.220   1.751  -0.005  0.00  0.00    +0.020 A 
ATOM      9  C   LIG    1       -1.156   2.987   0.613  0.00  0.00    -0.130 A 
ATOM     10  C   LIG    1        0.028   3.698   0.615  0.00  0.00    +0.010 A 
BRANCH   9  11
ATOM     11  C   LIG    1       -2.380   3.559   1.280  0.00  0.00    +0.270 C 
BRANCH  11  12
ATOM     12  C   LIG    1       -2.482   3.020   2.708  0.00  0.00    +0.420 C 
ATOM     13  F   LIG    1       -2.579   1.625   2.674  0.00  0.00    -0.180 F 
ATOM     14  F   LIG    1       -3.618   3.552   3.327  0.00  0.00    -0.170 F 
ATOM     15  F   LIG    1       -1.342   3.390   3.429  0.00  0.00    -0.170 F 
ENDBRANCH  11  12
BRANCH  11  16
ATOM     16  O   LIG    1       -3.544   3.181   0.543  0.00  0.00    -0.520 OA
ATOM     17  H   LIG    1       -3.676   2.226   0.478  0.00  0.00    +0.390 HD
ENDBRANCH  11  16
ENDBRANCH   9  11
ENDBRANCH   3   5
BRANCH   2  18
ATOM     18  C   LIG    1        4.819   4.013   0.191  0.00  0.00    +0.070 C 
BRANCH  18  19
ATOM     19  C   LIG    1        5.997   3.041   0.277  0.00  0.00    +0.090 C 
ATOM     20  C   LIG    1        5.902   2.238   1.575  0.00  0.00    +0.090 C 
ATOM     21  C   LIG    1        6.219   3.123   2.749  0.00  0.00    +0.520 C 
ATOM     22  N   LIG    1        7.143   4.096   2.648  0.00  0.00    -0.670 N 
ATOM     23  H   LIG    1        7.345   4.651   3.418  0.00  0.00    +0.410 HD
ATOM     24  C   LIG    1        7.814   4.314   1.441  0.00  0.00    +0.170 A 
ATOM     25  C   LIG    1        9.005   5.027   1.423  0.00  0.00    -0.020 A 
ATOM     26  C   LIG    1        9.663   5.238   0.227  0.00  0.00    +0.050 A 
ATOM     27  C   LIG    1        9.137   4.739  -0.951  0.00  0.00    -0.010 A 
ATOM     28  C   LIG    1        7.951   4.029  -0.936  0.00  0.00    +0.050 A 
ATOM     29  O   LIG    1        5.635   2.958   3.799  0.00  0.00    -0.520 OA
ATOM     30  C   LIG    1        7.289   3.814   0.256  0.00  0.00    -0.120 A 
ENDBRANCH  18  19
ENDBRANCH   2  18
TORSDOF 6
