REMARK  Name = ZINCpk00000y6uyL.0
REMARK                            x       y       z     vdW  Elec       q    Type
REMARK                         _______ _______ _______ _____ _____    ______ ____
ROOT
ATOM      1  C   LIG    1       -3.391   8.389   3.725  0.00  0.00    +0.150 C 
ATOM      2  C   LIG    1       -4.935   8.368   3.573  0.00  0.00    +0.070 C 
ATOM      3  C   LIG    1       -5.149   7.455   2.347  0.00  0.00    +0.230 C 
ATOM      4  N   LIG    1       -3.950   6.616   2.213  0.00  0.00    -0.620 N 
ATOM      5  C   LIG    1       -3.737   5.697   1.250  0.00  0.00    +0.530 C 
ATOM      6  O   LIG    1       -4.578   5.508   0.396  0.00  0.00    -0.500 OA
ATOM      7  C   LIG    1       -3.020   6.941   3.309  0.00  0.00    +0.240 C 
ENDROOT
BRANCH   1   9
ATOM      8  C   LIG    1       -1.766   9.329   5.215  0.00  0.00    +0.210 C 
ATOM      9  O   LIG    1       -3.013   8.645   5.079  0.00  0.00    -0.370 OA
ENDBRANCH   1   9
BRANCH   5  10
ATOM     10  C   LIG    1       -2.456   4.905   1.233  0.00  0.00    +0.060 C 
BRANCH  10  11
ATOM     11  C   LIG    1       -2.468   3.940   0.046  0.00  0.00    +0.130 C 
BRANCH  11  12
ATOM     12  C   LIG    1       -1.186   3.147   0.030  0.00  0.00    +0.180 A 
ATOM     13  C   LIG    1       -1.217   1.762   0.017  0.00  0.00    -0.070 A 
ATOM     14  C   LIG    1       -0.013   1.076   0.008  0.00  0.00    +0.320 A 
ATOM     15  N   LIG    1        1.119   1.762   0.001  0.00  0.00    -0.520 NA
ATOM     16  C   LIG    1        1.109   3.080   0.008  0.00  0.00    +0.500 A 
ATOM     17  N   LIG    1       -0.016   3.765   0.022  0.00  0.00    -0.520 NA
ENDBRANCH  11  12
ENDBRANCH  10  11
ENDBRANCH   5  10
BRANCH   3  18
ATOM     18  C   LIG    1       -5.332   8.307   1.090  0.00  0.00    +0.170 C 
BRANCH  18  19
ATOM     19  O   LIG    1       -5.628   7.459  -0.022  0.00  0.00    -0.270 OA
BRANCH  19  20
ATOM     20  C   LIG    1       -5.821   8.062  -1.224  0.00  0.00    +0.080 A 
ATOM     21  C   LIG    1       -6.107   7.305  -2.356  0.00  0.00    +0.040 A 
ATOM     22  C   LIG    1       -6.300   7.966  -3.558  0.00  0.00    +0.010 A 
ATOM     23  C   LIG    1       -6.193   9.343  -3.597  0.00  0.00    +0.210 A 
ATOM     24  N   LIG    1       -5.914  10.031  -2.507  0.00  0.00    -0.450 NA
ATOM     25  C   LIG    1       -5.728   9.442  -1.342  0.00  0.00    +0.160 A 
ENDBRANCH  19  20
ENDBRANCH  18  19
ENDBRANCH   3  18
TORSDOF 7
