REMARK  Name = ZINCrD00000cFBnb.0
REMARK                            x       y       z     vdW  Elec       q    Type
REMARK                         _______ _______ _______ _____ _____    ______ ____
ROOT
ATOM      1  C   LIG    1        1.762  -0.408   0.858  0.00  0.00    -0.030 C 
ATOM      2  C   LIG    1        2.886  -0.091   1.848  0.00  0.00    +0.030 C 
ATOM      3  C   LIG    1        3.990  -1.143   1.722  0.00  0.00    +0.010 C 
ATOM      4  C   LIG    1        4.569  -1.101   0.304  0.00  0.00    +0.260 C 
ATOM      5  N   LIG    1        3.472  -1.260  -0.660  0.00  0.00    -0.610 N 
ATOM      6  C   LIG    1        3.525  -2.215  -1.609  0.00  0.00    +0.560 C 
ATOM      7  O   LIG    1        2.566  -2.408  -2.331  0.00  0.00    -0.530 OA
ATOM      8  C   LIG    1        2.316  -0.358  -0.570  0.00  0.00    +0.280 C 
ENDROOT
BRANCH   6   9
ATOM      9  C   LIG    1        4.749  -3.027  -1.774  0.00  0.00    -0.120 A 
ATOM     10  C   LIG    1        4.644  -4.369  -2.099  0.00  0.00    +0.120 A 
ATOM     11  C   LIG    1        5.810  -5.136  -2.259  0.00  0.00    +0.120 A 
ATOM     12  N   LIG    1        5.740  -6.432  -2.579  0.00  0.00    -0.470 NA
ATOM     13  C   LIG    1        6.822  -7.157  -2.726  0.00  0.00    +0.290 A 
ATOM     14  C   LIG    1        8.095  -6.616  -2.558  0.00  0.00    -0.030 A 
ATOM     15  C   LIG    1        8.238  -5.297  -2.231  0.00  0.00    +0.080 A 
ATOM     16  C   LIG    1        7.074  -4.521  -2.073  0.00  0.00    -0.090 A 
ATOM     17  C   LIG    1        7.148  -3.158  -1.738  0.00  0.00    +0.040 A 
ATOM     18  C   LIG    1        6.010  -2.432  -1.593  0.00  0.00    +0.040 A 
ENDBRANCH   6   9
BRANCH   1  19
ATOM     19  C   LIG    1        0.643   0.625   1.009  0.00  0.00    +0.270 C 
BRANCH  19  21
ATOM     20  C   LIG    1       -1.585   1.028   0.109  0.00  0.00    +0.530 C 
ATOM     21  N   LIG    1       -0.481   0.256   0.146  0.00  0.00    -0.730 N 
ATOM     22  H   LIG    1       -0.430  -0.543  -0.402  0.00  0.00    +0.400 HD
ATOM     23  O   LIG    1       -1.649   2.027   0.795  0.00  0.00    -0.540 OA
BRANCH  20  25
ATOM     24  C   LIG    1       -3.151  -0.814  -0.634  0.00  0.00    +0.060 C 
ATOM     25  C   LIG    1       -2.740   0.652  -0.783  0.00  0.00    -0.110 C 
ATOM     26  C   LIG    1       -2.561   1.098  -2.244  0.00  0.00    +0.040 C 
ATOM     27  C   LIG    1       -4.054   1.464  -2.232  0.00  0.00    +0.010 C 
ATOM     28  C   LIG    1       -3.921   1.634  -0.710  0.00  0.00    +0.050 C 
ENDBRANCH  20  25
ENDBRANCH  19  21
ENDBRANCH   1  19
TORSDOF 4
