REMARK  Name = ZINCvU00000003Ll.0
REMARK                            x       y       z     vdW  Elec       q    Type
REMARK                         _______ _______ _______ _____ _____    ______ ____
ROOT
ATOM      1  N   LIG    1       -2.055  -1.055  -1.063  0.00  0.00    -0.480 N 
ATOM      2  C   LIG    1       -3.321  -1.416  -0.647  0.00  0.00    +0.050 A 
ATOM      3  C   LIG    1       -4.416  -1.994  -1.274  0.00  0.00    +0.010 A 
ATOM      4  C   LIG    1       -5.571  -2.224  -0.556  0.00  0.00    +0.030 A 
ATOM      5  C   LIG    1       -5.646  -1.880   0.786  0.00  0.00    +0.000 A 
ATOM      6  C   LIG    1       -4.577  -1.310   1.419  0.00  0.00    +0.070 A 
ATOM      7  C   LIG    1       -3.397  -1.068   0.713  0.00  0.00    +0.050 A 
ATOM      8  N   LIG    1       -2.197  -0.530   1.050  0.00  0.00    -0.480 NA
ATOM      9  C   LIG    1       -1.412  -0.526   0.013  0.00  0.00    +0.270 A 
ENDROOT
BRANCH   9  10
ATOM     10  C   LIG    1        0.002  -0.004   0.002  0.00  0.00    +0.340 C 
ATOM     11  C   LIG    1       -0.019   1.526   0.010  0.00  0.00    +0.060 C 
BRANCH  10  12
ATOM     12  N   LIG    1        0.711  -0.489   1.189  0.00  0.00    -0.710 N 
ATOM     13  H   LIG    1        0.213  -0.731   1.986  0.00  0.00    +0.420 HD
ATOM     14  C   LIG    1        2.054  -0.600   1.174  0.00  0.00    +0.610 C 
ATOM     15  O   LIG    1        2.678  -0.296   0.174  0.00  0.00    -0.520 OA
BRANCH  14  16
ATOM     16  C   LIG    1        2.763  -1.086   2.362  0.00  0.00    -0.090 A 
ATOM     17  C   LIG    1        4.114  -1.245   2.481  0.00  0.00    +0.050 A 
ATOM     18  C   LIG    1        4.351  -1.728   3.777  0.00  0.00    -0.070 A 
ATOM     19  C   LIG    1        3.150  -1.841   4.385  0.00  0.00    +0.210 A 
ATOM     20  O   LIG    1        2.196  -1.448   3.531  0.00  0.00    -0.160 OA
ENDBRANCH  14  16
ENDBRANCH  10  12
ENDBRANCH   9  10
BRANCH   1  21
ATOM     21  C   LIG    1       -1.505  -1.217  -2.411  0.00  0.00    +0.310 C 
BRANCH  21  22
ATOM     22  C   LIG    1       -0.827  -2.584  -2.525  0.00  0.00    +0.030 C 
BRANCH  22  23
ATOM     23  C   LIG    1       -0.253  -2.752  -3.933  0.00  0.00    +0.200 C 
BRANCH  23  24
ATOM     24  O   LIG    1        0.380  -4.029  -4.040  0.00  0.00    -0.310 OA
BRANCH  24  28
ATOM     25  C   LIG    1        2.839  -7.204  -6.814  0.00  0.00    +0.110 C 
ATOM     26  C   LIG    1        2.152  -5.876  -6.625  0.00  0.00    -0.030 A 
ATOM     27  C   LIG    1        1.582  -5.560  -5.407  0.00  0.00    +0.000 A 
ATOM     28  C   LIG    1        0.946  -4.339  -5.236  0.00  0.00    +0.140 A 
ATOM     29  C   LIG    1        0.893  -3.433  -6.285  0.00  0.00    -0.060 A 
ATOM     30  C   LIG    1        1.469  -3.751  -7.500  0.00  0.00    +0.080 A 
ATOM     31  C   LIG    1        2.099  -4.971  -7.670  0.00  0.00    -0.080 A 
ATOM     32 CL   LIG    1        2.822  -5.367  -9.198  0.00  0.00    -0.070 Cl
ENDBRANCH  24  28
ENDBRANCH  23  24
ENDBRANCH  22  23
ENDBRANCH  21  22
ENDBRANCH   1  21
TORSDOF 8
