REMARK  Name = ZINC9u0000000C6J.0
REMARK                            x       y       z     vdW  Elec       q    Type
REMARK                         _______ _______ _______ _____ _____    ______ ____
ROOT
ATOM      1 CL   LIG    1        2.702   0.988  -0.018  0.00  0.00    +0.030 Cl
ATOM      2  C   LIG    1        1.169   1.802   0.001  0.00  0.00    +0.250 A 
ATOM      3  C   LIG    1       -0.013   1.076   0.008  0.00  0.00    -0.010 A 
ATOM      4  C   LIG    1       -1.214   1.770   0.017  0.00  0.00    +0.250 A 
ATOM      5  N   LIG    1       -1.192   3.094   0.029  0.00  0.00    -0.500 NA
ATOM      6  C   LIG    1       -0.049   3.752   0.022  0.00  0.00    +0.400 A 
ATOM      7 CL   LIG    1       -0.072   5.488   0.030  0.00  0.00    +0.060 Cl
ATOM      8 CL   LIG    1       -2.724   0.914   0.020  0.00  0.00    +0.030 Cl
ATOM      9  N   LIG    1        1.112   3.126   0.008  0.00  0.00    -0.500 NA
ENDROOT
TORSDOF 0
