REMARK  Name = ZINCrH000004p1QL.0
REMARK                            x       y       z     vdW  Elec       q    Type
REMARK                         _______ _______ _______ _____ _____    ______ ____
ROOT
ATOM      1  C   LIG    1       -2.475   6.371   3.044  0.00  0.00    +0.080 A 
ATOM      2  C   LIG    1       -1.776   5.698   4.037  0.00  0.00    +0.040 A 
ATOM      3  C   LIG    1       -1.828   6.145   5.342  0.00  0.00    -0.050 A 
ATOM      4  C   LIG    1       -2.588   7.261   5.664  0.00  0.00    +0.210 A 
ATOM      5  C   LIG    1       -3.292   7.932   4.672  0.00  0.00    -0.060 A 
ATOM      6  C   LIG    1       -3.236   7.488   3.366  0.00  0.00    +0.070 A 
ENDROOT
BRANCH   1   8
ATOM      7  C   LIG    1       -2.440   6.808   0.704  0.00  0.00    +0.500 C 
ATOM      8  N   LIG    1       -2.418   5.921   1.718  0.00  0.00    -0.660 N 
ATOM      9  H   LIG    1       -2.362   4.971   1.530  0.00  0.00    +0.410 HD
ATOM     10  O   LIG    1       -2.594   7.989   0.934  0.00  0.00    -0.500 OA
BRANCH   7  12
ATOM     11  C   LIG    1       -3.395   5.350  -1.060  0.00  0.00    +0.100 C 
ATOM     12  C   LIG    1       -2.274   6.333  -0.717  0.00  0.00    +0.280 C 
BRANCH  12  13
ATOM     13  N   LIG    1       -2.334   7.480  -1.626  0.00  0.00    -0.370 N 
ATOM     14  C   LIG    1       -3.442   8.046  -2.136  0.00  0.00    +0.490 A 
ATOM     15  N   LIG    1       -3.073   9.042  -2.901  0.00  0.00    -0.540 NA
ATOM     16  C   LIG    1       -1.744   9.142  -2.904  0.00  0.00    +0.420 A 
ATOM     17  N   LIG    1       -1.246   8.204  -2.142  0.00  0.00    -0.310 NA
ENDBRANCH  12  13
ENDBRANCH   7  12
ENDBRANCH   1   8
BRANCH   4  18
ATOM     18  N   LIG    1       -2.645   7.711   6.987  0.00  0.00    -0.740 N 
ATOM     19  H   LIG    1       -3.176   8.492   7.212  0.00  0.00    +0.400 HD
BRANCH  18  20
ATOM     20  C   LIG    1       -1.903   7.004   8.034  0.00  0.00    +0.290 C 
ATOM     21  C   LIG    1       -1.652   7.938   9.237  0.00  0.00    +0.050 C 
ATOM     22  C   LIG    1       -1.743   6.968  10.434  0.00  0.00    +0.090 C 
ATOM     23  C   LIG    1       -2.638   5.841   9.963  0.00  0.00    -0.060 A 
ATOM     24  C   LIG    1       -3.318   4.875  10.685  0.00  0.00    -0.020 A 
ATOM     25  C   LIG    1       -4.088   3.931  10.030  0.00  0.00    +0.110 A 
ATOM     26  C   LIG    1       -4.179   3.952   8.649  0.00  0.00    -0.020 A 
ATOM     27  C   LIG    1       -3.500   4.916   7.929  0.00  0.00    +0.070 A 
ATOM     28  F   LIG    1       -4.751   2.989  10.737  0.00  0.00    -0.140 F 
ATOM     29  C   LIG    1       -2.729   5.862   8.584  0.00  0.00    -0.130 A 
ENDBRANCH  18  20
ENDBRANCH   4  18
TORSDOF 5
