REMARK  Name = ZINCrD00000hQ4pk.0
REMARK                            x       y       z     vdW  Elec       q    Type
REMARK                         _______ _______ _______ _____ _____    ______ ____
ROOT
ATOM      1  O   LIG    1        0.551   3.908  -0.034  0.00  0.00    -0.330 OA
ENDROOT
BRANCH   1   2
ATOM      2  C   LIG    1        1.674   4.652  -0.004  0.00  0.00    +0.510 C 
ATOM      3  O   LIG    1        2.760   4.110   0.041  0.00  0.00    -0.490 OA
BRANCH   2   8
ATOM      4  C   LIG    1        2.652   8.283  -0.016  0.00  0.00    +0.110 A 
ATOM      5  C   LIG    1        1.405   8.895  -0.067  0.00  0.00    +0.060 A 
ATOM      6  C   LIG    1        0.255   8.129  -0.098  0.00  0.00    +0.020 A 
ATOM      7  C   LIG    1        0.336   6.752  -0.083  0.00  0.00    +0.100 A 
ATOM      8  C   LIG    1        1.584   6.126  -0.026  0.00  0.00    -0.120 A 
ATOM      9  C   LIG    1        2.745   6.899   0.005  0.00  0.00    +0.110 A 
BRANCH   4  10
ATOM     10  N   LIG    1        3.812   9.061   0.015  0.00  0.00    -1.060 N 
ATOM     11  H   LIG    1        4.066   9.520   0.831  0.00  0.00    +0.430 HD
BRANCH  10  13
ATOM     12  C   LIG    1        3.690  10.050  -2.542  0.00  0.00    -0.280 C 
ATOM     13  S   LIG    1        4.752   9.201  -1.341  0.00  0.00    +2.600 S 
ATOM     14  O   LIG    1        4.987   7.859  -1.744  0.00  0.00    -0.940 OA
ATOM     15  O   LIG    1        5.823  10.043  -0.939  0.00  0.00    -0.950 OA
ENDBRANCH  10  13
ENDBRANCH   4  10
ENDBRANCH   2   8
ENDBRANCH   1   2
BRANCH   1  16
ATOM     16  C   LIG    1        0.715   2.466  -0.010  0.00  0.00    +0.240 C 
BRANCH  16  17
ATOM     17  C   LIG    1       -0.639   1.805  -0.049  0.00  0.00    +0.420 C 
ATOM     18  O   LIG    1       -1.644   2.484  -0.098  0.00  0.00    -0.410 OA
BRANCH  17  19
ATOM     19  C   LIG    1       -0.741   0.347  -0.034  0.00  0.00    -0.020 A 
ATOM     20  C   LIG    1       -1.904  -0.364  -0.066  0.00  0.00    +0.080 A 
ATOM     21  C   LIG    1       -1.568  -1.738  -0.037  0.00  0.00    -0.120 A 
ATOM     22  C   LIG    1       -2.330  -2.914  -0.048  0.00  0.00    +0.120 A 
ATOM     23  C   LIG    1       -1.706  -4.127  -0.010  0.00  0.00    -0.120 A 
ATOM     24  C   LIG    1       -0.319  -4.208   0.039  0.00  0.00    +0.080 A 
ATOM     25  C   LIG    1        0.451  -3.067   0.051  0.00  0.00    +0.020 A 
ATOM     26 BR   LIG    1       -2.737  -5.712  -0.025  0.00  0.00    -0.050 Br
ATOM     27  C   LIG    1       -0.162  -1.818   0.013  0.00  0.00    +0.130 A 
ATOM     28  N   LIG    1        0.325  -0.532   0.008  0.00  0.00    -0.570 N 
ATOM     29  H   LIG    1        1.262  -0.283   0.032  0.00  0.00    +0.420 HD
ENDBRANCH  17  19
ENDBRANCH  16  17
ENDBRANCH   1  16
TORSDOF 7
