REMARK  Name = ZINCrD000006V7GZ.0
REMARK                            x       y       z     vdW  Elec       q    Type
REMARK                         _______ _______ _______ _____ _____    ______ ____
ROOT
ATOM      1  N   LIG    1       -0.078   5.247   0.028  0.00  0.00    -0.560 N 
ATOM      2  C   LIG    1       -0.079   6.070   1.244  0.00  0.00    +0.310 C 
ATOM      3  C   LIG    1       -0.541   7.473   0.791  0.00  0.00    +0.020 C 
ATOM      4  C   LIG    1       -0.129   7.475  -0.699  0.00  0.00    +0.100 C 
ATOM      5  C   LIG    1       -0.094   6.011  -1.078  0.00  0.00    +0.520 C 
ATOM      6  O   LIG    1       -0.085   5.587  -2.215  0.00  0.00    -0.510 OA
ENDROOT
BRANCH   1  13
ATOM      7  C   LIG    1        1.160   3.167   0.007  0.00  0.00    +0.140 A 
ATOM      8  C   LIG    1        1.177   1.782   0.000  0.00  0.00    -0.050 A 
ATOM      9  C   LIG    1       -0.013   1.076   0.008  0.00  0.00    +0.080 A 
ATOM     10  C   LIG    1       -1.221   1.749   0.017  0.00  0.00    -0.070 A 
ATOM     11  C   LIG    1       -1.245   3.132   0.030  0.00  0.00    +0.090 A 
ATOM     12 CL   LIG    1       -2.710   0.857   0.019  0.00  0.00    -0.060 Cl
ATOM     13  C   LIG    1       -0.056   3.846   0.022  0.00  0.00    +0.120 A 
BRANCH   7  15
ATOM     14  C   LIG    1        3.538   3.099  -0.017  0.00  0.00    +0.240 C 
ATOM     15  O   LIG    1        2.329   3.862  -0.001  0.00  0.00    -0.310 OA
ENDBRANCH   7  15
ENDBRANCH   1  13
BRANCH   3  16
ATOM     16  C   LIG    1       -2.033   7.623   0.939  0.00  0.00    +0.510 C 
ATOM     17  N   LIG    1       -2.631   8.781   0.595  0.00  0.00    -0.630 N 
ATOM     18  H   LIG    1       -2.101   9.518   0.253  0.00  0.00    +0.430 HD
ATOM     19  O   LIG    1       -2.695   6.702   1.368  0.00  0.00    -0.440 OA
BRANCH  17  20
ATOM     20  C   LIG    1       -4.000   8.919   0.731  0.00  0.00    +0.290 A 
ATOM     21  N   LIG    1       -4.798   7.990   1.175  0.00  0.00    -0.490 NA
ATOM     22  C   LIG    1       -6.070   8.277   1.249  0.00  0.00    +0.210 A 
ATOM     23  C   LIG    1       -6.380   9.546   0.825  0.00  0.00    -0.370 A 
ATOM     24  C   LIG    1       -7.105   7.302   1.748  0.00  0.00    +0.170 C 
ATOM     25  S   LIG    1       -4.880  10.329   0.333  0.00  0.00    +0.190 S 
BRANCH  23  26
ATOM     26  C   LIG    1       -7.667  10.119   0.789  0.00  0.00    +0.430 C 
ATOM     27  O   LIG    1       -8.630   9.475   1.156  0.00  0.00    -0.450 OA
ATOM     28  C   LIG    1       -7.850  11.531   0.295  0.00  0.00    +0.070 C 
ENDBRANCH  23  26
ENDBRANCH  17  20
ENDBRANCH   3  16
TORSDOF 5
