REMARK  Name = ZINCrH00000No4R3.0
REMARK                            x       y       z     vdW  Elec       q    Type
REMARK                         _______ _______ _______ _____ _____    ______ ____
ROOT
ATOM      1  C   LIG    1       -0.018   1.476  -0.086  0.00  0.00    -0.120 C 
ATOM      2  C   LIG    1       -1.210   2.135   0.019  0.00  0.00    +0.240 C 
ENDROOT
BRANCH   2   3
ATOM      3  C   LIG    1       -1.232   3.598   0.138  0.00  0.00    -0.070 A 
ATOM      4  C   LIG    1       -2.317   4.328  -0.362  0.00  0.00    +0.020 A 
ATOM      5  C   LIG    1       -2.334   5.702  -0.243  0.00  0.00    +0.060 A 
ATOM      6  C   LIG    1       -1.279   6.362   0.360  0.00  0.00    -0.060 A 
ATOM      7  C   LIG    1       -0.195   5.649   0.855  0.00  0.00    +0.130 A 
ATOM      8  C   LIG    1       -0.165   4.270   0.747  0.00  0.00    +0.010 A 
BRANCH   7   9
ATOM      9  O   LIG    1        0.838   6.306   1.445  0.00  0.00    -0.310 OA
BRANCH   9  10
ATOM     10  C   LIG    1        0.742   7.729   1.522  0.00  0.00    +0.240 C 
BRANCH  10  11
ATOM     11  C   LIG    1        1.969   8.280   2.202  0.00  0.00    -0.100 A 
ATOM     12  C   LIG    1        1.984   8.443   3.575  0.00  0.00    +0.030 A 
ATOM     13  C   LIG    1        3.111   8.943   4.200  0.00  0.00    +0.010 A 
ATOM     14  C   LIG    1        4.220   9.290   3.451  0.00  0.00    +0.020 A 
ATOM     15  C   LIG    1        4.203   9.131   2.077  0.00  0.00    +0.010 A 
ATOM     16  C   LIG    1        3.078   8.626   1.453  0.00  0.00    +0.030 A 
ENDBRANCH  10  11
ENDBRANCH   9  10
ENDBRANCH   7   9
ENDBRANCH   2   3
BRANCH   1  19
ATOM     17  N   LIG    1        1.190  -0.646  -0.164  0.00  0.00    -0.720 N 
ATOM     18  H   LIG    1        2.014  -0.145  -0.264  0.00  0.00    +0.400 HD
ATOM     19  C   LIG    1        0.015   0.004  -0.054  0.00  0.00    +0.580 C 
ATOM     20  O   LIG    1       -1.019  -0.625   0.071  0.00  0.00    -0.530 OA
BRANCH  17  21
ATOM     21  C   LIG    1        1.223  -2.110  -0.133  0.00  0.00    +0.280 C 
BRANCH  21  22
ATOM     22  C   LIG    1        2.668  -2.591  -0.276  0.00  0.00    +0.030 C 
BRANCH  22  23
ATOM     23  C   LIG    1        2.702  -4.121  -0.242  0.00  0.00    +0.170 C 
BRANCH  23  24
ATOM     24  O   LIG    1        4.052  -4.570  -0.376  0.00  0.00    -0.390 OA
BRANCH  24  26
ATOM     25  C   LIG    1        5.674  -6.357  -0.506  0.00  0.00    +0.040 C 
ATOM     26  C   LIG    1        4.196  -5.992  -0.357  0.00  0.00    +0.160 C 
ENDBRANCH  24  26
ENDBRANCH  23  24
ENDBRANCH  22  23
ENDBRANCH  21  22
ENDBRANCH  17  21
ENDBRANCH   1  19
BRANCH   1  27
ATOM     27  C   LIG    1        1.199   2.216  -0.234  0.00  0.00    +0.240 C 
ATOM     28  N   LIG    1        2.164   2.804  -0.351  0.00  0.00    -0.390 NA
ENDBRANCH   1  27
TORSDOF 11
