REMARK  Name = ZINCpk000004ANOT.0
REMARK                            x       y       z     vdW  Elec       q    Type
REMARK                         _______ _______ _______ _____ _____    ______ ____
ROOT
ATOM      1  C   LIG    1        3.463   1.767  -0.069  0.00  0.00    +0.520 C 
ATOM      2  N   LIG    1        2.318   1.076   0.099  0.00  0.00    -0.670 N 
ATOM      3  H   LIG    1        2.342   0.109   0.172  0.00  0.00    +0.410 HD
ATOM      4  O   LIG    1        3.426   2.965  -0.259  0.00  0.00    -0.510 OA
ENDROOT
BRANCH   2   5
ATOM      5  C   LIG    1        1.094   1.754   0.166  0.00  0.00    +0.120 A 
ATOM      6  C   LIG    1       -0.052   1.178  -0.366  0.00  0.00    +0.020 A 
ATOM      7  C   LIG    1       -1.256   1.846  -0.301  0.00  0.00    +0.040 A 
ATOM      8  C   LIG    1       -1.334   3.103   0.300  0.00  0.00    +0.150 A 
ATOM      9  C   LIG    1       -0.187   3.670   0.833  0.00  0.00    -0.120 A 
ATOM     10  C   LIG    1       -0.542   5.020   1.413  0.00  0.00    +0.100 C 
ATOM     11  C   LIG    1       -2.051   5.168   1.158  0.00  0.00    +0.260 C 
ATOM     12  N   LIG    1       -2.446   3.938   0.468  0.00  0.00    -0.570 N 
ATOM     13  C   LIG    1       -3.697   3.651   0.054  0.00  0.00    +0.720 C 
ATOM     14  O   LIG    1       -3.943   2.563  -0.428  0.00  0.00    -0.570 OA
ATOM     15  N   LIG    1       -4.674   4.571   0.177  0.00  0.00    -0.860 N 
ATOM     16  H   LIG    1       -5.588   4.341  -0.052  0.00  0.00    +0.420 HD
ATOM     17  H   LIG    1       -4.464   5.463   0.494  0.00  0.00    +0.400 HD
ATOM     18  C   LIG    1        1.021   3.005   0.764  0.00  0.00    +0.060 A 
ENDBRANCH   2   5
BRANCH   1  23
ATOM     19  C   LIG    1        8.438   0.710   1.835  0.00  0.00    +0.550 C 
ATOM     20  N   LIG    1        7.370   0.560   1.026  0.00  0.00    -0.610 N 
ATOM     21  C   LIG    1        7.263   1.325  -0.223  0.00  0.00    +0.280 C 
ATOM     22  C   LIG    1        5.920   2.061  -0.239  0.00  0.00    +0.060 C 
ATOM     23  C   LIG    1        4.789   1.053  -0.021  0.00  0.00    -0.010 C 
ATOM     24  C   LIG    1        4.957   0.382   1.345  0.00  0.00    +0.030 C 
ATOM     25  C   LIG    1        6.290  -0.372   1.378  0.00  0.00    +0.280 C 
ATOM     26  O   LIG    1        9.277   1.554   1.583  0.00  0.00    -0.540 OA
BRANCH  19  28
ATOM     27  C   LIG    1        9.585   0.070   3.875  0.00  0.00    +0.140 C 
ATOM     28  C   LIG    1        8.588  -0.146   3.022  0.00  0.00    -0.090 C 
ENDBRANCH  19  28
ENDBRANCH   1  23
TORSDOF 3
