REMARK  Name = ZINCqH0000001OVv.0
REMARK                            x       y       z     vdW  Elec       q    Type
REMARK                         _______ _______ _______ _____ _____    ______ ____
ROOT
ATOM      1  C   LIG    1        1.156   3.146   0.166  0.00  0.00    -0.100 A 
ATOM      2  C   LIG    1        1.172   1.776  -0.017  0.00  0.00    +0.010 A 
ATOM      3  C   LIG    1       -0.014   1.083  -0.180  0.00  0.00    +0.030 A 
ATOM      4  C   LIG    1       -1.218   1.760  -0.165  0.00  0.00    +0.030 A 
ATOM      5  C   LIG    1       -1.238   3.135   0.025  0.00  0.00    +0.170 A 
ATOM      6  C   LIG    1       -0.045   3.828   0.188  0.00  0.00    +0.000 A 
ENDROOT
BRANCH   5   7
ATOM      7  N   LIG    1       -2.456   3.823   0.046  0.00  0.00    -0.690 N 
ATOM      8  H   LIG    1       -2.508   4.728  -0.299  0.00  0.00    +0.410 HD
ATOM      9  C   LIG    1       -3.557   3.228   0.547  0.00  0.00    +0.700 C 
ATOM     10  N   LIG    1       -4.752   3.848   0.470  0.00  0.00    -0.740 N 
ATOM     11  H   LIG    1       -4.819   4.722   0.055  0.00  0.00    +0.400 HD
ATOM     12  O   LIG    1       -3.473   2.133   1.067  0.00  0.00    -0.570 OA
BRANCH  10  13
ATOM     13  C   LIG    1       -5.948   3.201   1.014  0.00  0.00    +0.290 C 
BRANCH  13  14
ATOM     14  C   LIG    1       -7.161   4.109   0.800  0.00  0.00    +0.020 C 
BRANCH  14  15
ATOM     15  C   LIG    1       -8.411   3.434   1.368  0.00  0.00    +0.170 C 
ATOM     16  C   LIG    1       -9.657   4.290   1.054  0.00  0.00    +0.010 C 
ATOM     17  C   LIG    1      -10.484   4.159   2.362  0.00  0.00    +0.000 C 
ATOM     18  C   LIG    1       -9.353   4.085   3.419  0.00  0.00    +0.200 C 
ATOM     19  O   LIG    1       -8.303   3.332   2.793  0.00  0.00    -0.380 OA
ENDBRANCH  14  15
ENDBRANCH  13  14
ENDBRANCH  10  13
ENDBRANCH   5   7
BRANCH   1  20
ATOM     20  C   LIG    1        2.451   3.897   0.343  0.00  0.00    +0.350 C 
BRANCH  20  25
ATOM     21  C   LIG    1        2.594   5.442  -1.634  0.00  0.00    +0.220 A 
ATOM     22  N   LIG    1        3.249   5.484  -2.761  0.00  0.00    -0.490 NA
ATOM     23  C   LIG    1        4.033   4.400  -2.858  0.00  0.00    +0.140 A 
ATOM     24  C   LIG    1        3.860   3.661  -1.745  0.00  0.00    +0.110 A 
ATOM     25  N   LIG    1        2.950   4.324  -0.967  0.00  0.00    -0.450 N 
BRANCH  21  27
ATOM     26  C   LIG    1        2.300   7.832  -1.038  0.00  0.00    +0.040 C 
ATOM     27  C   LIG    1        1.605   6.474  -1.155  0.00  0.00    +0.070 C 
ATOM     28  C   LIG    1        0.450   6.576  -2.154  0.00  0.00    +0.040 C 
ENDBRANCH  21  27
ENDBRANCH  20  25
ENDBRANCH   1  20
TORSDOF 7
