REMARK  Name = ZINCqH0000035IP4.0
REMARK                            x       y       z     vdW  Elec       q    Type
REMARK                         _______ _______ _______ _____ _____    ______ ____
ROOT
ATOM      1  N   LIG    1        4.980   7.747  -0.558  0.00  0.00    -0.680 N 
ATOM      2  H   LIG    1        5.732   7.165  -0.749  0.00  0.00    +0.410 HD
ATOM      3  C   LIG    1        3.722   7.311  -0.766  0.00  0.00    +0.710 C 
ATOM      4  N   LIG    1        3.503   6.034  -1.135  0.00  0.00    -0.620 N 
ATOM      5  C   LIG    1        4.625   5.125  -1.421  0.00  0.00    +0.250 C 
ATOM      6  C   LIG    1        4.416   3.833  -0.624  0.00  0.00    +0.210 C 
ATOM      7  O   LIG    1        3.105   3.325  -0.885  0.00  0.00    -0.360 OA
ATOM      8  C   LIG    1        2.048   4.195  -0.473  0.00  0.00    +0.150 C 
ATOM      9  C   LIG    1        2.181   4.489   1.023  0.00  0.00    +0.030 C 
ATOM     10  C   LIG    1        2.135   5.506  -1.262  0.00  0.00    +0.300 C 
ATOM     11  O   LIG    1        2.784   8.072  -0.622  0.00  0.00    -0.560 OA
ENDROOT
BRANCH   1  15
ATOM     12  C   LIG    1        5.643  11.599   0.906  0.00  0.00    +0.100 A 
ATOM     13  C   LIG    1        6.665  10.917   0.263  0.00  0.00    -0.030 A 
ATOM     14  C   LIG    1        6.446   9.641  -0.223  0.00  0.00    +0.090 A 
ATOM     15  C   LIG    1        5.202   9.041  -0.066  0.00  0.00    +0.130 A 
ATOM     16  C   LIG    1        4.178   9.726   0.574  0.00  0.00    +0.080 A 
ATOM     17  F   LIG    1        7.442   8.977  -0.851  0.00  0.00    -0.130 F 
ATOM     18  C   LIG    1        4.399  11.000   1.064  0.00  0.00    +0.090 A 
ATOM     19  F   LIG    1        3.404  11.664   1.691  0.00  0.00    -0.120 F 
BRANCH  12  21
ATOM     20  C   LIG    1        7.160  13.408   1.188  0.00  0.00    +0.250 C 
ATOM     21  O   LIG    1        5.858  12.854   1.384  0.00  0.00    -0.300 OA
ENDBRANCH  12  21
ENDBRANCH   1  15
BRANCH   8  22
ATOM     22  C   LIG    1        0.720   3.534  -0.740  0.00  0.00    -0.080 A 
ATOM     23  C   LIG    1        0.611   2.157  -0.693  0.00  0.00    +0.040 A 
ATOM     24  C   LIG    1       -0.607   1.551  -0.939  0.00  0.00    +0.000 A 
ATOM     25  C   LIG    1       -1.715   2.322  -1.235  0.00  0.00    +0.000 A 
ATOM     26  C   LIG    1       -1.608   3.700  -1.276  0.00  0.00    +0.010 A 
ATOM     27  C   LIG    1       -0.390   4.306  -1.032  0.00  0.00    +0.020 A 
ENDBRANCH   8  22
TORSDOF 3
