REMARK  Name = ZINCrD00000hQ5On.0
REMARK                            x       y       z     vdW  Elec       q    Type
REMARK                         _______ _______ _______ _____ _____    ______ ____
ROOT
ATOM      1  C   LIG    1        0.288   1.300   2.788  0.00  0.00    +0.010 C 
ATOM      2  C   LIG    1        0.085  -0.212   2.669  0.00  0.00    +0.010 C 
ATOM      3  C   LIG    1        0.868  -0.918   3.781  0.00  0.00    +0.270 C 
ATOM      4  N   LIG    1        0.460  -0.355   5.075  0.00  0.00    -0.610 N 
ATOM      5  C   LIG    1        0.529   1.100   5.267  0.00  0.00    +0.280 C 
ATOM      6  C   LIG    1        0.032  -1.159   6.069  0.00  0.00    +0.520 C 
ATOM      7  O   LIG    1       -0.301  -0.682   7.133  0.00  0.00    -0.510 OA
ATOM      8  C   LIG    1       -0.249   1.783   4.138  0.00  0.00    +0.020 C 
ENDROOT
BRANCH   1   9
ATOM      9  C   LIG    1       -0.464   2.006   1.658  0.00  0.00    -0.070 C 
ATOM     10  C   LIG    1       -1.956   1.683   1.758  0.00  0.00    +0.020 C 
ATOM     11  C   LIG    1       -0.260   3.518   1.778  0.00  0.00    +0.030 C 
BRANCH   9  12
ATOM     12  C   LIG    1        0.074   1.524   0.309  0.00  0.00    +0.270 C 
BRANCH  12  14
ATOM     13  C   LIG    1       -0.340   1.931  -2.057  0.00  0.00    +0.540 C 
ATOM     14  N   LIG    1       -0.646   2.201  -0.773  0.00  0.00    -0.720 N 
ATOM     15  H   LIG    1       -1.343   2.842  -0.565  0.00  0.00    +0.400 HD
ATOM     16  O   LIG    1        0.534   1.127  -2.318  0.00  0.00    -0.540 OA
BRANCH  13  18
ATOM     17  C   LIG    1       -0.760   2.344  -4.411  0.00  0.00    +0.140 C 
ATOM     18  C   LIG    1       -1.062   2.610  -3.144  0.00  0.00    -0.090 C 
ENDBRANCH  13  18
ENDBRANCH  12  14
ENDBRANCH   9  12
ENDBRANCH   1   9
BRANCH   6  19
ATOM     19  C   LIG    1       -0.034  -2.650   5.857  0.00  0.00    +0.170 C 
ATOM     20  C   LIG    1        1.380  -3.198   5.653  0.00  0.00    +0.050 C 
BRANCH  19  21
ATOM     21  O   LIG    1       -0.624  -3.268   7.003  0.00  0.00    -0.290 OA
BRANCH  21  22
ATOM     22  C   LIG    1       -1.226  -4.471   6.812  0.00  0.00    +0.120 A 
ATOM     23  C   LIG    1       -1.158  -5.095   5.575  0.00  0.00    -0.080 A 
ATOM     24  C   LIG    1       -1.766  -6.321   5.386  0.00  0.00    +0.050 A 
ATOM     25  C   LIG    1       -2.452  -6.921   6.425  0.00  0.00    -0.120 A 
ATOM     26  C   LIG    1       -2.527  -6.299   7.658  0.00  0.00    +0.050 A 
ATOM     27  C   LIG    1       -3.120  -8.255   6.215  0.00  0.00    +0.100 C 
ATOM     28  C   LIG    1       -1.915  -5.075   7.854  0.00  0.00    -0.010 A 
ENDBRANCH  21  22
ENDBRANCH  19  21
ENDBRANCH   6  19
TORSDOF 7
