REMARK  Name = ZINCb80000004Tcs.0
REMARK                            x       y       z     vdW  Elec       q    Type
REMARK                         _______ _______ _______ _____ _____    ______ ____
ROOT
ATOM      1  C   LIG    1       -3.593  -0.782  -0.789  0.00  0.00    -0.080 A 
ATOM      2  N   LIG    1       -2.582   0.013  -0.893  0.00  0.00    -0.380 NA
ATOM      3  C   LIG    1       -2.462   0.956   0.019  0.00  0.00    +0.120 A 
ATOM      4  C   LIG    1       -3.423   0.955   0.947  0.00  0.00    -0.030 A 
ATOM      5  S   LIG    1       -4.536  -0.359   0.574  0.00  0.00    +0.120 S 
ENDROOT
BRANCH   1   6
ATOM      6  C   LIG    1       -3.900  -1.917  -1.731  0.00  0.00    +0.410 C 
BRANCH   6   7
ATOM      7  N   LIG    1       -3.246  -3.142  -1.251  0.00  0.00    -0.630 N 
ATOM      8  H   LIG    1       -3.451  -3.902  -1.882  0.00  0.00    +0.440 HD
ATOM      9  H   LIG    1       -3.590  -3.368  -0.330  0.00  0.00    +0.430 HD
ATOM     10  H   LIG    1       -2.248  -2.997  -1.212  0.00  0.00    +0.450 HD
ENDBRANCH   6   7
ENDBRANCH   1   6
BRANCH   3  11
ATOM     11  C   LIG    1       -1.330   1.951   0.019  0.00  0.00    +0.050 C 
BRANCH  11  12
ATOM     12  C   LIG    1       -0.015   1.215   0.009  0.00  0.00    +0.500 C 
ATOM     13  O   LIG    1        1.033   1.839   0.002  0.00  0.00    -0.690 OA
ATOM     14  O   LIG    1        0.002  -0.004   0.002  0.00  0.00    -0.690 OA
ENDBRANCH  11  12
ENDBRANCH   3  11
TORSDOF 4
