REMARK  Name = ZINCrg00000BqqOI.0
REMARK                            x       y       z     vdW  Elec       q    Type
REMARK                         _______ _______ _______ _____ _____    ______ ____
ROOT
ATOM      1  N   LIG    1       -5.170  -2.998   0.497  0.00  0.00    -0.530 NA
ATOM      2  C   LIG    1       -5.843  -2.634   1.752  0.00  0.00    +0.160 C 
ATOM      3  C   LIG    1       -7.357  -2.587   1.521  0.00  0.00    +0.280 C 
ATOM      4  N   LIG    1       -7.781  -3.868   0.937  0.00  0.00    -0.610 N 
ATOM      5  C   LIG    1       -7.061  -4.367  -0.244  0.00  0.00    +0.300 C 
ATOM      6  C   LIG    1       -8.802  -4.567   1.471  0.00  0.00    +0.570 C 
ATOM      7  O   LIG    1       -9.184  -5.590   0.936  0.00  0.00    -0.530 OA
ATOM      8  C   LIG    1       -5.558  -4.344   0.056  0.00  0.00    +0.170 C 
ENDROOT
BRANCH   6   9
ATOM      9  C   LIG    1       -9.456  -4.092   2.706  0.00  0.00    -0.110 A 
ATOM     10  C   LIG    1       -9.656  -4.977   3.774  0.00  0.00    +0.030 A 
ATOM     11  C   LIG    1      -10.254  -4.548   4.921  0.00  0.00    +0.060 A 
ATOM     12  C   LIG    1      -10.682  -3.221   5.032  0.00  0.00    -0.090 A 
ATOM     13  C   LIG    1      -11.345  -2.455   6.087  0.00  0.00    -0.060 A 
ATOM     14  C   LIG    1      -11.508  -1.204   5.622  0.00  0.00    +0.230 A 
ATOM     15  N   LIG    1      -11.005  -1.107   4.356  0.00  0.00    -0.590 N 
ATOM     16  H   LIG    1      -11.010  -0.302   3.815  0.00  0.00    +0.420 HD
ATOM     17  C   LIG    1      -10.491  -2.324   3.962  0.00  0.00    +0.090 A 
ATOM     18  C   LIG    1       -9.877  -2.767   2.801  0.00  0.00    +0.030 A 
ENDBRANCH   6   9
BRANCH   1  19
ATOM     19  C   LIG    1       -3.712  -2.887   0.630  0.00  0.00    +0.160 C 
BRANCH  19  20
ATOM     20  C   LIG    1       -3.329  -1.422   0.845  0.00  0.00    +0.270 C 
BRANCH  20  23
ATOM     21  O   LIG    1       -1.999   0.891   1.244  0.00  0.00    -0.520 OA
ATOM     22  C   LIG    1       -1.305  -0.106   1.175  0.00  0.00    +0.600 C 
ATOM     23  N   LIG    1       -1.874  -1.311   0.978  0.00  0.00    -0.730 N 
ATOM     24  H   LIG    1       -1.321  -2.106   0.923  0.00  0.00    +0.390 HD
BRANCH  22  25
ATOM     25  C   LIG    1        0.153   0.005   1.308  0.00  0.00    -0.100 A 
ATOM     26  C   LIG    1        0.872   1.148   1.513  0.00  0.00    +0.270 A 
ATOM     27  N   LIG    1        2.162   0.813   1.570  0.00  0.00    -0.500 NA
ATOM     28  C   LIG    1        2.288  -0.480   1.416  0.00  0.00    +0.440 A 
ATOM     29  N   LIG    1        1.070  -1.027   1.254  0.00  0.00    -0.560 N 
ATOM     30  H   LIG    1        0.873  -1.967   1.119  0.00  0.00    +0.420 HD
ENDBRANCH  22  25
ENDBRANCH  20  23
ENDBRANCH  19  20
ENDBRANCH   1  19
TORSDOF 5
