REMARK  Name = ZINCqH0000007fYZ.0
REMARK                            x       y       z     vdW  Elec       q    Type
REMARK                         _______ _______ _______ _____ _____    ______ ____
ROOT
ATOM      1  O   LIG    1       -1.500   5.614   4.930  0.00  0.00    -0.340 OA
ENDROOT
BRANCH   1   2
ATOM      2  C   LIG    1       -2.207   5.349   3.814  0.00  0.00    +0.520 C 
ATOM      3  O   LIG    1       -3.402   5.568   3.786  0.00  0.00    -0.470 OA
BRANCH   2   8
ATOM      4  C   LIG    1       -0.787   2.893   1.346  0.00  0.00    +0.090 A 
ATOM      5  C   LIG    1       -0.258   3.749   0.393  0.00  0.00    +0.030 A 
ATOM      6  C   LIG    1       -0.361   5.120   0.550  0.00  0.00    +0.040 A 
ATOM      7  C   LIG    1       -0.994   5.647   1.659  0.00  0.00    +0.140 A 
ATOM      8  C   LIG    1       -1.532   4.792   2.628  0.00  0.00    -0.140 A 
ATOM      9  F   LIG    1       -1.093   6.986   1.808  0.00  0.00    -0.120 F 
ATOM     10  C   LIG    1       -1.430   3.407   2.463  0.00  0.00    +0.140 A 
ATOM     11  F   LIG    1       -1.951   2.573   3.389  0.00  0.00    -0.110 F 
BRANCH   4  13
ATOM     12  C   LIG    1       -0.013   1.086   0.008  0.00  0.00    +0.250 C 
ATOM     13  O   LIG    1       -0.682   1.547   1.184  0.00  0.00    -0.300 OA
ENDBRANCH   4  13
ENDBRANCH   2   8
ENDBRANCH   1   2
BRANCH   1  14
ATOM     14  C   LIG    1       -2.231   6.161   6.059  0.00  0.00    +0.260 C 
BRANCH  14  15
ATOM     15  C   LIG    1       -1.268   6.395   7.225  0.00  0.00    +0.240 C 
BRANCH  15  16
ATOM     16  O   LIG    1       -0.320   7.402   6.865  0.00  0.00    -0.300 OA
BRANCH  16  17
ATOM     17  C   LIG    1        0.612   7.731   7.794  0.00  0.00    +0.190 A 
ATOM     18  C   LIG    1        0.630   7.117   9.033  0.00  0.00    -0.150 A 
ATOM     19  C   LIG    1        1.600   7.473   9.963  0.00  0.00    +0.330 A 
ATOM     20  N   LIG    1        2.504   8.388   9.705  0.00  0.00    -0.500 NA
ATOM     21  C   LIG    1        2.541   9.025   8.529  0.00  0.00    +0.160 A 
ATOM     22  C   LIG    1        3.515  10.004   8.267  0.00  0.00    +0.040 A 
ATOM     23  C   LIG    1        3.530  10.637   7.062  0.00  0.00    +0.040 A 
ATOM     24  C   LIG    1        2.593  10.331   6.079  0.00  0.00    +0.000 A 
ATOM     25  C   LIG    1        1.634   9.387   6.297  0.00  0.00    +0.060 A 
ATOM     26  C   LIG    1        1.590   8.716   7.527  0.00  0.00    -0.120 A 
ENDBRANCH  16  17
ENDBRANCH  15  16
ENDBRANCH  14  15
ENDBRANCH   1  14
TORSDOF 7
