REMARK  Name = ZINCrH000004ly6m.0
REMARK                            x       y       z     vdW  Elec       q    Type
REMARK                         _______ _______ _______ _____ _____    ______ ____
ROOT
ATOM      1  N   LIG    1       -6.843   5.212   1.342  0.00  0.00    -0.710 N 
ATOM      2  H   LIG    1       -7.501   4.500   1.344  0.00  0.00    +0.400 HD
ATOM      3  C   LIG    1       -5.528   4.915   1.329  0.00  0.00    +0.580 C 
ATOM      4  O   LIG    1       -4.704   5.808   1.325  0.00  0.00    -0.530 OA
ENDROOT
BRANCH   3   5
ATOM      5  C   LIG    1       -5.090   3.505   1.318  0.00  0.00    -0.210 A 
ATOM      6  C   LIG    1       -6.031   2.468   1.321  0.00  0.00    +0.380 A 
ATOM      7  N   LIG    1       -5.663   1.206   1.311  0.00  0.00    -0.460 NA
ATOM      8  C   LIG    1       -4.388   0.852   1.297  0.00  0.00    +0.230 A 
ATOM      9  O   LIG    1       -3.727  -0.319   1.284  0.00  0.00    +0.090 OA
ATOM     10  N   LIG    1       -2.526  -0.184   1.269  0.00  0.00    -0.310 NA
ATOM     11  C   LIG    1       -2.143   1.058   1.278  0.00  0.00    +0.080 A 
ATOM     12  C   LIG    1       -3.381   1.842   1.294  0.00  0.00    -0.220 A 
ATOM     13  C   LIG    1       -3.728   3.184   1.304  0.00  0.00    +0.230 A 
BRANCH  11  14
ATOM     14  C   LIG    1       -0.729   1.579   1.267  0.00  0.00    +0.080 C 
ATOM     15  C   LIG    1        0.011   1.072   2.506  0.00  0.00    +0.040 C 
ATOM     16  C   LIG    1       -0.013   1.086   0.008  0.00  0.00    +0.040 C 
ENDBRANCH  11  14
ENDBRANCH   3   5
BRANCH   1  17
ATOM     17  C   LIG    1       -7.278   6.611   1.353  0.00  0.00    +0.320 C 
BRANCH  17  18
ATOM     18  C   LIG    1       -8.651   6.705   1.966  0.00  0.00    -0.080 A 
ATOM     19  C   LIG    1       -9.606   5.750   1.672  0.00  0.00    +0.070 A 
ATOM     20  C   LIG    1      -10.864   5.831   2.238  0.00  0.00    +0.030 A 
ATOM     21  C   LIG    1      -11.173   6.877   3.091  0.00  0.00    +0.070 A 
ATOM     22  C   LIG    1      -10.217   7.838   3.381  0.00  0.00    +0.070 A 
ATOM     23  F   LIG    1      -10.516   8.859   4.214  0.00  0.00    -0.130 F 
ATOM     24  F   LIG    1      -12.405   6.960   3.640  0.00  0.00    -0.130 F 
ATOM     25  C   LIG    1       -8.957   7.751   2.818  0.00  0.00    +0.040 A 
ENDBRANCH  17  18
BRANCH  17  26
ATOM     26  C   LIG    1       -7.322   7.143  -0.081  0.00  0.00    +0.190 C 
BRANCH  26  28
ATOM     27  C   LIG    1       -8.449   6.863  -2.178  0.00  0.00    +0.200 C 
ATOM     28  O   LIG    1       -8.325   6.441  -0.819  0.00  0.00    -0.390 OA
ENDBRANCH  26  28
ENDBRANCH  17  26
ENDBRANCH   1  17
TORSDOF 6
