REMARK  Name = ZINCrH000004riLr.0
REMARK                            x       y       z     vdW  Elec       q    Type
REMARK                         _______ _______ _______ _____ _____    ______ ____
ROOT
ATOM      1  N   LIG    1       -4.268   6.053  -2.019  0.00  0.00    -0.500 N 
ATOM      2  C   LIG    1       -4.007   6.080  -0.574  0.00  0.00    +0.180 C 
ATOM      3  C   LIG    1       -2.669   5.397  -0.283  0.00  0.00    +0.040 C 
ATOM      4  C   LIG    1       -2.721   3.950  -0.784  0.00  0.00    +0.230 C 
ATOM      5  C   LIG    1       -3.042   3.948  -2.281  0.00  0.00    +0.030 C 
ATOM      6  C   LIG    1       -4.369   4.674  -2.514  0.00  0.00    +0.180 C 
ENDROOT
BRANCH   1  12
ATOM      7  C   LIG    1       -9.106   6.759  -1.511  0.00  0.00    +0.090 C 
ATOM      8  C   LIG    1       -7.776   7.149  -2.103  0.00  0.00    -0.090 A 
ATOM      9  C   LIG    1       -7.693   8.232  -2.958  0.00  0.00    +0.040 A 
ATOM     10  C   LIG    1       -6.475   8.595  -3.504  0.00  0.00    -0.010 A 
ATOM     11  C   LIG    1       -5.336   7.874  -3.195  0.00  0.00    +0.120 A 
ATOM     12  C   LIG    1       -5.418   6.784  -2.334  0.00  0.00    +0.050 A 
ATOM     13  F   LIG    1       -4.146   8.229  -3.728  0.00  0.00    -0.130 F 
ATOM     14  C   LIG    1       -6.643   6.421  -1.794  0.00  0.00    +0.010 A 
ENDBRANCH   1  12
BRANCH   4  15
ATOM     15  N   LIG    1       -1.423   3.308  -0.561  0.00  0.00    -0.720 N 
ATOM     16  H   LIG    1       -0.619   3.847  -0.503  0.00  0.00    +0.400 HD
ATOM     17  C   LIG    1       -1.347   1.968  -0.437  0.00  0.00    +0.560 C 
ATOM     18  O   LIG    1       -2.355   1.293  -0.510  0.00  0.00    -0.510 OA
BRANCH  17  19
ATOM     19  C   LIG    1       -0.037   1.320  -0.212  0.00  0.00    -0.090 A 
ATOM     20  C   LIG    1        1.135   2.075  -0.258  0.00  0.00    +0.070 A 
ATOM     21  C   LIG    1        2.355   1.463  -0.052  0.00  0.00    +0.090 A 
ATOM     22  C   LIG    1        2.417   0.104   0.199  0.00  0.00    -0.020 A 
ATOM     23  C   LIG    1        1.257  -0.650   0.245  0.00  0.00    +0.090 A 
ATOM     24  C   LIG    1        0.032  -0.051   0.041  0.00  0.00    -0.020 A 
ATOM     25  C   LIG    1       -1.229  -0.874   0.092  0.00  0.00    +0.140 C 
BRANCH  22  26
ATOM     26  N   LIG    1        3.728  -0.546   0.419  0.00  0.00    +0.020 N 
ATOM     27  O   LIG    1        4.750   0.116   0.379  0.00  0.00    -0.150 OA
ATOM     28  O   LIG    1        3.785  -1.742   0.640  0.00  0.00    -0.150 OA
ENDBRANCH  22  26
ENDBRANCH  17  19
ENDBRANCH   4  15
TORSDOF 4
