REMARK  Name = ZINCnE000001Q0Lv.1
REMARK                            x       y       z     vdW  Elec       q    Type
REMARK                         _______ _______ _______ _____ _____    ______ ____
ROOT
ATOM      1  N   LIG    1       -4.818   1.709   0.055  0.00  0.00    -0.690 NA
ATOM      2  C   LIG    1       -5.159   0.405   0.052  0.00  0.00    +0.470 C 
ATOM      3  O   LIG    1       -4.297  -0.448   0.041  0.00  0.00    -0.570 OA
ENDROOT
BRANCH   1  10
ATOM      4  C   LIG    1        2.476   3.913  -0.002  0.00  0.00    +0.080 C 
ATOM      5  C   LIG    1        1.170   3.160   0.007  0.00  0.00    -0.140 A 
ATOM      6  C   LIG    1        1.169   1.774   0.000  0.00  0.00    +0.020 A 
ATOM      7  C   LIG    1       -0.013   1.076   0.008  0.00  0.00    +0.010 A 
ATOM      8  C   LIG    1       -1.246   1.760   0.018  0.00  0.00    +0.150 A 
ATOM      9  N   LIG    1       -2.494   1.250   0.032  0.00  0.00    -0.560 NA
ATOM     10  C   LIG    1       -3.482   2.075   0.045  0.00  0.00    +0.400 A 
ATOM     11  S   LIG    1       -2.897   3.733   0.047  0.00  0.00    -0.040 S 
ATOM     12  C   LIG    1       -1.231   3.158   0.029  0.00  0.00    -0.210 A 
ATOM     13  C   LIG    1       -0.022   3.850   0.022  0.00  0.00    +0.060 A 
ENDBRANCH   1  10
BRANCH   2  14
ATOM     14  C   LIG    1       -6.613   0.006   0.062  0.00  0.00    +0.040 C 
BRANCH  14  15
ATOM     15  C   LIG    1       -6.723  -1.520   0.057  0.00  0.00    +0.290 C 
BRANCH  15  16
ATOM     16  N   LIG    1       -8.136  -1.908   0.067  0.00  0.00    -0.710 N 
ATOM     17  H   LIG    1       -8.826  -1.226   0.076  0.00  0.00    +0.400 HD
ATOM     18  C   LIG    1       -8.477  -3.212   0.064  0.00  0.00    +0.650 C 
ATOM     19  O   LIG    1       -7.612  -4.066   0.053  0.00  0.00    -0.570 OA
BRANCH  18  20
ATOM     20  O   LIG    1       -9.775  -3.568   0.074  0.00  0.00    -0.370 OA
BRANCH  20  21
ATOM     21  C   LIG    1      -10.068  -4.990   0.070  0.00  0.00    +0.140 C 
ATOM     22  C   LIG    1       -9.476  -5.629  -1.188  0.00  0.00    +0.040 C 
ATOM     23  C   LIG    1      -11.584  -5.198   0.082  0.00  0.00    +0.080 C 
ATOM     24  C   LIG    1       -9.454  -5.641   1.311  0.00  0.00    +0.040 C 
ENDBRANCH  20  21
ENDBRANCH  18  20
ENDBRANCH  15  16
ENDBRANCH  14  15
ENDBRANCH   2  14
TORSDOF 6
