REMARK  Name = ZINCqH0000051vFL.0
REMARK                            x       y       z     vdW  Elec       q    Type
REMARK                         _______ _______ _______ _____ _____    ______ ____
ROOT
ATOM      1  C   LIG    1       -1.323   1.953  -0.007  0.00  0.00    -0.010 C 
ATOM      2  C   LIG    1       -1.402   2.856   1.226  0.00  0.00    +0.040 C 
ATOM      3  C   LIG    1       -2.720   3.633   1.208  0.00  0.00    +0.030 C 
ATOM      4  C   LIG    1       -3.891   2.646   1.256  0.00  0.00    +0.260 C 
ATOM      5  N   LIG    1       -3.743   1.683   0.156  0.00  0.00    -0.610 N 
ATOM      6  C   LIG    1       -4.748   1.479  -0.718  0.00  0.00    +0.560 C 
ATOM      7  O   LIG    1       -4.578   0.761  -1.681  0.00  0.00    -0.530 OA
ATOM      8  C   LIG    1       -2.478   0.947   0.028  0.00  0.00    +0.310 C 
ENDROOT
BRANCH   1  10
ATOM      9  O   LIG    1        0.002   0.000   0.019  0.00  0.00    -0.460 OA
ATOM     10  C   LIG    1       -0.010   1.213  -0.005  0.00  0.00    +0.520 C 
ATOM     11  N   LIG    1        1.150   1.898  -0.034  0.00  0.00    -0.640 N 
ATOM     12  H   LIG    1        1.140   2.868  -0.053  0.00  0.00    +0.420 HD
BRANCH  11  13
ATOM     13  C   LIG    1        2.361   1.215  -0.038  0.00  0.00    +0.270 A 
ATOM     14  N   LIG    1        2.485  -0.075  -0.009  0.00  0.00    -0.480 NA
ATOM     15  C   LIG    1        3.714  -0.557  -0.023  0.00  0.00    +0.250 A 
ATOM     16  C   LIG    1        4.673   0.370  -0.054  0.00  0.00    -0.090 A 
ATOM     17  S   LIG    1        3.902   1.954  -0.074  0.00  0.00    +0.120 S 
ENDBRANCH  11  13
ENDBRANCH   1  10
BRANCH   6  18
ATOM     18  C   LIG    1       -6.083   2.144  -0.499  0.00  0.00    -0.130 C 
ATOM     19  C   LIG    1       -6.998   2.307  -1.715  0.00  0.00    +0.090 C 
ATOM     20  C   LIG    1       -6.293   3.527  -1.118  0.00  0.00    +0.070 C 
BRANCH  18  21
ATOM     21  C   LIG    1       -6.735   1.870   0.831  0.00  0.00    -0.030 A 
ATOM     22  C   LIG    1       -6.500   0.674   1.483  0.00  0.00    +0.030 A 
ATOM     23  C   LIG    1       -7.098   0.422   2.704  0.00  0.00    +0.040 A 
ATOM     24  C   LIG    1       -7.931   1.366   3.273  0.00  0.00    +0.030 A 
ATOM     25  C   LIG    1       -8.166   2.563   2.622  0.00  0.00    -0.030 A 
ATOM     26 CL   LIG    1       -9.213   3.750   3.337  0.00  0.00    -0.060 Cl
ATOM     27  C   LIG    1       -7.564   2.817   1.402  0.00  0.00    +0.030 A 
ENDBRANCH  18  21
ENDBRANCH   6  18
TORSDOF 4
