REMARK  Name = ZINCrg000000s2vO.0
REMARK                            x       y       z     vdW  Elec       q    Type
REMARK                         _______ _______ _______ _____ _____    ______ ____
ROOT
ATOM      1  N   LIG    1       -0.018   1.465   0.010  0.00  0.00    -0.470 N 
ATOM      2  C   LIG    1        1.348   2.008   0.000  0.00  0.00    +0.220 C 
ATOM      3  C   LIG    1        2.103   1.504   1.232  0.00  0.00    +0.200 C 
ATOM      4  N   LIG    1        2.123   0.034   1.224  0.00  0.00    -0.530 NA
ATOM      5  C   LIG    1        0.757  -0.508   1.234  0.00  0.00    +0.190 C 
ATOM      6  C   LIG    1        0.002  -0.004   0.002  0.00  0.00    +0.220 C 
ENDROOT
BRANCH   1  10
ATOM      7  C   LIG    1       -1.842   5.250  -2.554  0.00  0.00    +0.140 C 
ATOM      8  C   LIG    1       -1.650   3.775  -2.313  0.00  0.00    +0.190 A 
ATOM      9  C   LIG    1       -0.910   3.334  -1.234  0.00  0.00    -0.110 A 
ATOM     10  C   LIG    1       -0.755   1.958  -1.054  0.00  0.00    +0.360 A 
ATOM     11  N   LIG    1       -1.333   1.127  -1.918  0.00  0.00    -0.560 NA
ATOM     12  C   LIG    1       -2.035   1.593  -2.931  0.00  0.00    +0.360 A 
ATOM     13  N   LIG    1       -2.195   2.885  -3.131  0.00  0.00    -0.530 NA
BRANCH  12  14
ATOM     14  C   LIG    1       -2.674   0.619  -3.887  0.00  0.00    +0.060 C 
ATOM     15  C   LIG    1       -2.130   0.858  -5.297  0.00  0.00    +0.050 C 
ATOM     16  C   LIG    1       -4.191   0.822  -3.885  0.00  0.00    +0.050 C 
ENDBRANCH  12  14
ENDBRANCH   1  10
BRANCH   4  17
ATOM     17  C   LIG    1        2.905  -0.488   2.352  0.00  0.00    +0.310 C 
BRANCH  17  18
ATOM     18  C   LIG    1        4.205   0.267   2.455  0.00  0.00    +0.430 A 
ATOM     19  N   LIG    1        5.272  -0.167   1.807  0.00  0.00    -0.620 NA
ATOM     20  C   LIG    1        6.421   0.501   1.890  0.00  0.00    +0.630 A 
ATOM     21  N   LIG    1        6.497   1.599   2.635  0.00  0.00    -0.650 NA
ATOM     22  C   LIG    1        5.423   2.029   3.289  0.00  0.00    +0.630 A 
ATOM     23  N   LIG    1        4.277   1.359   3.196  0.00  0.00    -0.640 NA
BRANCH  22  24
ATOM     24  N   LIG    1        5.497   3.168   4.064  0.00  0.00    -0.810 N 
ATOM     25  H   LIG    1        6.333   3.656   4.131  0.00  0.00    +0.420 HD
ATOM     26  H   LIG    1        4.713   3.482   4.541  0.00  0.00    +0.420 HD
ENDBRANCH  22  24
BRANCH  20  27
ATOM     27  N   LIG    1        7.533   0.050   1.209  0.00  0.00    -0.580 N 
ATOM     28  C   LIG    1        7.449  -1.161   0.388  0.00  0.00    +0.310 C 
ATOM     29  C   LIG    1        8.798   0.782   1.306  0.00  0.00    +0.310 C 
ENDBRANCH  20  27
ENDBRANCH  17  18
ENDBRANCH   4  17
TORSDOF 6
