REMARK  Name = ZINCpk00000HkXgI.0
REMARK                            x       y       z     vdW  Elec       q    Type
REMARK                         _______ _______ _______ _____ _____    ______ ____
ROOT
ATOM      1  N   LIG    1        1.188   2.509  -0.188  0.00  0.00    -0.530 NA
ATOM      2  C   LIG    1        2.008   1.723  -1.110  0.00  0.00    +0.170 C 
ATOM      3  C   LIG    1        1.776   0.268  -1.043  0.00  0.00    +0.020 C 
ATOM      4  C   LIG    1        0.311  -0.047  -1.438  0.00  0.00    +0.280 C 
ATOM      5  N   LIG    1       -0.582   0.434  -0.407  0.00  0.00    -0.590 N 
ATOM      6  C   LIG    1       -1.141   1.802  -0.403  0.00  0.00    +0.260 C 
ATOM      7  C   LIG    1       -0.920  -0.403   0.594  0.00  0.00    +0.530 C 
ATOM      8  O   LIG    1       -0.561  -1.561   0.564  0.00  0.00    -0.540 OA
ATOM      9  C   LIG    1       -0.081   2.848  -0.797  0.00  0.00    +0.180 C 
ENDROOT
BRANCH   7  10
ATOM     10  C   LIG    1       -1.744   0.101   1.751  0.00  0.00    -0.030 C 
ATOM     11  C   LIG    1       -0.876   0.986   2.648  0.00  0.00    +0.080 C 
BRANCH  10  12
ATOM     12  C   LIG    1       -2.266  -1.088   2.561  0.00  0.00    +0.340 C 
BRANCH  12  13
ATOM     13  N   LIG    1       -3.163  -0.606   3.613  0.00  0.00    -0.370 N 
ATOM     14  C   LIG    1       -4.435  -1.007   3.818  0.00  0.00    +0.220 A 
ATOM     15  C   LIG    1       -4.916  -0.327   4.884  0.00  0.00    -0.120 A 
ATOM     16  C   LIG    1       -3.903   0.520   5.347  0.00  0.00    +0.220 A 
ATOM     17  N   LIG    1       -2.850   0.350   4.589  0.00  0.00    -0.290 NA
ENDBRANCH  12  13
ENDBRANCH  10  12
ENDBRANCH   7  10
BRANCH   1  18
ATOM     18  C   LIG    1        1.899   3.716   0.253  0.00  0.00    +0.260 C 
BRANCH  18  21
ATOM     19  N   LIG    1        0.428   4.899   3.372  0.00  0.00    -0.370 N 
ATOM     20  C   LIG    1        1.294   4.115   2.697  0.00  0.00    +0.250 A 
ATOM     21  C   LIG    1        1.136   4.367   1.377  0.00  0.00    -0.240 A 
ATOM     22  C   LIG    1        0.143   5.343   1.241  0.00  0.00    +0.230 A 
ATOM     23  N   LIG    1       -0.286   5.658   2.436  0.00  0.00    -0.290 NA
BRANCH  19  25
ATOM     24  C   LIG    1        0.435   6.390   5.311  0.00  0.00    +0.040 C 
ATOM     25  C   LIG    1        0.263   4.949   4.827  0.00  0.00    +0.320 C 
ENDBRANCH  19  25
ENDBRANCH  18  21
ENDBRANCH   1  18
TORSDOF 6
