REMARK  Name = ZINCtV000002FSUP.0
REMARK                            x       y       z     vdW  Elec       q    Type
REMARK                         _______ _______ _______ _____ _____    ______ ____
ROOT
ATOM      1  C   LIG    1        1.298  11.067   1.617  0.00  0.00    +0.130 C 
ATOM      2  C   LIG    1        2.244  10.024   1.080  0.00  0.00    +0.020 A 
ATOM      3  C   LIG    1        1.916   8.755   0.783  0.00  0.00    +0.000 A 
ATOM      4  C   LIG    1        3.144   8.113   0.296  0.00  0.00    -0.260 A 
ATOM      5  C   LIG    1        4.128   9.084   0.352  0.00  0.00    +0.120 A 
ATOM      6  C   LIG    1        5.571   8.904  -0.042  0.00  0.00    +0.150 C 
ATOM      7  N   LIG    1        3.571  10.218   0.816  0.00  0.00    -0.390 N 
ENDROOT
BRANCH   7   8
ATOM      8  C   LIG    1        4.257  11.427   1.008  0.00  0.00    +0.080 A 
ATOM      9  C   LIG    1        4.783  12.107  -0.082  0.00  0.00    +0.070 A 
ATOM     10  C   LIG    1        5.454  13.299   0.107  0.00  0.00    -0.040 A 
ATOM     11  C   LIG    1        5.611  13.811   1.387  0.00  0.00    +0.120 A 
ATOM     12  C   LIG    1        5.090  13.130   2.477  0.00  0.00    +0.030 A 
ATOM     13  C   LIG    1        4.414  11.940   2.288  0.00  0.00    +0.070 A 
BRANCH  11  14
ATOM     14  O   LIG    1        6.277  14.982   1.573  0.00  0.00    -0.320 OA
BRANCH  14  15
ATOM     15  C   LIG    1        6.787  15.631   0.406  0.00  0.00    +0.600 C 
ATOM     16  F   LIG    1        5.731  15.932  -0.459  0.00  0.00    -0.200 F 
ATOM     17  F   LIG    1        7.692  14.782  -0.240  0.00  0.00    -0.200 F 
ENDBRANCH  14  15
ENDBRANCH  11  14
ENDBRANCH   7   8
BRANCH   4  18
ATOM     18  C   LIG    1        3.297   6.727  -0.151  0.00  0.00    +0.450 C 
ATOM     19  O   LIG    1        4.379   6.328  -0.531  0.00  0.00    -0.450 OA
BRANCH  18  20
ATOM     20  C   LIG    1        2.112   5.797  -0.141  0.00  0.00    -0.010 C 
ATOM     21  C   LIG    1        1.314   5.972  -1.434  0.00  0.00    +0.070 C 
BRANCH  20  22
ATOM     22  S   LIG    1        2.690   4.082  -0.015  0.00  0.00    -0.090 S 
BRANCH  22  23
ATOM     23  C   LIG    1        1.196   3.175   0.205  0.00  0.00    -0.130 A 
ATOM     24  C   LIG    1        0.562   2.602  -0.891  0.00  0.00    +0.080 A 
ATOM     25  C   LIG    1       -0.609   1.892  -0.716  0.00  0.00    +0.020 A 
ATOM     26  C   LIG    1       -1.154   1.754   0.549  0.00  0.00    -0.010 A 
ATOM     27  C   LIG    1       -0.522   2.318   1.643  0.00  0.00    +0.020 A 
ATOM     28 CL   LIG    1       -2.630   0.866   0.764  0.00  0.00    -0.060 Cl
ATOM     29  C   LIG    1        0.649   3.030   1.474  0.00  0.00    +0.080 A 
ENDBRANCH  22  23
ENDBRANCH  20  22
ENDBRANCH  18  20
ENDBRANCH   4  18
TORSDOF 7
