REMARK  Name = ZINCrD000000CxtS.0
REMARK                            x       y       z     vdW  Elec       q    Type
REMARK                         _______ _______ _______ _____ _____    ______ ____
ROOT
ATOM      1  O   LIG    1       -2.373   4.574  -1.673  0.00  0.00    -0.520 OA
ATOM      2  C   LIG    1       -2.204   5.756  -1.442  0.00  0.00    +0.600 C 
ATOM      3  N   LIG    1       -3.079   6.668  -1.911  0.00  0.00    -0.610 N 
ATOM      4  C   LIG    1       -2.837   8.104  -1.720  0.00  0.00    +0.260 C 
ATOM      5  C   LIG    1       -4.071   8.727  -1.059  0.00  0.00    +0.030 C 
ATOM      6  C   LIG    1       -5.311   8.404  -1.895  0.00  0.00    +0.000 C 
ATOM      7  C   LIG    1       -5.508   6.887  -1.952  0.00  0.00    +0.040 C 
ATOM      8  C   LIG    1       -4.288   6.243  -2.628  0.00  0.00    +0.290 C 
ENDROOT
BRANCH   7   9
ATOM      9  C   LIG    1       -6.748   6.571  -2.748  0.00  0.00    -0.080 A 
ATOM     10  C   LIG    1       -6.845   6.975  -4.067  0.00  0.00    +0.010 A 
ATOM     11  C   LIG    1       -7.981   6.680  -4.798  0.00  0.00    +0.000 A 
ATOM     12  C   LIG    1       -9.024   5.991  -4.208  0.00  0.00    +0.000 A 
ATOM     13  C   LIG    1       -8.929   5.592  -2.888  0.00  0.00    +0.000 A 
ATOM     14  C   LIG    1       -7.792   5.882  -2.158  0.00  0.00    +0.010 A 
ENDBRANCH   7   9
BRANCH   2  15
ATOM     15  C   LIG    1       -1.042   6.191  -0.648  0.00  0.00    -0.270 A 
ATOM     16  C   LIG    1       -0.142   7.185  -0.975  0.00  0.00    +0.290 A 
ATOM     17  N   LIG    1        0.765   7.261   0.010  0.00  0.00    -0.460 N 
ATOM     18  H   LIG    1        1.515   7.876   0.033  0.00  0.00    +0.450 HD
ATOM     19  N   LIG    1        0.466   6.319   0.999  0.00  0.00    -0.270 NA
ATOM     20  C   LIG    1       -0.613   5.657   0.648  0.00  0.00    +0.170 A 
BRANCH  20  21
ATOM     21  C   LIG    1       -1.269   4.570   1.415  0.00  0.00    -0.020 A 
ATOM     22  C   LIG    1       -0.500   3.675   2.157  0.00  0.00    +0.040 A 
ATOM     23  C   LIG    1       -1.117   2.666   2.869  0.00  0.00    +0.010 A 
ATOM     24  C   LIG    1       -2.494   2.542   2.847  0.00  0.00    +0.020 A 
ATOM     25  C   LIG    1       -3.261   3.424   2.107  0.00  0.00    +0.010 A 
ATOM     26  C   LIG    1       -2.657   4.440   1.396  0.00  0.00    +0.040 A 
ENDBRANCH  20  21
ENDBRANCH   2  15
BRANCH   6  27
ATOM     27  C   LIG    1       -6.540   9.054  -1.256  0.00  0.00    +0.170 C 
BRANCH  27  28
ATOM     28  O   LIG    1       -6.409  10.476  -1.310  0.00  0.00    -0.570 OA
ATOM     29  H   LIG    1       -7.154  10.954  -0.921  0.00  0.00    +0.380 HD
ENDBRANCH  27  28
ENDBRANCH   6  27
TORSDOF 5
