REMARK  Name = ZINCnE000001TCFo.0
REMARK                            x       y       z     vdW  Elec       q    Type
REMARK                         _______ _______ _______ _____ _____    ______ ____
ROOT
ATOM      1  S   LIG    1       -2.618  -0.256   1.026  0.00  0.00    +2.690 S 
ATOM      2  O   LIG    1       -1.464  -1.067   0.859  0.00  0.00    -0.940 OA
ATOM      3  O   LIG    1       -3.940  -0.733   0.818  0.00  0.00    -0.960 OA
ENDROOT
BRANCH   1   6
ATOM      4  C   LIG    1       -1.315   0.912   4.654  0.00  0.00    -0.130 A 
ATOM      5  C   LIG    1       -1.358   0.425   3.345  0.00  0.00    +0.180 A 
ATOM      6  C   LIG    1       -2.563   0.353   2.679  0.00  0.00    -0.680 A 
ATOM      7  C   LIG    1       -3.731   0.751   3.307  0.00  0.00    +0.110 A 
ATOM      8  C   LIG    1       -3.698   1.230   4.604  0.00  0.00    +0.010 A 
ATOM      9  C   LIG    1       -2.499   1.313   5.282  0.00  0.00    -0.010 A 
ATOM     10 BR   LIG    1       -2.456   1.967   7.056  0.00  0.00    -0.010 Br
BRANCH   4  12
ATOM     11  O   LIG    1        1.003   0.647   4.819  0.00  0.00    -0.680 OA
ATOM     12  C   LIG    1       -0.029   0.998   5.371  0.00  0.00    +0.510 C 
ATOM     13  O   LIG    1        0.004   1.421   6.518  0.00  0.00    -0.650 OA
ENDBRANCH   4  12
ENDBRANCH   1   6
BRANCH   1  14
ATOM     14  N   LIG    1       -2.426   1.044   0.019  0.00  0.00    -1.050 N 
ATOM     15  H   LIG    1       -3.149   1.312  -0.570  0.00  0.00    +0.420 HD
BRANCH  14  16
ATOM     16  C   LIG    1       -1.224   1.755   0.017  0.00  0.00    +0.140 A 
ATOM     17  C   LIG    1       -0.013   1.076   0.008  0.00  0.00    +0.010 A 
ATOM     18  C   LIG    1        1.172   1.784   0.000  0.00  0.00    +0.050 A 
ATOM     19  C   LIG    1        1.159   3.169   0.009  0.00  0.00    -0.100 A 
ATOM     20  C   LIG    1        2.305   4.159   0.003  0.00  0.00    +0.080 C 
ATOM     21  C   LIG    1        1.684   5.497   0.458  0.00  0.00    +0.020 C 
ATOM     22  C   LIG    1        0.209   5.341   0.030  0.00  0.00    +0.070 C 
ATOM     23  C   LIG    1       -0.045   3.848   0.024  0.00  0.00    -0.080 A 
ATOM     24  C   LIG    1       -1.236   3.143   0.031  0.00  0.00    +0.000 A 
ENDBRANCH  14  16
ENDBRANCH   1  14
TORSDOF 4
