REMARK  Name = ZINCqH0000033eZ2.0
REMARK                            x       y       z     vdW  Elec       q    Type
REMARK                         _______ _______ _______ _____ _____    ______ ____
ROOT
ATOM      1  N   LIG    1       -2.860   0.312   2.260  0.00  0.00    -0.590 N 
ATOM      2  C   LIG    1       -2.595  -0.399   3.374  0.00  0.00    +0.530 C 
ATOM      3  O   LIG    1       -1.709  -1.227   3.368  0.00  0.00    -0.510 OA
ENDROOT
BRANCH   2   4
ATOM      4  C   LIG    1       -3.399  -0.165   4.627  0.00  0.00    +0.180 C 
ATOM      5  C   LIG    1       -3.064   1.213   5.245  0.00  0.00    +0.100 C 
ATOM      6  C   LIG    1       -3.137   0.917   6.730  0.00  0.00    -0.170 A 
ATOM      7  C   LIG    1       -3.225   1.736   7.833  0.00  0.00    +0.060 A 
ATOM      8  C   LIG    1       -3.299   1.185   9.100  0.00  0.00    -0.020 A 
ATOM      9  C   LIG    1       -3.284  -0.189   9.253  0.00  0.00    +0.050 A 
ATOM     10  C   LIG    1       -3.191  -1.012   8.149  0.00  0.00    +0.000 A 
ATOM     11  C   LIG    1       -3.112  -0.465   6.871  0.00  0.00    +0.100 A 
ATOM     12  O   LIG    1       -3.007  -1.082   5.662  0.00  0.00    -0.270 OA
ENDBRANCH   2   4
BRANCH   1  14
ATOM     13  C   LIG    1       -5.247   0.654   1.852  0.00  0.00    +0.010 C 
ATOM     14  C   LIG    1       -3.930   1.313   2.268  0.00  0.00    +0.270 C 
ENDBRANCH   1  14
BRANCH   1  15
ATOM     15  C   LIG    1       -2.078   0.085   1.043  0.00  0.00    +0.340 C 
BRANCH  15  16
ATOM     16  C   LIG    1       -0.880   0.999   1.037  0.00  0.00    +0.510 C 
ATOM     17  N   LIG    1       -0.011   0.966   0.007  0.00  0.00    -0.680 N 
ATOM     18  H   LIG    1       -0.193   0.405  -0.763  0.00  0.00    +0.410 HD
ATOM     19  O   LIG    1       -0.697   1.765   1.960  0.00  0.00    -0.500 OA
BRANCH  17  20
ATOM     20  C   LIG    1        1.152   1.745   0.046  0.00  0.00    +0.150 A 
ATOM     21  C   LIG    1        1.104   3.085  -0.317  0.00  0.00    -0.020 A 
ATOM     22  C   LIG    1        2.253   3.853  -0.271  0.00  0.00    +0.050 A 
ATOM     23  C   LIG    1        3.451   3.285   0.124  0.00  0.00    +0.060 A 
ATOM     24  C   LIG    1        3.503   1.951   0.480  0.00  0.00    +0.050 A 
ATOM     25 CL   LIG    1       -0.397   3.797  -0.821  0.00  0.00    -0.050 Cl
ATOM     26  C   LIG    1        2.357   1.178   0.443  0.00  0.00    -0.020 A 
ATOM     27 CL   LIG    1        2.423  -0.498   0.890  0.00  0.00    -0.040 Cl
ENDBRANCH  17  20
ENDBRANCH  15  16
ENDBRANCH   1  15
TORSDOF 5
