REMARK  Name = ZINCqH0000001aHE.0
REMARK                            x       y       z     vdW  Elec       q    Type
REMARK                         _______ _______ _______ _____ _____    ______ ____
ROOT
ATOM      1  C   LIG    1       -2.263   2.943  -2.749  0.00  0.00    +0.520 C 
ATOM      2  N   LIG    1       -2.674   4.193  -3.043  0.00  0.00    -0.670 N 
ATOM      3  H   LIG    1       -2.507   4.917  -2.419  0.00  0.00    +0.410 HD
ATOM      4  O   LIG    1       -2.546   2.023  -3.487  0.00  0.00    -0.510 OA
ENDROOT
BRANCH   2   5
ATOM      5  C   LIG    1       -3.338   4.446  -4.244  0.00  0.00    +0.140 A 
ATOM      6  C   LIG    1       -4.176   3.498  -4.800  0.00  0.00    +0.030 A 
ATOM      7  C   LIG    1       -4.854   3.720  -5.999  0.00  0.00    +0.040 A 
ATOM      8  C   LIG    1       -4.708   4.898  -6.667  0.00  0.00    -0.090 A 
ATOM      9  C   LIG    1       -5.271   5.462  -7.949  0.00  0.00    +0.100 C 
ATOM     10  C   LIG    1       -4.656   6.872  -8.080  0.00  0.00    +0.100 C 
ATOM     11  C   LIG    1       -3.775   7.036  -6.866  0.00  0.00    -0.070 A 
ATOM     12  C   LIG    1       -2.971   8.030  -6.396  0.00  0.00    +0.020 A 
ATOM     13  C   LIG    1       -2.267   7.862  -5.201  0.00  0.00    +0.010 A 
ATOM     14  C   LIG    1       -2.349   6.717  -4.461  0.00  0.00    +0.000 A 
ATOM     15  C   LIG    1       -3.868   5.864  -6.122  0.00  0.00    -0.070 A 
ATOM     16  C   LIG    1       -3.174   5.676  -4.914  0.00  0.00    -0.050 A 
ENDBRANCH   2   5
BRANCH   1  21
ATOM     17  C   LIG    1       -1.202   0.710   2.088  0.00  0.00    +0.520 C 
ATOM     18  N   LIG    1       -0.970   1.486   1.011  0.00  0.00    -0.620 N 
ATOM     19  C   LIG    1       -0.266   0.949  -0.161  0.00  0.00    +0.280 C 
ATOM     20  C   LIG    1       -1.119   1.198  -1.409  0.00  0.00    +0.060 C 
ATOM     21  C   LIG    1       -1.452   2.689  -1.505  0.00  0.00    +0.010 C 
ATOM     22  C   LIG    1       -2.260   3.112  -0.275  0.00  0.00    +0.030 C 
ATOM     23  C   LIG    1       -1.420   2.885   0.985  0.00  0.00    +0.290 C 
ATOM     24  O   LIG    1       -0.883  -0.461   2.072  0.00  0.00    -0.530 OA
BRANCH  17  26
ATOM     25  C   LIG    1       -2.156   0.178   4.314  0.00  0.00    +0.050 C 
ATOM     26  C   LIG    1       -1.856   1.295   3.312  0.00  0.00    -0.020 C 
ATOM     27  C   LIG    1       -0.916   2.317   3.954  0.00  0.00    +0.040 C 
ENDBRANCH  17  26
ENDBRANCH   1  21
TORSDOF 3
