REMARK  Name = ZINCuL00000004EV.0
REMARK                            x       y       z     vdW  Elec       q    Type
REMARK                         _______ _______ _______ _____ _____    ______ ____
ROOT
ATOM      1  C   LIG    1        5.455   3.309  -1.914  0.00  0.00    +0.370 A 
ATOM      2  C   LIG    1        6.274   3.787  -0.899  0.00  0.00    -0.180 A 
ATOM      3  C   LIG    1        7.425   4.482  -1.212  0.00  0.00    +0.060 A 
ATOM      4  C   LIG    1        7.764   4.702  -2.534  0.00  0.00    -0.160 A 
ATOM      5  C   LIG    1        6.952   4.227  -3.548  0.00  0.00    +0.130 A 
ATOM      6  C   LIG    1        5.802   3.526  -3.242  0.00  0.00    -0.680 A 
ENDROOT
BRANCH   6   7
ATOM      7  S   LIG    1        4.771   2.916  -4.534  0.00  0.00    +2.640 S 
ATOM      8  O   LIG    1        5.408   3.267  -5.755  0.00  0.00    -1.070 OA
ATOM      9  O   LIG    1        3.445   3.307  -4.208  0.00  0.00    -1.020 OA
BRANCH   7  10
ATOM     10  N   LIG    1        4.805   1.262  -4.448  0.00  0.00    -1.070 NA
BRANCH  10  11
ATOM     11  C   LIG    1        4.071   0.500  -5.359  0.00  0.00    +0.290 A 
ATOM     12  C   LIG    1        3.308   1.127  -6.336  0.00  0.00    -0.190 A 
ATOM     13  C   LIG    1        2.587   0.371  -7.239  0.00  0.00    +0.020 A 
ATOM     14  C   LIG    1        2.616  -1.010  -7.165  0.00  0.00    -0.170 A 
ATOM     15  C   LIG    1        3.371  -1.638  -6.191  0.00  0.00    +0.010 A 
ATOM     16  C   LIG    1        4.098  -0.887  -5.288  0.00  0.00    -0.100 A 
ENDBRANCH  10  11
ENDBRANCH   7  10
ENDBRANCH   6   7
BRANCH   1  17
ATOM     17  N   LIG    1        4.290   2.605  -1.601  0.00  0.00    -1.040 NA
BRANCH  17  19
ATOM     18  O   LIG    1        3.588   3.614   0.538  0.00  0.00    -1.040 OA
ATOM     19  S   LIG    1        3.882   2.341  -0.018  0.00  0.00    +2.600 S 
ATOM     20  O   LIG    1        4.874   1.472   0.512  0.00  0.00    -1.030 OA
BRANCH  19  21
ATOM     21  C   LIG    1        2.372   1.434  -0.013  0.00  0.00    -0.600 A 
ATOM     22  C   LIG    1        1.162   2.102   0.002  0.00  0.00    +0.110 A 
ATOM     23  C   LIG    1       -0.017   1.384   0.010  0.00  0.00    -0.030 A 
ATOM     24  C   LIG    1        0.002  -0.004   0.002  0.00  0.00    -0.050 A 
ATOM     25  C   LIG    1       -1.321  -0.724   0.026  0.00  0.00    +0.060 C 
ATOM     26  C   LIG    1       -1.151  -2.175  -0.418  0.00  0.00    +0.010 C 
ATOM     27  C   LIG    1       -0.015  -2.802   0.399  0.00  0.00    +0.000 C 
ATOM     28  C   LIG    1        1.303  -2.173  -0.045  0.00  0.00    +0.070 C 
ATOM     29  C   LIG    1        1.207  -0.670  -0.019  0.00  0.00    -0.110 A 
ATOM     30  C   LIG    1        2.393   0.054  -0.024  0.00  0.00    +0.130 A 
ENDBRANCH  19  21
ENDBRANCH  17  19
ENDBRANCH   1  17
TORSDOF 6
