REMARK  Name = ZINCqH0000034IoC.0
REMARK                            x       y       z     vdW  Elec       q    Type
REMARK                         _______ _______ _______ _____ _____    ______ ____
ROOT
ATOM      1  C   LIG    1        3.494   1.206  -1.754  0.00  0.00    +0.200 C 
ATOM      2  N   LIG    1        4.608   0.258  -1.886  0.00  0.00    -0.540 NA
ATOM      3  C   LIG    1        5.031   0.136  -3.288  0.00  0.00    +0.170 C 
ATOM      4  C   LIG    1        6.303  -0.716  -3.361  0.00  0.00    +0.280 C 
ATOM      5  N   LIG    1        6.051  -1.992  -2.673  0.00  0.00    -0.630 N 
ATOM      6  C   LIG    1        5.495  -1.951  -1.312  0.00  0.00    +0.310 C 
ATOM      7  C   LIG    1        6.323  -3.167  -3.274  0.00  0.00    +0.710 C 
ATOM      8  N   LIG    1        6.737  -3.188  -4.556  0.00  0.00    -0.750 N 
ATOM      9  H   LIG    1        6.911  -2.356  -5.024  0.00  0.00    +0.390 HD
ATOM     10  O   LIG    1        6.194  -4.208  -2.660  0.00  0.00    -0.590 OA
ATOM     11  C   LIG    1        4.255  -1.050  -1.320  0.00  0.00    +0.130 C 
ENDROOT
BRANCH   8  12
ATOM     12  C   LIG    1        6.926  -4.468  -5.245  0.00  0.00    +0.270 C 
BRANCH  12  13
ATOM     13  C   LIG    1        7.396  -4.212  -6.678  0.00  0.00    -0.020 C 
ATOM     14  C   LIG    1        6.293  -3.492  -7.456  0.00  0.00    +0.010 C 
ATOM     15  C   LIG    1        6.764  -3.236  -8.889  0.00  0.00    +0.010 C 
ATOM     16  C   LIG    1        7.080  -4.571  -9.568  0.00  0.00    +0.010 C 
ATOM     17  C   LIG    1        8.183  -5.290  -8.790  0.00  0.00    -0.060 C 
ATOM     18  C   LIG    1        9.441  -4.420  -8.765  0.00  0.00    +0.010 C 
ATOM     19  C   LIG    1        8.499  -6.625  -9.469  0.00  0.00    +0.030 C 
ATOM     20  C   LIG    1        7.712  -5.546  -7.356  0.00  0.00    +0.040 C 
ENDBRANCH  12  13
ENDBRANCH   8  12
BRANCH  11  21
ATOM     21  C   LIG    1        3.749  -0.867   0.112  0.00  0.00    +0.080 C 
BRANCH  21  22
ATOM     22  C   LIG    1        3.254  -2.188   0.643  0.00  0.00    -0.090 A 
ATOM     23  C   LIG    1        4.134  -3.058   1.259  0.00  0.00    +0.010 A 
ATOM     24  C   LIG    1        3.680  -4.270   1.746  0.00  0.00    +0.010 A 
ATOM     25  C   LIG    1        2.347  -4.611   1.618  0.00  0.00    +0.000 A 
ATOM     26  C   LIG    1        1.467  -3.740   1.002  0.00  0.00    +0.000 A 
ATOM     27  C   LIG    1        1.921  -2.529   0.515  0.00  0.00    +0.000 A 
ENDBRANCH  21  22
ENDBRANCH  11  21
TORSDOF 4
