REMARK  Name = ZINCrD00000hQ51H.0
REMARK                            x       y       z     vdW  Elec       q    Type
REMARK                         _______ _______ _______ _____ _____    ______ ____
ROOT
ATOM      1  C   LIG    1        0.813  -3.605  -1.984  0.00  0.00    +0.150 C 
ATOM      2  N   LIG    1       -0.271  -3.546  -1.291  0.00  0.00    -0.210 NA
ATOM      3  N   LIG    1       -0.182  -2.733  -0.163  0.00  0.00    -0.840 N 
ATOM      4  C   LIG    1        1.173  -2.161  -0.094  0.00  0.00    +0.300 C 
ATOM      5  C   LIG    1        1.875  -2.746  -1.335  0.00  0.00    +0.110 C 
ENDROOT
BRANCH   4   6
ATOM      6  C   LIG    1        1.118  -0.657  -0.175  0.00  0.00    +0.060 A 
ATOM      7  N   LIG    1        0.581  -0.082  -1.227  0.00  0.00    -0.400 NA
ATOM      8  C   LIG    1        0.532   1.252  -1.300  0.00  0.00    +0.070 A 
ATOM      9  C   LIG    1       -0.036   1.898  -2.412  0.00  0.00    +0.060 A 
ATOM     10  C   LIG    1       -0.071   3.258  -2.458  0.00  0.00    +0.040 A 
ATOM     11  C   LIG    1        0.449   4.024  -1.416  0.00  0.00    +0.050 A 
ATOM     12  C   LIG    1        1.007   3.433  -0.324  0.00  0.00    +0.050 A 
ATOM     13  C   LIG    1        1.060   2.031  -0.240  0.00  0.00    +0.090 A 
ATOM     14  N   LIG    1        1.603   1.422   0.820  0.00  0.00    -0.420 NA
ATOM     15  C   LIG    1        1.639   0.111   0.869  0.00  0.00    +0.290 A 
ENDBRANCH   4   6
BRANCH   1  19
ATOM     16  C   LIG    1        1.325  -5.863  -5.542  0.00  0.00    -0.060 A 
ATOM     17  C   LIG    1        0.107  -5.880  -4.884  0.00  0.00    +0.010 A 
ATOM     18  C   LIG    1       -0.066  -5.149  -3.727  0.00  0.00    +0.050 A 
ATOM     19  C   LIG    1        0.991  -4.389  -3.220  0.00  0.00    -0.040 A 
ATOM     20  C   LIG    1        2.215  -4.372  -3.893  0.00  0.00    +0.050 A 
ATOM     21  C   LIG    1        2.376  -5.112  -5.045  0.00  0.00    +0.010 A 
BRANCH  16  23
ATOM     22  C   LIG    1        1.129  -5.803  -8.013  0.00  0.00    +0.030 C 
ATOM     23  C   LIG    1        1.506  -6.664  -6.805  0.00  0.00    +0.050 C 
ENDBRANCH  16  23
ENDBRANCH   1  19
BRANCH   3  24
ATOM     24  S   LIG    1       -1.401  -2.455   0.923  0.00  0.00    +2.630 S 
ATOM     25  O   LIG    1       -0.733  -1.994   2.090  0.00  0.00    -0.940 OA
ATOM     26  O   LIG    1       -2.144  -3.666   0.934  0.00  0.00    -0.920 OA
ATOM     27  C   LIG    1       -2.374  -1.117   0.178  0.00  0.00    -0.270 C 
ENDBRANCH   3  24
TORSDOF 4
