REMARK  Name = ZINCpk00000xIgKa.0
REMARK                            x       y       z     vdW  Elec       q    Type
REMARK                         _______ _______ _______ _____ _____    ______ ____
ROOT
ATOM      1  S   LIG    1       -6.258   3.221  -0.894  0.00  0.00    -0.100 S 
ENDROOT
BRANCH   1   2
ATOM      2  C   LIG    1       -4.690   2.380  -1.245  0.00  0.00    +0.070 C 
BRANCH   2   8
ATOM      3  C   LIG    1       -0.729   1.579   1.268  0.00  0.00    +0.150 C 
ATOM      4  C   LIG    1       -2.154   1.019   1.293  0.00  0.00    +0.270 C 
ATOM      5  N   LIG    1       -2.826   1.380   0.037  0.00  0.00    -0.610 N 
ATOM      6  C   LIG    1       -2.178   1.033  -1.236  0.00  0.00    +0.270 C 
ATOM      7  C   LIG    1       -0.752   1.593  -1.232  0.00  0.00    +0.030 C 
ATOM      8  C   LIG    1       -4.013   2.017   0.052  0.00  0.00    +0.540 C 
ATOM      9  O   LIG    1       -4.537   2.298   1.109  0.00  0.00    -0.510 OA
ATOM     10  C   LIG    1       -0.013   1.086   0.008  0.00  0.00    -0.010 C 
ATOM     11  C   LIG    1        1.423   1.615  -0.003  0.00  0.00    +0.040 C 
BRANCH   3  13
ATOM     12  C   LIG    1       -0.132   2.006   3.550  0.00  0.00    +0.200 C 
ATOM     13  O   LIG    1       -0.020   1.131   2.425  0.00  0.00    -0.380 OA
ENDBRANCH   3  13
ENDBRANCH   2   8
ENDBRANCH   1   2
BRANCH   1  14
ATOM     14  C   LIG    1       -6.913   3.572  -2.549  0.00  0.00    +0.070 C 
BRANCH  14  15
ATOM     15  C   LIG    1       -8.236   4.282  -2.426  0.00  0.00    +0.540 C 
ATOM     16  N   LIG    1       -8.912   4.644  -3.534  0.00  0.00    -0.610 N 
ATOM     17  C   LIG    1       -8.372   4.354  -4.869  0.00  0.00    +0.270 C 
ATOM     18  C   LIG    1       -8.328   5.655  -5.676  0.00  0.00    +0.030 C 
ATOM     19  C   LIG    1       -9.720   6.292  -5.686  0.00  0.00    -0.010 C 
ATOM     20  C   LIG    1      -10.140   6.627  -4.253  0.00  0.00    +0.150 C 
ATOM     21  C   LIG    1       -9.688   7.574  -6.521  0.00  0.00    +0.040 C 
ATOM     22  C   LIG    1      -10.207   5.332  -3.430  0.00  0.00    +0.270 C 
ATOM     23  O   LIG    1       -8.693   4.527  -1.329  0.00  0.00    -0.510 OA
BRANCH  20  24
ATOM     24  O   LIG    1      -11.426   7.250  -4.267  0.00  0.00    -0.380 OA
ATOM     25  C   LIG    1      -11.634   8.176  -3.199  0.00  0.00    +0.200 C 
ENDBRANCH  20  24
ENDBRANCH  14  15
ENDBRANCH   1  14
TORSDOF 6
