REMARK  Name = ZINCrD0000074fpK.0
REMARK                            x       y       z     vdW  Elec       q    Type
REMARK                         _______ _______ _______ _____ _____    ______ ____
ROOT
ATOM      1  C   LIG    1       -1.871   4.776  -0.127  0.00  0.00    +0.030 C 
ATOM      2  C   LIG    1       -0.746   3.771  -0.382  0.00  0.00    -0.020 C 
ATOM      3  C   LIG    1        0.483   4.159   0.446  0.00  0.00    +0.030 C 
ATOM      4  C   LIG    1        1.681   3.311   0.007  0.00  0.00    +0.100 C 
ATOM      5  C   LIG    1        1.268   1.858  -0.000  0.00  0.00    +0.070 A 
ATOM      6  C   LIG    1       -0.018   1.445   0.010  0.00  0.00    -0.150 A 
ATOM      7  C   LIG    1        0.002  -0.004   0.002  0.00  0.00    -0.120 A 
ATOM      8  C   LIG    1       -1.010  -0.963   0.008  0.00  0.00    +0.160 A 
ATOM      9  C   LIG    1       -0.603  -2.302  -0.003  0.00  0.00    -0.160 A 
ATOM     10  C   LIG    1        0.751  -2.656  -0.018  0.00  0.00    +0.090 A 
ATOM     11  C   LIG    1        1.752  -1.720  -0.024  0.00  0.00    +0.000 A 
ATOM     12  C   LIG    1        1.373  -0.377  -0.014  0.00  0.00    +0.130 A 
ATOM     13  N   LIG    1        2.104   0.772  -0.015  0.00  0.00    -0.580 N 
ATOM     14  H   LIG    1        3.074   0.816  -0.026  0.00  0.00    +0.420 HD
ATOM     15  C   LIG    1       -1.210   2.368   0.021  0.00  0.00    +0.100 C 
ENDROOT
BRANCH   9  16
ATOM     16  C   LIG    1       -1.625  -3.365   0.002  0.00  0.00    +0.520 C 
ATOM     17  O   LIG    1       -2.804  -3.074   0.015  0.00  0.00    -0.510 OA
BRANCH  16  18
ATOM     18  O   LIG    1       -1.251  -4.660  -0.007  0.00  0.00    -0.330 OA
BRANCH  18  19
ATOM     19  C   LIG    1       -2.311  -5.652  -0.001  0.00  0.00    +0.260 C 
BRANCH  19  20
ATOM     20  C   LIG    1       -1.706  -7.033  -0.013  0.00  0.00    +0.520 C 
ATOM     21  N   LIG    1       -2.505  -8.118  -0.010  0.00  0.00    -0.730 N 
ATOM     22  H   LIG    1       -3.469  -8.011  -0.000  0.00  0.00    +0.410 HD
ATOM     23  O   LIG    1       -0.501  -7.167  -0.026  0.00  0.00    -0.510 OA
BRANCH  21  24
ATOM     24  C   LIG    1       -1.917  -9.460  -0.022  0.00  0.00    +0.400 C 
BRANCH  24  25
ATOM     25  C   LIG    1       -3.017 -10.490  -0.016  0.00  0.00    -0.050 A 
ATOM     26  C   LIG    1       -3.605 -11.019  -1.104  0.00  0.00    -0.030 A 
ATOM     27  C   LIG    1       -4.573 -11.939  -0.639  0.00  0.00    -0.070 A 
ATOM     28  C   LIG    1       -4.524 -11.911   0.705  0.00  0.00    +0.190 A 
ATOM     29  O   LIG    1       -3.580 -11.032   1.077  0.00  0.00    -0.170 OA
ENDBRANCH  24  25
ENDBRANCH  21  24
ENDBRANCH  19  20
ENDBRANCH  18  19
ENDBRANCH  16  18
ENDBRANCH   9  16
TORSDOF 6
