REMARK  Name = ZINCvU0000000EHd.0
REMARK                            x       y       z     vdW  Elec       q    Type
REMARK                         _______ _______ _______ _____ _____    ______ ____
ROOT
ATOM      1  N   LIG    1       -2.421   1.482  -0.349  0.00  0.00    -0.600 N 
ATOM      2  C   LIG    1       -3.131   1.720  -1.469  0.00  0.00    +0.520 C 
ATOM      3  O   LIG    1       -2.761   2.569  -2.252  0.00  0.00    -0.490 OA
ENDROOT
BRANCH   1   4
ATOM      4  C   LIG    1       -1.273   2.329  -0.015  0.00  0.00    +0.280 C 
ATOM      5  C   LIG    1       -0.739   1.942   1.366  0.00  0.00    +0.060 C 
BRANCH   4  10
ATOM      6  C   LIG    1        1.463   3.055  -2.519  0.00  0.00    +0.140 A 
ATOM      7  C   LIG    1        1.791   1.775  -2.946  0.00  0.00    +0.010 A 
ATOM      8  C   LIG    1        1.129   0.682  -2.420  0.00  0.00    +0.020 A 
ATOM      9  C   LIG    1        0.140   0.863  -1.471  0.00  0.00    +0.000 A 
ATOM     10  C   LIG    1       -0.190   2.136  -1.044  0.00  0.00    -0.070 A 
ATOM     11  C   LIG    1        0.469   3.232  -1.566  0.00  0.00    +0.000 A 
BRANCH   6  14
ATOM     12  C   LIG    1        3.371   5.295  -4.867  0.00  0.00    +0.110 C 
ATOM     13  C   LIG    1        2.567   4.141  -4.325  0.00  0.00    +0.510 C 
ATOM     14  N   LIG    1        2.132   4.163  -3.050  0.00  0.00    -0.670 N 
ATOM     15  H   LIG    1        2.283   4.948  -2.499  0.00  0.00    +0.410 HD
ATOM     16  O   LIG    1        2.311   3.193  -5.037  0.00  0.00    -0.520 OA
ENDBRANCH   6  14
ENDBRANCH   4  10
ENDBRANCH   1   4
BRANCH   2  17
ATOM     17  C   LIG    1       -4.385   0.933  -1.748  0.00  0.00    +0.220 C 
BRANCH  17  18
ATOM     18  O   LIG    1       -4.912   1.311  -3.021  0.00  0.00    -0.280 OA
BRANCH  18  19
ATOM     19  C   LIG    1       -6.050   0.689  -3.428  0.00  0.00    +0.140 A 
ATOM     20  C   LIG    1       -6.645  -0.268  -2.619  0.00  0.00    -0.070 A 
ATOM     21  C   LIG    1       -7.806  -0.894  -3.031  0.00  0.00    +0.070 A 
ATOM     22  C   LIG    1       -8.368  -0.576  -4.253  0.00  0.00    +0.010 A 
ATOM     23  C   LIG    1       -7.774   0.374  -5.064  0.00  0.00    -0.050 A 
ATOM     24 BR   LIG    1       -8.546   0.807  -6.735  0.00  0.00    -0.040 Br
ATOM     25  C   LIG    1       -6.616   1.008  -4.654  0.00  0.00    +0.020 A 
ENDBRANCH  18  19
ENDBRANCH  17  18
ENDBRANCH   2  17
BRANCH   1  26
ATOM     26  C   LIG    1       -2.796   0.375   0.535  0.00  0.00    +0.320 C 
BRANCH  26  27
ATOM     27  C   LIG    1       -2.005  -0.854   0.164  0.00  0.00    -0.110 A 
ATOM     28  C   LIG    1       -2.435  -1.667  -0.867  0.00  0.00    +0.010 A 
ATOM     29  C   LIG    1       -1.707  -2.791  -1.210  0.00  0.00    +0.010 A 
ATOM     30  C   LIG    1       -0.555  -3.108  -0.514  0.00  0.00    +0.010 A 
ATOM     31  C   LIG    1       -0.128  -2.297   0.521  0.00  0.00    +0.010 A 
ATOM     32  C   LIG    1       -0.853  -1.170   0.860  0.00  0.00    +0.020 A 
ENDBRANCH  26  27
ENDBRANCH   1  26
TORSDOF 8
