REMARK  Name = ZINCtV00000L6l76.0
REMARK                            x       y       z     vdW  Elec       q    Type
REMARK                         _______ _______ _______ _____ _____    ______ ____
ROOT
ATOM      1  C   LIG    1        2.489   1.042  -0.016  0.00  0.00    +0.080 C 
ATOM      2  S   LIG    1        2.613   0.066   1.493  0.00  0.00    -0.080 S 
ATOM      3  C   LIG    1        4.278  -0.494   1.544  0.00  0.00    -0.160 A 
ATOM      4  C   LIG    1        4.871  -0.593   2.811  0.00  0.00    +0.060 A 
ATOM      5  C   LIG    1        6.209  -0.890   2.942  0.00  0.00    +0.000 A 
ATOM      6  C   LIG    1        6.998  -1.054   1.815  0.00  0.00    +0.030 A 
ATOM      7  C   LIG    1        6.423  -1.009   0.566  0.00  0.00    +0.020 A 
ATOM      8  C   LIG    1        5.035  -0.816   0.432  0.00  0.00    +0.180 A 
ATOM      9  N   LIG    1        4.498  -1.145  -0.750  0.00  0.00    -0.560 NA
ATOM     10  C   LIG    1        3.486  -0.877  -1.457  0.00  0.00    +0.320 C 
ATOM     11  C   LIG    1        3.244  -1.704  -2.676  0.00  0.00    -0.070 A 
ATOM     12  C   LIG    1        3.863  -2.947  -2.795  0.00  0.00    +0.070 A 
ATOM     13  C   LIG    1        3.649  -3.708  -3.927  0.00  0.00    +0.000 A 
ATOM     14  C   LIG    1        2.825  -3.230  -4.930  0.00  0.00    +0.030 A 
ATOM     15  C   LIG    1        2.210  -1.998  -4.812  0.00  0.00    +0.000 A 
ATOM     16  C   LIG    1        2.408  -1.221  -3.681  0.00  0.00    -0.050 A 
ATOM     17  C   LIG    1        1.699   0.102  -3.584  0.00  0.00    +0.100 C 
ATOM     18  C   LIG    1        2.362   1.026  -2.561  0.00  0.00    +0.070 C 
ATOM     19  C   LIG    1        2.567   0.255  -1.265  0.00  0.00    -0.040 C 
ENDROOT
BRANCH   1  23
ATOM     20  C   LIG    1       -1.241   3.134   0.031  0.00  0.00    +0.110 A 
ATOM     21  C   LIG    1       -1.220   1.749   0.017  0.00  0.00    -0.030 A 
ATOM     22  C   LIG    1       -0.013   1.076   0.008  0.00  0.00    +0.030 A 
ATOM     23  C   LIG    1        1.176   1.782   0.000  0.00  0.00    -0.070 A 
ATOM     24  C   LIG    1        1.162   3.164   0.007  0.00  0.00    -0.010 A 
ATOM     25  C   LIG    1       -0.044   3.845   0.023  0.00  0.00    +0.100 A 
BRANCH  20  27
ATOM     26  C   LIG    1       -3.615   3.004   0.053  0.00  0.00    +0.240 C 
ATOM     27  O   LIG    1       -2.428   3.798   0.046  0.00  0.00    -0.300 OA
ENDBRANCH  20  27
BRANCH  25  28
ATOM     28  O   LIG    1       -0.059   5.205   0.030  0.00  0.00    -0.300 OA
ATOM     29  C   LIG    1        1.207   5.868   0.022  0.00  0.00    +0.240 C 
ENDBRANCH  25  28
ENDBRANCH   1  23
TORSDOF 3
