REMARK  Name = ZINCrD000000gTt8.0
REMARK                            x       y       z     vdW  Elec       q    Type
REMARK                         _______ _______ _______ _____ _____    ______ ____
ROOT
ATOM      1  C   LIG    1       -2.414   4.398  -1.081  0.00  0.00    +0.540 C 
ATOM      2  N   LIG    1       -1.727   4.096   0.038  0.00  0.00    -0.500 N 
ATOM      3  H   LIG    1       -1.885   4.598   0.854  0.00  0.00    +0.430 HD
ATOM      4  O   LIG    1       -2.217   3.771  -2.101  0.00  0.00    -0.490 OA
ENDROOT
BRANCH   2   5
ATOM      5  N   LIG    1       -0.786   3.059   0.025  0.00  0.00    -0.380 N 
ATOM      6  C   LIG    1       -1.100   1.758   0.016  0.00  0.00    +0.710 C 
ATOM      7  N   LIG    1       -0.011   0.966   0.007  0.00  0.00    -0.710 N 
ATOM      8  H   LIG    1        0.002  -0.004   0.002  0.00  0.00    +0.440 HD
ATOM      9  C   LIG    1        1.153   1.861   0.001  0.00  0.00    +0.140 C 
ATOM     10  C   LIG    1        1.981   1.651  -1.262  0.00  0.00    +0.050 C 
ATOM     11  C   LIG    1        2.551   0.231  -1.270  0.00  0.00    +0.030 C 
ATOM     12  C   LIG    1        3.422   0.026  -0.029  0.00  0.00    +0.010 C 
ATOM     13  C   LIG    1        2.574   0.219   1.230  0.00  0.00    +0.030 C 
ATOM     14  C   LIG    1        2.004   1.639   1.247  0.00  0.00    +0.050 C 
ATOM     15  O   LIG    1       -2.241   1.338   0.019  0.00  0.00    -0.520 OA
ATOM     16  C   LIG    1        0.550   3.247   0.013  0.00  0.00    +0.530 C 
ATOM     17  O   LIG    1        1.142   4.305   0.013  0.00  0.00    -0.450 OA
ENDBRANCH   2   5
BRANCH   1  18
ATOM     18  C   LIG    1       -3.426   5.514  -1.067  0.00  0.00    +0.120 C 
BRANCH  18  19
ATOM     19  S   LIG    1       -4.176   5.673  -2.711  0.00  0.00    -0.020 S 
BRANCH  19  23
ATOM     20  C   LIG    1       -7.097   9.092  -2.174  0.00  0.00    -0.070 A 
ATOM     21  C   LIG    1       -6.982   8.470  -3.404  0.00  0.00    +0.040 A 
ATOM     22  C   LIG    1       -6.092   7.427  -3.571  0.00  0.00    +0.040 A 
ATOM     23  C   LIG    1       -5.312   7.003  -2.502  0.00  0.00    -0.110 A 
ATOM     24  C   LIG    1       -5.435   7.627  -1.266  0.00  0.00    -0.010 A 
ATOM     25  C   LIG    1       -6.323   8.672  -1.108  0.00  0.00    +0.030 A 
BRANCH  20  27
ATOM     26  C   LIG    1       -9.487   9.741  -2.299  0.00  0.00    +0.040 C 
ATOM     27  C   LIG    1       -8.069  10.229  -1.996  0.00  0.00    -0.030 C 
ATOM     28  C   LIG    1       -7.706  11.366  -2.953  0.00  0.00    +0.040 C 
ATOM     29  C   LIG    1       -8.002  10.736  -0.553  0.00  0.00    +0.030 C 
ENDBRANCH  20  27
ENDBRANCH  19  23
ENDBRANCH  18  19
ENDBRANCH   1  18
TORSDOF 5
