REMARK  Name = ZINCrD0000072Q4E.0
REMARK                            x       y       z     vdW  Elec       q    Type
REMARK                         _______ _______ _______ _____ _____    ______ ____
ROOT
ATOM      1  O   LIG    1       -0.715   1.567  -1.168  0.00  0.00    -0.320 OA
ENDROOT
BRANCH   1   2
ATOM      2  C   LIG    1       -0.657   0.800  -2.269  0.00  0.00    +0.440 C 
ATOM      3  O   LIG    1       -0.040  -0.238  -2.249  0.00  0.00    -0.490 OA
BRANCH   2   4
ATOM      4  C   LIG    1       -1.362   1.235  -3.528  0.00  0.00    +0.270 C 
BRANCH   4   5
ATOM      5  O   LIG    1       -1.252   0.207  -4.514  0.00  0.00    -0.520 OA
ATOM      6  H   LIG    1       -0.341  -0.010  -4.757  0.00  0.00    +0.390 HD
ENDBRANCH   4   5
BRANCH   4   7
ATOM      7  C   LIG    1       -0.718   2.519  -4.055  0.00  0.00    +0.080 C 
BRANCH   7   8
ATOM      8  C   LIG    1       -1.498   3.021  -5.243  0.00  0.00    -0.120 A 
ATOM      9  C   LIG    1       -1.157   2.607  -6.518  0.00  0.00    +0.060 A 
ATOM     10  C   LIG    1       -1.874   3.061  -7.607  0.00  0.00    -0.080 A 
ATOM     11  C   LIG    1       -2.930   3.942  -7.423  0.00  0.00    +0.130 A 
ATOM     12  C   LIG    1       -3.266   4.360  -6.144  0.00  0.00    -0.020 A 
ATOM     13  C   LIG    1       -2.549   3.899  -5.057  0.00  0.00    +0.060 A 
BRANCH  11  14
ATOM     14  O   LIG    1       -3.634   4.394  -8.494  0.00  0.00    -0.320 OA
ATOM     15  C   LIG    1       -3.232   3.921  -9.781  0.00  0.00    +0.250 C 
ENDBRANCH  11  14
ENDBRANCH   7   8
ENDBRANCH   4   7
ENDBRANCH   2   4
ENDBRANCH   1   2
BRANCH   1  16
ATOM     16  C   LIG    1       -0.013   1.086   0.008  0.00  0.00    +0.290 C 
BRANCH  16  17
ATOM     17  C   LIG    1       -0.718   1.572   1.248  0.00  0.00    -0.090 A 
ATOM     18  C   LIG    1       -1.313   2.819   1.260  0.00  0.00    +0.080 A 
ATOM     19  C   LIG    1       -1.965   3.264   2.395  0.00  0.00    +0.050 A 
ATOM     20  C   LIG    1       -2.012   2.466   3.523  0.00  0.00    -0.020 A 
ATOM     21  C   LIG    1       -1.412   1.218   3.513  0.00  0.00    -0.030 A 
ATOM     22 CL   LIG    1       -1.471   0.213   4.928  0.00  0.00    -0.040 Cl
ATOM     23 CL   LIG    1       -2.825   3.026   4.951  0.00  0.00    -0.040 Cl
ATOM     24  C   LIG    1       -0.765   0.772   2.374  0.00  0.00    +0.080 A 
ENDBRANCH  16  17
BRANCH  16  25
ATOM     25  C   LIG    1        1.401   1.607  -0.003  0.00  0.00    +0.450 C 
ATOM     26  O   LIG    1        1.752   2.384  -0.859  0.00  0.00    -0.480 OA
BRANCH  25  28
ATOM     27  C   LIG    1        3.615   1.752   0.867  0.00  0.00    +0.290 C 
ATOM     28  O   LIG    1        2.271   1.209   0.939  0.00  0.00    -0.350 OA
ENDBRANCH  25  28
ENDBRANCH  16  25
ENDBRANCH   1  16
TORSDOF 10
