REMARK  Name = ZINCvU0000000ERS.0
REMARK                            x       y       z     vdW  Elec       q    Type
REMARK                         _______ _______ _______ _____ _____    ______ ____
ROOT
ATOM      1  C   LIG    1        2.994   8.067   0.320  0.00  0.00    +0.610 C 
ATOM      2  N   LIG    1        3.901   7.079   0.187  0.00  0.00    -0.500 N 
ATOM      3  O   LIG    1        1.813   7.797   0.433  0.00  0.00    -0.470 OA
ENDROOT
BRANCH   1  11
ATOM      4  C   LIG    1        1.766  13.457   0.916  0.00  0.00    +0.140 C 
ATOM      5  C   LIG    1        3.170  12.999   0.612  0.00  0.00    +0.090 A 
ATOM      6  C   LIG    1        4.155  13.910   0.481  0.00  0.00    +0.010 A 
ATOM      7  C   LIG    1        5.469  13.498   0.197  0.00  0.00    +0.060 A 
ATOM      8  C   LIG    1        5.745  12.175   0.056  0.00  0.00    +0.060 A 
ATOM      9  C   LIG    1        4.704  11.232   0.196  0.00  0.00    +0.230 A 
ATOM     10  N   LIG    1        4.687   9.913   0.112  0.00  0.00    -0.440 NA
ATOM     11  C   LIG    1        3.433   9.475   0.328  0.00  0.00    +0.020 A 
ATOM     12  C   LIG    1        2.635  10.562   0.549  0.00  0.00    +0.180 A 
ATOM     13  N   LIG    1        3.431  11.665   0.473  0.00  0.00    -0.360 N 
ENDBRANCH   1  11
BRANCH   2  14
ATOM     14  C   LIG    1        3.480   5.760   0.077  0.00  0.00    +0.310 A 
ATOM     15  N   LIG    1        2.246   5.364   0.090  0.00  0.00    -0.470 NA
ATOM     16  C   LIG    1        2.030   4.061  -0.026  0.00  0.00    +0.130 A 
ATOM     17  C   LIG    1        3.135   3.302  -0.139  0.00  0.00    -0.080 A 
ATOM     18  S   LIG    1        4.540   4.365  -0.101  0.00  0.00    +0.090 S 
BRANCH  16  19
ATOM     19  C   LIG    1        0.666   3.479  -0.025  0.00  0.00    -0.010 A 
ATOM     20  C   LIG    1        0.495   2.096  -0.045  0.00  0.00    +0.030 A 
ATOM     21  C   LIG    1       -0.776   1.560  -0.045  0.00  0.00    +0.050 A 
ATOM     22  C   LIG    1       -1.881   2.394  -0.029  0.00  0.00    -0.080 A 
ATOM     23  C   LIG    1       -1.717   3.768  -0.004  0.00  0.00    +0.050 A 
ATOM     24 BR   LIG    1       -3.621   1.653  -0.036  0.00  0.00    -0.050 Br
ATOM     25  C   LIG    1       -0.450   4.314  -0.004  0.00  0.00    +0.070 A 
ENDBRANCH  16  19
ENDBRANCH   2  14
BRANCH   2  26
ATOM     26  C   LIG    1        5.331   7.397   0.158  0.00  0.00    +0.310 C 
BRANCH  26  27
ATOM     27  C   LIG    1        5.804   7.486  -1.295  0.00  0.00    +0.150 C 
ATOM     28  C   LIG    1        7.332   7.700  -1.335  0.00  0.00    +0.020 C 
ATOM     29  C   LIG    1        7.491   8.711  -2.506  0.00  0.00    +0.010 C 
ATOM     30  C   LIG    1        6.196   9.548  -2.352  0.00  0.00    +0.200 C 
ATOM     31  O   LIG    1        5.190   8.609  -1.938  0.00  0.00    -0.350 OA
ENDBRANCH  26  27
ENDBRANCH   2  26
TORSDOF 5
