REMARK  Name = ZINCrH000004u6Gg.0
REMARK                            x       y       z     vdW  Elec       q    Type
REMARK                         _______ _______ _______ _____ _____    ______ ____
ROOT
ATOM      1  C   LIG    1       -3.024  -3.101  -0.637  0.00  0.00    +0.240 C 
ATOM      2  C   LIG    1       -2.906  -3.353   0.868  0.00  0.00    +0.010 C 
ATOM      3  C   LIG    1       -4.260  -3.818   1.411  0.00  0.00    +0.270 C 
ATOM      4  N   LIG    1       -4.704  -4.986   0.638  0.00  0.00    -0.620 N 
ATOM      5  C   LIG    1       -4.767  -4.881  -0.826  0.00  0.00    +0.300 C 
ATOM      6  C   LIG    1       -5.047  -6.131   1.260  0.00  0.00    +0.710 C 
ATOM      7  N   LIG    1       -4.889  -6.248   2.593  0.00  0.00    -0.690 N 
ATOM      8  H   LIG    1       -4.603  -5.483   3.116  0.00  0.00    +0.410 HD
ATOM      9  O   LIG    1       -5.499  -7.060   0.617  0.00  0.00    -0.570 OA
ATOM     10  C   LIG    1       -3.407  -4.403  -1.345  0.00  0.00    +0.030 C 
ENDROOT
BRANCH   7  11
ATOM     11  C   LIG    1       -5.138  -7.475   3.224  0.00  0.00    +0.170 A 
ATOM     12  C   LIG    1       -4.862  -8.664   2.549  0.00  0.00    +0.070 A 
ATOM     13  C   LIG    1       -5.099  -9.866   3.154  0.00  0.00    +0.080 A 
ATOM     14  C   LIG    1       -5.617  -9.905   4.441  0.00  0.00    -0.150 A 
ATOM     15  S   LIG    1       -6.051 -11.221   5.535  0.00  0.00    +0.190 S 
ATOM     16  N   LIG    1       -6.568 -10.234   6.810  0.00  0.00    -0.440 NA
ATOM     17  C   LIG    1       -6.436  -9.001   6.465  0.00  0.00    +0.320 A 
ATOM     18  C   LIG    1       -5.906  -8.720   5.145  0.00  0.00    -0.120 A 
ATOM     19  C   LIG    1       -5.647  -7.490   4.502  0.00  0.00    +0.050 A 
ENDBRANCH   7  11
BRANCH   1  22
ATOM     20  O   LIG    1       -2.221  -0.527  -0.603  0.00  0.00    -0.530 OA
ATOM     21  C   LIG    1       -1.432  -1.313  -1.090  0.00  0.00    +0.560 C 
ATOM     22  N   LIG    1       -1.739  -2.624  -1.155  0.00  0.00    -0.720 N 
ATOM     23  H   LIG    1       -1.110  -3.251  -1.544  0.00  0.00    +0.400 HD
BRANCH  21  24
ATOM     24  C   LIG    1       -0.135  -0.832  -1.613  0.00  0.00    -0.140 A 
ATOM     25  C   LIG    1        0.186   0.525  -1.547  0.00  0.00    +0.080 A 
ATOM     26  C   LIG    1        1.398   0.968  -2.036  0.00  0.00    +0.000 A 
ATOM     27  C   LIG    1        2.294   0.070  -2.590  0.00  0.00    +0.040 A 
ATOM     28  C   LIG    1        1.981  -1.276  -2.658  0.00  0.00    +0.000 A 
ATOM     29  C   LIG    1        0.773  -1.732  -2.172  0.00  0.00    +0.030 A 
ENDBRANCH  21  24
ENDBRANCH   1  22
TORSDOF 3
