REMARK  Name = ZINCqH00000065rt.0
REMARK                            x       y       z     vdW  Elec       q    Type
REMARK                         _______ _______ _______ _____ _____    ______ ____
ROOT
ATOM      1  C   LIG    1       -0.726   2.004   1.151  0.00  0.00    +0.500 C 
ATOM      2  N   LIG    1       -1.847   1.352   1.516  0.00  0.00    -0.540 N 
ATOM      3  C   LIG    1       -2.554   1.715   2.751  0.00  0.00    +0.290 C 
ATOM      4  C   LIG    1       -4.057   1.772   2.427  0.00  0.00    +0.040 C 
ATOM      5  C   LIG    1       -4.524   0.376   2.015  0.00  0.00    +0.090 C 
ATOM      6  C   LIG    1       -3.634  -0.179   0.934  0.00  0.00    -0.110 A 
ATOM      7  C   LIG    1       -4.111  -1.205   0.135  0.00  0.00    +0.030 A 
ATOM      8  C   LIG    1       -3.318  -1.738  -0.863  0.00  0.00    -0.020 A 
ATOM      9  C   LIG    1       -2.041  -1.251  -1.069  0.00  0.00    +0.020 A 
ATOM     10  C   LIG    1       -1.558  -0.228  -0.278  0.00  0.00    +0.010 A 
ATOM     11  C   LIG    1       -2.355   0.311   0.725  0.00  0.00    +0.150 A 
ATOM     12  O   LIG    1       -0.118   1.659   0.160  0.00  0.00    -0.500 OA
ENDROOT
BRANCH   1  13
ATOM     13  C   LIG    1       -0.227   3.163   1.975  0.00  0.00    +0.110 C 
ATOM     14  C   LIG    1        1.219   3.487   1.585  0.00  0.00    +0.010 C 
ATOM     15  C   LIG    1        1.689   4.713   2.372  0.00  0.00    +0.230 C 
ATOM     16  O   LIG    1        0.815   5.811   2.107  0.00  0.00    -0.380 OA
ATOM     17  C   LIG    1       -0.542   5.584   2.495  0.00  0.00    +0.230 C 
ATOM     18  C   LIG    1       -1.102   4.393   1.714  0.00  0.00    +0.040 C 
BRANCH  13  20
ATOM     19  C   LIG    1        0.446   1.641   3.700  0.00  0.00    +0.210 C 
ATOM     20  O   LIG    1       -0.283   2.823   3.362  0.00  0.00    -0.360 OA
ENDBRANCH  13  20
ENDBRANCH   1  13
BRANCH   5  21
ATOM     21  C   LIG    1       -5.939   0.456   1.502  0.00  0.00    -0.070 A 
ATOM     22  C   LIG    1       -6.231   1.235   0.398  0.00  0.00    +0.010 A 
ATOM     23  C   LIG    1       -7.528   1.305  -0.075  0.00  0.00    +0.000 A 
ATOM     24  C   LIG    1       -8.534   0.604   0.562  0.00  0.00    +0.000 A 
ATOM     25  C   LIG    1       -8.243  -0.171   1.669  0.00  0.00    +0.000 A 
ATOM     26  C   LIG    1       -6.945  -0.245   2.139  0.00  0.00    +0.000 A 
ENDBRANCH   5  21
TORSDOF 3
