REMARK  Name = ZINCpk00000y6xS0.0
REMARK                            x       y       z     vdW  Elec       q    Type
REMARK                         _______ _______ _______ _____ _____    ______ ____
ROOT
ATOM      1  C   LIG    1        3.777  -0.763  -0.647  0.00  0.00    +0.250 C 
ATOM      2  C   LIG    1        4.939  -0.270   0.221  0.00  0.00    -0.010 C 
ATOM      3  C   LIG    1        4.758  -0.794   1.648  0.00  0.00    +0.220 C 
ATOM      4  O   LIG    1        3.497  -0.356   2.158  0.00  0.00    -0.370 OA
ATOM      5  C   LIG    1        2.371  -0.827   1.414  0.00  0.00    +0.220 C 
ATOM      6  C   LIG    1        2.456  -0.304  -0.022  0.00  0.00    +0.210 C 
ENDROOT
BRANCH   1   9
ATOM      7  O   LIG    1        5.258  -1.848  -2.623  0.00  0.00    -0.530 OA
ATOM      8  C   LIG    1        4.669  -0.825  -2.914  0.00  0.00    +0.570 C 
ATOM      9  N   LIG    1        3.901  -0.205  -1.996  0.00  0.00    -0.720 N 
ATOM     10  H   LIG    1        3.432   0.612  -2.228  0.00  0.00    +0.400 HD
BRANCH   8  11
ATOM     11  C   LIG    1        4.794  -0.262  -4.273  0.00  0.00    -0.170 A 
ATOM     12  C   LIG    1        4.120   0.913  -4.613  0.00  0.00    +0.080 A 
ATOM     13  C   LIG    1        4.235   1.434  -5.880  0.00  0.00    -0.010 A 
ATOM     14  C   LIG    1        5.025   0.796  -6.838  0.00  0.00    +0.140 A 
ATOM     15  O   LIG    1        5.258   1.130  -8.135  0.00  0.00    -0.300 OA
ATOM     16  C   LIG    1        6.442   0.457  -8.595  0.00  0.00    +0.240 C 
ATOM     17  C   LIG    1        6.475  -0.816  -7.716  0.00  0.00    +0.090 C 
ATOM     18  C   LIG    1        5.700  -0.371  -6.491  0.00  0.00    -0.180 A 
ATOM     19  C   LIG    1        5.594  -0.898  -5.228  0.00  0.00    +0.130 A 
ENDBRANCH   8  11
ENDBRANCH   1   9
BRANCH   6  20
ATOM     20  N   LIG    1        2.401   1.160  -0.014  0.00  0.00    -0.700 N 
ATOM     21  H   LIG    1        3.223   1.676  -0.019  0.00  0.00    +0.410 HD
BRANCH  20  22
ATOM     22  C   LIG    1        1.176   1.808   0.001  0.00  0.00    +0.440 A 
ATOM     23  C   LIG    1       -0.013   1.076   0.008  0.00  0.00    -0.160 A 
ATOM     24  C   LIG    1       -1.208   1.768   0.017  0.00  0.00    +0.350 A 
ATOM     25  N   LIG    1       -1.188   3.093   0.030  0.00  0.00    -0.560 NA
ATOM     26  C   LIG    1       -0.049   3.755   0.023  0.00  0.00    +0.540 A 
ATOM     27  N   LIG    1        1.114   3.136   0.008  0.00  0.00    -0.580 NA
ENDBRANCH  20  22
ENDBRANCH   6  20
TORSDOF 4
