REMARK  Name = ZINCpe00000MGilR.2
REMARK                            x       y       z     vdW  Elec       q    Type
REMARK                         _______ _______ _______ _____ _____    ______ ____
ROOT
ATOM      1  C   LIG    1        0.113   1.133  -0.241  0.00  0.00    +0.120 C 
ATOM      2  C   LIG    1       -0.793   1.587  -1.406  0.00  0.00    +0.020 C 
ATOM      3  C   LIG    1       -2.215   1.643  -0.809  0.00  0.00    +0.020 C 
ATOM      4  C   LIG    1       -2.048   1.217   0.665  0.00  0.00    +0.170 C 
ATOM      5  N   LIG    1       -0.627   1.524   0.986  0.00  0.00    -0.480 NA
ENDROOT
BRANCH   1  12
ATOM      6  C   LIG    1        3.097   0.531  -3.553  0.00  0.00    +0.100 C 
ATOM      7  C   LIG    1        2.394   0.533  -2.220  0.00  0.00    +0.530 C 
ATOM      8  N   LIG    1        2.049   1.701  -1.642  0.00  0.00    -0.610 N 
ATOM      9  C   LIG    1        2.198   3.037  -2.248  0.00  0.00    +0.250 C 
ATOM     10  C   LIG    1        2.270   4.011  -1.046  0.00  0.00    +0.020 C 
ATOM     11  C   LIG    1        1.262   3.364  -0.059  0.00  0.00    +0.060 C 
ATOM     12  C   LIG    1        1.462   1.853  -0.303  0.00  0.00    +0.220 C 
ATOM     13  O   LIG    1        2.140  -0.516  -1.667  0.00  0.00    -0.540 OA
ENDBRANCH   1  12
BRANCH   5  14
ATOM     14  C   LIG    1       -0.167   0.749   2.147  0.00  0.00    +0.190 C 
BRANCH  14  15
ATOM     15  C   LIG    1       -0.782   1.312   3.402  0.00  0.00    +0.520 C 
ATOM     16  N   LIG    1       -0.502   0.756   4.598  0.00  0.00    -0.620 N 
ATOM     17  C   LIG    1        0.401  -0.395   4.677  0.00  0.00    +0.280 C 
ATOM     18  O   LIG    1       -1.530   2.264   3.337  0.00  0.00    -0.510 OA
BRANCH  16  19
ATOM     19  C   LIG    1       -1.100   1.303   5.818  0.00  0.00    +0.370 C 
BRANCH  19  20
ATOM     20  C   LIG    1       -2.411   0.612   6.088  0.00  0.00    -0.260 A 
ATOM     21  C   LIG    1       -2.583  -0.509   6.825  0.00  0.00    +0.240 A 
ATOM     22  N   LIG    1       -3.900  -0.804   6.825  0.00  0.00    -0.380 N 
ATOM     23  N   LIG    1       -4.559   0.169   6.062  0.00  0.00    -0.300 NA
ATOM     24  C   LIG    1       -4.529  -1.941   7.502  0.00  0.00    +0.360 C 
ATOM     25  C   LIG    1       -3.667   1.020   5.626  0.00  0.00    +0.250 A 
ENDBRANCH  19  20
ENDBRANCH  16  19
ENDBRANCH  14  15
ENDBRANCH   5  14
TORSDOF 5
