REMARK  Name = ZINCkj000005joYk.1
REMARK                            x       y       z     vdW  Elec       q    Type
REMARK                         _______ _______ _______ _____ _____    ______ ____
ROOT
ATOM      1  C   LIG    1       -4.978   3.254  -3.773  0.00  0.00    +0.040 C 
ATOM      2  C   LIG    1       -4.984   1.727  -3.668  0.00  0.00    +0.200 C 
ATOM      3  C   LIG    1       -6.435   1.202  -3.699  0.00  0.00    +0.070 C 
ATOM      4  C   LIG    1       -6.767   1.016  -2.195  0.00  0.00    +0.040 C 
ATOM      5  C   LIG    1       -5.403   0.543  -1.632  0.00  0.00    +0.290 C 
ATOM      6  N   LIG    1       -4.396   1.312  -2.386  0.00  0.00    -0.590 N 
ATOM      7  C   LIG    1       -3.147   1.592  -1.967  0.00  0.00    +0.520 C 
ATOM      8  O   LIG    1       -2.738   1.127  -0.924  0.00  0.00    -0.520 OA
ENDROOT
BRANCH   7   9
ATOM      9  C   LIG    1       -2.256   2.482  -2.795  0.00  0.00    +0.140 C 
ATOM     10  C   LIG    1       -1.841   1.746  -4.071  0.00  0.00    +0.280 C 
ATOM     11  O   LIG    1       -0.952   2.574  -4.826  0.00  0.00    -0.350 OA
ATOM     12  C   LIG    1        0.222   2.962  -4.106  0.00  0.00    +0.270 C 
ATOM     13  C   LIG    1       -0.190   3.700  -2.830  0.00  0.00    +0.250 C 
ATOM     14  N   LIG    1       -1.057   2.832  -2.022  0.00  0.00    -0.490 N 
ATOM     15  H   LIG    1       -1.329   3.317  -1.180  0.00  0.00    +0.440 HD
ATOM     16  H   LIG    1       -0.556   1.990  -1.778  0.00  0.00    +0.430 HD
ENDBRANCH   7   9
BRANCH   4  17
ATOM     17  C   LIG    1       -7.826  -0.038  -2.002  0.00  0.00    -0.090 A 
ATOM     18  C   LIG    1       -7.659  -1.295  -2.552  0.00  0.00    +0.000 A 
ATOM     19  C   LIG    1       -8.629  -2.264  -2.371  0.00  0.00    +0.010 A 
ATOM     20  C   LIG    1       -9.770  -1.972  -1.647  0.00  0.00    +0.020 A 
ATOM     21  C   LIG    1       -9.939  -0.714  -1.101  0.00  0.00    +0.020 A 
ATOM     22  C   LIG    1       -8.968   0.253  -1.279  0.00  0.00    +0.010 A 
ENDBRANCH   4  17
TORSDOF 2
