REMARK  Name = ZINCvU00000009if.0
REMARK                            x       y       z     vdW  Elec       q    Type
REMARK                         _______ _______ _______ _____ _____    ______ ____
ROOT
ATOM      1  C   LIG    1        4.399  -2.844  -0.071  0.00  0.00    +0.340 C 
ATOM      2  O   LIG    1        5.639  -2.624   0.603  0.00  0.00    -0.300 OA
ATOM      3  C   LIG    1        6.328  -1.494   0.300  0.00  0.00    +0.140 A 
ATOM      4  C   LIG    1        7.711  -1.476   0.313  0.00  0.00    -0.010 A 
ATOM      5  C   LIG    1        8.387  -0.309   0.005  0.00  0.00    +0.050 A 
ATOM      6  C   LIG    1        7.691   0.842  -0.318  0.00  0.00    -0.020 A 
ATOM      7  C   LIG    1        6.309   0.838  -0.335  0.00  0.00    +0.100 A 
ATOM      8  C   LIG    1        5.624  -0.328  -0.028  0.00  0.00    -0.120 A 
ATOM      9  C   LIG    1        4.139  -0.381  -0.035  0.00  0.00    +0.240 C 
ATOM     10  N   LIG    1        3.400   0.755  -0.025  0.00  0.00    -0.570 NA
ATOM     11  C   LIG    1        2.087   0.784  -0.014  0.00  0.00    +0.580 A 
ATOM     12  N   LIG    1        1.208   1.809   0.000  0.00  0.00    -0.520 NA
ATOM     13  C   LIG    1       -0.016   1.358   0.009  0.00  0.00    +0.630 A 
ATOM     14  N   LIG    1        0.002  -0.004   0.002  0.00  0.00    -0.480 N 
ATOM     15  H   LIG    1       -0.767  -0.595   0.007  0.00  0.00    +0.450 HD
ATOM     16  N   LIG    1        1.347  -0.381  -0.014  0.00  0.00    -0.460 N 
ATOM     17  C   LIG    1        2.050  -1.670  -0.029  0.00  0.00    +0.370 C 
ATOM     18  C   LIG    1        3.561  -1.599  -0.043  0.00  0.00    -0.310 C 
ENDROOT
BRANCH   1  23
ATOM     19  C   LIG    1        5.443  -4.319  -5.560  0.00  0.00    +0.090 C 
ATOM     20  C   LIG    1        5.171  -3.934  -4.129  0.00  0.00    -0.080 A 
ATOM     21  C   LIG    1        4.112  -4.507  -3.449  0.00  0.00    +0.000 A 
ATOM     22  C   LIG    1        3.862  -4.154  -2.135  0.00  0.00    +0.010 A 
ATOM     23  C   LIG    1        4.671  -3.229  -1.502  0.00  0.00    -0.120 A 
ATOM     24  C   LIG    1        5.727  -2.653  -2.184  0.00  0.00    +0.030 A 
ATOM     25  C   LIG    1        5.980  -3.010  -3.496  0.00  0.00    +0.000 A 
ENDBRANCH   1  23
BRANCH  17  26
ATOM     26  C   LIG    1        1.626  -2.452   1.187  0.00  0.00    -0.130 A 
ATOM     27  C   LIG    1        1.469  -1.809   2.401  0.00  0.00    +0.020 A 
ATOM     28  C   LIG    1        1.075  -2.526   3.516  0.00  0.00    +0.000 A 
ATOM     29  C   LIG    1        0.850  -3.886   3.419  0.00  0.00    -0.080 A 
ATOM     30  C   LIG    1        1.012  -4.529   2.207  0.00  0.00    +0.010 A 
ATOM     31  C   LIG    1        0.426  -4.668   4.636  0.00  0.00    +0.090 C 
ATOM     32  C   LIG    1        1.400  -3.812   1.091  0.00  0.00    +0.020 A 
ENDBRANCH  17  26
TORSDOF 2
