REMARK  Name = ZINCqH0000001jDP.0
REMARK                            x       y       z     vdW  Elec       q    Type
REMARK                         _______ _______ _______ _____ _____    ______ ____
ROOT
ATOM      1  N   LIG    1        1.288   1.463   2.524  0.00  0.00    -0.720 N 
ATOM      2  H   LIG    1        1.411   2.198   3.146  0.00  0.00    +0.400 HD
ATOM      3  C   LIG    1        2.338   0.989   1.825  0.00  0.00    +0.500 C 
ATOM      4  O   LIG    1        2.170   0.129   0.987  0.00  0.00    -0.520 OA
ENDROOT
BRANCH   1   5
ATOM      5  C   LIG    1       -0.039   0.870   2.345  0.00  0.00    +0.280 C 
BRANCH   5   6
ATOM      6  C   LIG    1       -0.838   1.034   3.612  0.00  0.00    -0.090 A 
ATOM      7  C   LIG    1       -0.758   2.212   4.332  0.00  0.00    +0.000 A 
ATOM      8  C   LIG    1       -1.495   2.364   5.492  0.00  0.00    +0.010 A 
ATOM      9  C   LIG    1       -2.304   1.336   5.937  0.00  0.00    +0.000 A 
ATOM     10  C   LIG    1       -2.380   0.156   5.220  0.00  0.00    +0.020 A 
ATOM     11  C   LIG    1       -1.647   0.005   4.058  0.00  0.00    +0.010 A 
ENDBRANCH   5   6
BRANCH   5  12
ATOM     12  C   LIG    1       -0.760   1.571   1.192  0.00  0.00    +0.020 C 
BRANCH  12  14
ATOM     13  C   LIG    1       -1.813  -0.554   0.407  0.00  0.00    +0.020 C 
ATOM     14  C   LIG    1       -2.088   0.863   0.915  0.00  0.00    -0.020 C 
ATOM     15  C   LIG    1       -2.869   1.642  -0.145  0.00  0.00    +0.010 C 
ENDBRANCH  12  14
ENDBRANCH   5  12
ENDBRANCH   1   5
BRANCH   3  16
ATOM     16  C   LIG    1        3.722   1.528   2.086  0.00  0.00    +0.340 C 
BRANCH  16  17
ATOM     17  N   LIG    1        4.681   0.856   1.206  0.00  0.00    -0.480 N 
ATOM     18  C   LIG    1        4.951   1.381  -0.017  0.00  0.00    +0.390 A 
ATOM     19  C   LIG    1        5.833   0.778  -0.848  0.00  0.00    -0.290 A 
ATOM     20  C   LIG    1        6.479  -0.400  -0.449  0.00  0.00    +0.160 A 
ATOM     21  C   LIG    1        6.206  -0.926   0.780  0.00  0.00    -0.060 A 
ATOM     22  C   LIG    1        5.289  -0.272   1.620  0.00  0.00    +0.520 A 
ATOM     23  O   LIG    1        5.040  -0.728   2.725  0.00  0.00    -0.530 OA
BRANCH  19  24
ATOM     24  C   LIG    1        6.120   1.373  -2.203  0.00  0.00    +0.530 C 
ATOM     25  F   LIG    1        5.027   2.143  -2.615  0.00  0.00    -0.180 F 
ATOM     26  F   LIG    1        6.342   0.346  -3.126  0.00  0.00    -0.170 F 
ATOM     27  F   LIG    1        7.258   2.183  -2.124  0.00  0.00    -0.170 F 
ENDBRANCH  19  24
ENDBRANCH  16  17
ENDBRANCH   3  16
TORSDOF 7
