REMARK  Name = ZINCrg000000p7uf.0
REMARK                            x       y       z     vdW  Elec       q    Type
REMARK                         _______ _______ _______ _____ _____    ______ ____
ROOT
ATOM      1  C   LIG    1       -0.021   0.037   0.024  0.00  0.00    +0.250 C 
ENDROOT
BRANCH   1   8
ATOM      2  C   LIG    1        2.147  -5.164  -2.810  0.00  0.00    +0.190 C 
ATOM      3  N   LIG    1        2.196  -4.024  -1.885  0.00  0.00    -0.540 NA
ATOM      4  C   LIG    1        2.830  -2.860  -2.518  0.00  0.00    +0.170 C 
ATOM      5  C   LIG    1        3.025  -1.757  -1.472  0.00  0.00    +0.300 C 
ATOM      6  N   LIG    1        1.729  -1.487  -0.830  0.00  0.00    -0.610 N 
ATOM      7  C   LIG    1        0.971  -2.625  -0.287  0.00  0.00    +0.280 C 
ATOM      8  C   LIG    1        1.252  -0.231  -0.737  0.00  0.00    +0.520 C 
ATOM      9  O   LIG    1        1.847   0.685  -1.265  0.00  0.00    -0.530 OA
ATOM     10  C   LIG    1        0.855  -3.694  -1.386  0.00  0.00    +0.170 C 
ENDBRANCH   1   8
BRANCH   1  11
ATOM     11  N   LIG    1       -0.574   1.329  -0.390  0.00  0.00    -0.720 N 
ATOM     12  H   LIG    1        0.010   2.013  -0.755  0.00  0.00    +0.410 HD
ATOM     13  C   LIG    1       -1.895   1.567  -0.268  0.00  0.00    +0.520 C 
ATOM     14  O   LIG    1       -2.626   0.711   0.184  0.00  0.00    -0.490 OA
BRANCH  13  15
ATOM     15  C   LIG    1       -2.464   2.896  -0.693  0.00  0.00    +0.160 C 
ATOM     16  C   LIG    1       -2.299   3.074  -2.217  0.00  0.00    +0.060 C 
ATOM     17  C   LIG    1       -3.735   3.287  -2.720  0.00  0.00    -0.170 C 
ATOM     18  C   LIG    1       -4.499   3.715  -1.455  0.00  0.00    +0.250 C 
ATOM     19  C   LIG    1       -4.362   2.405  -3.785  0.00  0.00    +0.040 C 
ATOM     20  C   LIG    1       -4.039   3.873  -4.087  0.00  0.00    +0.040 C 
ATOM     21  O   LIG    1       -3.873   2.938  -0.408  0.00  0.00    -0.340 OA
ENDBRANCH  13  15
ENDBRANCH   1  11
BRANCH   1  22
ATOM     22  C   LIG    1        0.278   0.067   1.524  0.00  0.00    +0.080 C 
BRANCH  22  23
ATOM     23  C   LIG    1       -1.010   0.228   2.290  0.00  0.00    -0.070 A 
ATOM     24  C   LIG    1       -1.478   1.492   2.598  0.00  0.00    +0.000 A 
ATOM     25  C   LIG    1       -2.661   1.639   3.297  0.00  0.00    +0.010 A 
ATOM     26  C   LIG    1       -3.373   0.523   3.695  0.00  0.00    +0.000 A 
ATOM     27  C   LIG    1       -2.903  -0.741   3.391  0.00  0.00    +0.010 A 
ATOM     28  C   LIG    1       -1.721  -0.888   2.688  0.00  0.00    +0.000 A 
ENDBRANCH  22  23
ENDBRANCH   1  22
TORSDOF 5
