REMARK  Name = ZINCpe000015bWCz.0
REMARK                            x       y       z     vdW  Elec       q    Type
REMARK                         _______ _______ _______ _____ _____    ______ ____
ROOT
ATOM      1  C   LIG    1        2.526   1.094  -0.063  0.00  0.00    +0.160 C 
ATOM      2  C   LIG    1        3.775   1.959   0.120  0.00  0.00    +0.250 C 
ATOM      3  O   LIG    1        4.940   1.139  -0.009  0.00  0.00    -0.360 OA
ATOM      4  C   LIG    1        5.034   0.467  -1.268  0.00  0.00    +0.110 C 
ATOM      5  C   LIG    1        3.797  -0.413  -1.465  0.00  0.00    +0.200 C 
ATOM      6  C   LIG    1        5.111   1.500  -2.394  0.00  0.00    +0.030 C 
ATOM      7  C   LIG    1        6.291  -0.406  -1.288  0.00  0.00    +0.070 C 
ATOM      8  N   LIG    1        2.589   0.420  -1.367  0.00  0.00    -0.480 N 
ENDROOT
BRANCH   8   9
ATOM      9  C   LIG    1        1.454  -0.329  -1.593  0.00  0.00    +0.410 A 
ATOM     10  N   LIG    1        1.066  -1.260  -0.725  0.00  0.00    -0.570 NA
ATOM     11  C   LIG    1       -0.023  -1.975  -0.933  0.00  0.00    +0.570 A 
ATOM     12  N   LIG    1       -0.781  -1.827  -2.000  0.00  0.00    -0.550 NA
ATOM     13  C   LIG    1       -0.475  -0.926  -2.930  0.00  0.00    +0.420 A 
ATOM     14  N   LIG    1       -1.250  -0.757  -4.048  0.00  0.00    -0.510 N 
ATOM     15  C   LIG    1       -2.446  -1.581  -4.236  0.00  0.00    +0.330 C 
ATOM     16  C   LIG    1       -0.918   0.163  -4.974  0.00  0.00    +0.540 A 
ATOM     17  O   LIG    1       -1.620   0.299  -5.962  0.00  0.00    -0.520 OA
ATOM     18  C   LIG    1        0.227   0.971  -4.821  0.00  0.00    -0.060 A 
ATOM     19  C   LIG    1        1.019   0.831  -3.727  0.00  0.00    +0.170 A 
ATOM     20  C   LIG    1        0.675  -0.133  -2.752  0.00  0.00    -0.210 A 
ENDBRANCH   8   9
BRANCH   1  21
ATOM     21  C   LIG    1        1.279   1.980  -0.006  0.00  0.00    +0.110 C 
BRANCH  21  22
ATOM     22  C   LIG    1        1.131   2.550   1.381  0.00  0.00    +0.460 C 
ATOM     23  O   LIG    1        1.872   2.190   2.265  0.00  0.00    -0.500 OA
BRANCH  22  25
ATOM     24  C   LIG    1        0.084   3.956   2.996  0.00  0.00    +0.270 C 
ATOM     25  O   LIG    1        0.172   3.454   1.636  0.00  0.00    -0.360 OA
ENDBRANCH  22  25
ENDBRANCH  21  22
ENDBRANCH   1  21
TORSDOF 4
