REMARK  Name = ZINCtj00001UqOmS.1
REMARK                            x       y       z     vdW  Elec       q    Type
REMARK                         _______ _______ _______ _____ _____    ______ ____
ROOT
ATOM      1  C   LIG    1        2.394   0.962   0.085  0.00  0.00    +0.620 A 
ATOM      2  N   LIG    1        2.160  -0.150   0.777  0.00  0.00    -0.610 NA
ATOM      3  C   LIG    1        3.138  -0.728   1.453  0.00  0.00    +0.620 A 
ATOM      4  N   LIG    1        4.351  -0.203   1.446  0.00  0.00    -0.630 NA
ATOM      5  C   LIG    1        4.592   0.909   0.757  0.00  0.00    +0.570 A 
ATOM      6  N   LIG    1        3.614   1.490   0.071  0.00  0.00    -0.620 NA
ENDROOT
BRANCH   5   7
ATOM      7  N   LIG    1        5.859   1.456   0.750  0.00  0.00    -0.460 N 
ATOM      8  C   LIG    1        6.362   1.602  -0.623  0.00  0.00    +0.260 C 
ATOM      9  C   LIG    1        7.733   2.283  -0.592  0.00  0.00    +0.230 C 
ATOM     10  N   LIG    1        8.657   1.482   0.222  0.00  0.00    -0.480 NA
ATOM     11  C   LIG    1        8.154   1.336   1.595  0.00  0.00    +0.240 C 
ATOM     12  C   LIG    1        6.783   0.655   1.564  0.00  0.00    +0.260 C 
BRANCH  10  13
ATOM     13  C   LIG    1        9.935   2.033   0.215  0.00  0.00    +0.240 C 
ATOM     14  C   LIG    1       10.163   3.303  -0.313  0.00  0.00    +0.010 C 
ATOM     15  C   LIG    1       11.444   3.816  -0.296  0.00  0.00    +0.380 C 
ATOM     16  N   LIG    1       12.447   3.118   0.201  0.00  0.00    -0.460 NA
ATOM     17  C   LIG    1       12.273   1.910   0.706  0.00  0.00    +0.380 C 
ATOM     18  H   LIG    1       13.337   3.502   0.196  0.00  0.00    +0.460 HD
ATOM     19  C   LIG    1       11.023   1.327   0.732  0.00  0.00    -0.090 C 
ATOM     20 CL   LIG    1       10.806  -0.261   1.397  0.00  0.00    +0.040 Cl
ENDBRANCH  10  13
ENDBRANCH   5   7
BRANCH   1  21
ATOM     21  N   LIG    1        1.373   1.564  -0.622  0.00  0.00    -0.670 N 
ATOM     22  H   LIG    1        1.544   2.375  -1.125  0.00  0.00    +0.420 HD
BRANCH  21  28
ATOM     23  O   LIG    1       -5.158   0.243   0.164  0.00  0.00    -0.530 OA
ATOM     24  C   LIG    1       -4.235   0.873  -0.308  0.00  0.00    +0.520 C 
ATOM     25  C   LIG    1       -2.893   0.286  -0.697  0.00  0.00    +0.080 C 
ATOM     26  C   LIG    1       -1.988   1.513  -0.858  0.00  0.00    -0.100 C 
ATOM     27  C   LIG    1       -0.824   1.372  -1.831  0.00  0.00    +0.060 C 
ATOM     28  C   LIG    1        0.030   0.978  -0.611  0.00  0.00    +0.270 C 
ATOM     29  C   LIG    1       -2.979   2.647  -1.139  0.00  0.00    +0.280 C 
ATOM     30  C   LIG    1       -0.975   1.758   0.258  0.00  0.00    +0.030 C 
ATOM     31  N   LIG    1       -4.254   2.195  -0.561  0.00  0.00    -0.730 N 
ATOM     32  H   LIG    1       -5.011   2.775  -0.385  0.00  0.00    +0.410 HD
ENDBRANCH  21  28
ENDBRANCH   1  21
TORSDOF 4
