REMARK  Name = ZINCpk000000mNYm.0
REMARK                            x       y       z     vdW  Elec       q    Type
REMARK                         _______ _______ _______ _____ _____    ______ ____
ROOT
ATOM      1  C   LIG    1        2.096   1.055  -6.674  0.00  0.00    +0.440 C 
ATOM      2  O   LIG    1        2.361   2.102  -6.132  0.00  0.00    -0.460 OA
ENDROOT
BRANCH   1   3
ATOM      3  O   LIG    1        1.353   0.137  -6.035  0.00  0.00    -0.290 OA
BRANCH   3   9
ATOM      4  C   LIG    1       -0.352   1.217  -4.775  0.00  0.00    -0.040 A 
ATOM      5  C   LIG    1       -0.886   1.575  -3.553  0.00  0.00    +0.000 A 
ATOM      6  C   LIG    1       -0.232   1.224  -2.381  0.00  0.00    +0.140 A 
ATOM      7  C   LIG    1        0.952   0.503  -2.437  0.00  0.00    -0.060 A 
ATOM      8  C   LIG    1        1.482   0.140  -3.659  0.00  0.00    +0.060 A 
ATOM      9  C   LIG    1        0.831   0.495  -4.831  0.00  0.00    +0.050 A 
BRANCH   4  10
ATOM     10  C   LIG    1       -1.060   1.603  -6.048  0.00  0.00    +0.110 C 
BRANCH  10  12
ATOM     11  C   LIG    1       -3.218   0.673  -6.711  0.00  0.00    +0.010 C 
ATOM     12  C   LIG    1       -1.942   0.467  -6.498  0.00  0.00    -0.040 C 
ENDBRANCH  10  12
ENDBRANCH   4  10
BRANCH   6  13
ATOM     13  O   LIG    1       -0.754   1.581  -1.177  0.00  0.00    -0.310 OA
BRANCH  13  14
ATOM     14  C   LIG    1       -0.031   1.180  -0.012  0.00  0.00    +0.170 C 
ATOM     15  C   LIG    1       -0.767   1.668   1.238  0.00  0.00    +0.070 C 
ENDBRANCH  13  14
ENDBRANCH   6  13
ENDBRANCH   3   9
ENDBRANCH   1   3
BRANCH   1  16
ATOM     16  C   LIG    1        2.600   0.779  -8.067  0.00  0.00    +0.300 C 
BRANCH  16  17
ATOM     17  N   LIG    1        2.950   2.043  -8.719  0.00  0.00    -0.730 N 
ATOM     18  H   LIG    1        2.501   2.307  -9.537  0.00  0.00    +0.410 HD
ATOM     19  C   LIG    1        3.896   2.839  -8.183  0.00  0.00    +0.510 C 
ATOM     20  O   LIG    1        4.458   2.509  -7.160  0.00  0.00    -0.510 OA
ATOM     21  C   LIG    1        4.256   4.140  -8.854  0.00  0.00    +0.090 C 
ENDBRANCH  16  17
BRANCH  16  22
ATOM     22  C   LIG    1        3.838  -0.117  -7.993  0.00  0.00    +0.070 C 
BRANCH  22  23
ATOM     23  C   LIG    1        4.276  -0.499  -9.409  0.00  0.00    +0.060 C 
BRANCH  23  24
ATOM     24  C   LIG    1        5.496  -1.381  -9.336  0.00  0.00    +0.520 C 
ATOM     25  O   LIG    1        5.968  -1.675  -8.259  0.00  0.00    -0.540 OA
ATOM     26  N   LIG    1        6.061  -1.843 -10.469  0.00  0.00    -0.860 N 
ATOM     27  H   LIG    1        6.846  -2.411 -10.422  0.00  0.00    +0.400 HD
ATOM     28  H   LIG    1        5.683  -1.608 -11.331  0.00  0.00    +0.400 HD
ENDBRANCH  23  24
ENDBRANCH  22  23
ENDBRANCH  16  22
ENDBRANCH   1  16
TORSDOF 11
