REMARK  Name = ZINCqH0000050as1.1
REMARK                            x       y       z     vdW  Elec       q    Type
REMARK                         _______ _______ _______ _____ _____    ______ ____
ROOT
ATOM      1  C   LIG    1        2.490   1.045  -0.016  0.00  0.00    +0.290 C 
ENDROOT
BRANCH   1   5
ATOM      2  C   LIG    1       -1.236   3.138   0.030  0.00  0.00    +0.170 A 
ATOM      3  C   LIG    1       -1.218   1.749   0.017  0.00  0.00    +0.000 A 
ATOM      4  C   LIG    1       -0.013   1.076   0.008  0.00  0.00    +0.070 A 
ATOM      5  C   LIG    1        1.176   1.783   0.000  0.00  0.00    -0.100 A 
ATOM      6  C   LIG    1        1.161   3.165   0.008  0.00  0.00    +0.070 A 
ATOM      7  C   LIG    1       -0.042   3.845   0.023  0.00  0.00    +0.030 A 
BRANCH   2  14
ATOM      8  C   LIG    1       -3.778   2.191  -1.402  0.00  0.00    +0.150 C 
ATOM      9  C   LIG    1       -3.597   3.436  -0.574  0.00  0.00    +0.090 A 
ATOM     10  C   LIG    1       -4.544   4.368  -0.315  0.00  0.00    -0.110 A 
ATOM     11  C   LIG    1       -3.966   5.357   0.488  0.00  0.00    +0.080 A 
ATOM     12  N   LIG    1       -2.719   5.030   0.709  0.00  0.00    -0.290 NA
ATOM     13  C   LIG    1       -4.663   6.586   1.014  0.00  0.00    +0.160 C 
ATOM     14  N   LIG    1       -2.458   3.824   0.045  0.00  0.00    -0.330 N 
ENDBRANCH   2  14
ENDBRANCH   1   5
BRANCH   1  15
ATOM     15  O   LIG    1        2.899   0.815  -1.390  0.00  0.00    -0.350 OA
BRANCH  15  16
ATOM     16  C   LIG    1        4.062   0.162  -1.581  0.00  0.00    +0.510 C 
ATOM     17  O   LIG    1        4.716  -0.206  -0.626  0.00  0.00    -0.500 OA
BRANCH  16  18
ATOM     18  C   LIG    1        4.540  -0.107  -2.949  0.00  0.00    -0.060 A 
ATOM     19  C   LIG    1        5.759  -0.791  -3.157  0.00  0.00    -0.130 A 
ATOM     20  C   LIG    1        6.729  -1.336  -2.288  0.00  0.00    +0.280 A 
ATOM     21  N   LIG    1        7.678  -1.869  -3.003  0.00  0.00    -0.240 NA
ATOM     22  N   LIG    1        7.391  -1.708  -4.364  0.00  0.00    -0.500 N 
ATOM     23  H   LIG    1        7.939  -2.017  -5.103  0.00  0.00    +0.450 HD
ATOM     24  C   LIG    1        6.198  -1.039  -4.470  0.00  0.00    +0.120 A 
ATOM     25  C   LIG    1        5.431  -0.608  -5.549  0.00  0.00    +0.040 A 
ATOM     26  C   LIG    1        4.244   0.060  -5.333  0.00  0.00    +0.050 A 
ATOM     27  C   LIG    1        3.793   0.306  -4.047  0.00  0.00    +0.070 A 
ENDBRANCH  16  18
ENDBRANCH  15  16
ENDBRANCH   1  15
TORSDOF 5
