REMARK  Name = ZINCqH0000050as1.0
REMARK                            x       y       z     vdW  Elec       q    Type
REMARK                         _______ _______ _______ _____ _____    ______ ____
ROOT
ATOM      1  C   LIG    1        1.045   3.606   0.011  0.00  0.00    +0.270 C 
ENDROOT
BRANCH   1   5
ATOM      2  C   LIG    1        4.971   5.293  -0.017  0.00  0.00    +0.170 A 
ATOM      3  C   LIG    1        4.321   5.025  -1.214  0.00  0.00    +0.030 A 
ATOM      4  C   LIG    1        3.052   4.480  -1.201  0.00  0.00    +0.070 A 
ATOM      5  C   LIG    1        2.429   4.201   0.001  0.00  0.00    -0.100 A 
ATOM      6  C   LIG    1        3.072   4.472   1.195  0.00  0.00    +0.070 A 
ATOM      7  C   LIG    1        4.344   5.012   1.189  0.00  0.00    +0.000 A 
BRANCH   2  14
ATOM      8  C   LIG    1        6.014   7.300   2.055  0.00  0.00    +0.150 C 
ATOM      9  C   LIG    1        6.751   6.732   0.870  0.00  0.00    +0.090 A 
ATOM     10  C   LIG    1        8.024   7.017   0.510  0.00  0.00    -0.110 A 
ATOM     11  C   LIG    1        8.321   6.282  -0.643  0.00  0.00    +0.080 A 
ATOM     12  N   LIG    1        7.266   5.576  -0.962  0.00  0.00    -0.290 NA
ATOM     13  C   LIG    1        9.632   6.296  -1.386  0.00  0.00    +0.160 C 
ATOM     14  N   LIG    1        6.259   5.847  -0.026  0.00  0.00    -0.330 N 
ENDBRANCH   2  14
ENDBRANCH   1   5
BRANCH   1  15
ATOM     15  O   LIG    1        1.140   2.157   0.003  0.00  0.00    -0.350 OA
BRANCH  15  16
ATOM     16  C   LIG    1       -0.018   1.467   0.010  0.00  0.00    +0.510 C 
ATOM     17  O   LIG    1       -1.079   2.061   0.018  0.00  0.00    -0.510 OA
BRANCH  16  18
ATOM     18  C   LIG    1        0.002  -0.004   0.002  0.00  0.00    -0.070 A 
ATOM     19  C   LIG    1        1.202  -0.696  -0.019  0.00  0.00    +0.080 A 
ATOM     20  C   LIG    1        1.234  -2.086  -0.022  0.00  0.00    +0.040 A 
ATOM     21  C   LIG    1        0.109  -2.845  -0.015  0.00  0.00    +0.090 A 
ATOM     22  C   LIG    1       -1.165  -2.240   0.001  0.00  0.00    +0.090 A 
ATOM     23  N   LIG    1       -2.408  -2.690   0.010  0.00  0.00    -0.290 NA
ATOM     24  N   LIG    1       -3.284  -1.599   0.025  0.00  0.00    -0.420 N 
ATOM     25  H   LIG    1       -4.252  -1.661   0.035  0.00  0.00    +0.450 HD
ATOM     26  C   LIG    1       -2.586  -0.452   0.025  0.00  0.00    +0.300 A 
ATOM     27  C   LIG    1       -1.248  -0.771   0.010  0.00  0.00    -0.170 A 
ENDBRANCH  16  18
ENDBRANCH  15  16
ENDBRANCH   1  15
TORSDOF 5
