REMARK  Name = ZINCtj00000rnaAK.0
REMARK                            x       y       z     vdW  Elec       q    Type
REMARK                         _______ _______ _______ _____ _____    ______ ____
ROOT
ATOM      1  C   LIG    1       -3.512   6.726   3.498  0.00  0.00    +0.340 C 
ATOM      2  N   LIG    1       -2.816   6.671   2.205  0.00  0.00    -0.400 N 
ATOM      3  C   LIG    1       -3.793   6.551   1.091  0.00  0.00    +0.300 C 
ATOM      4  C   LIG    1       -2.983   5.937  -0.075  0.00  0.00    +0.100 C 
ATOM      5  C   LIG    1       -1.819   5.210   0.605  0.00  0.00    -0.130 C 
ATOM      6  C   LIG    1       -0.432   5.478   0.038  0.00  0.00    +0.330 C 
ATOM      7  N   LIG    1       -0.125   4.057   0.279  0.00  0.00    -0.650 N 
ATOM      8  C   LIG    1        0.988   3.332   0.506  0.00  0.00    +0.600 C 
ATOM      9  O   LIG    1        2.066   3.886   0.597  0.00  0.00    -0.490 OA
ATOM     10  C   LIG    1       -1.566   3.775   0.156  0.00  0.00    +0.320 C 
ATOM     11  C   LIG    1       -1.992   5.435   2.111  0.00  0.00    +0.300 C 
ATOM     12  H   LIG    1       -2.239   7.490   2.081  0.00  0.00    +0.430 HD
ENDROOT
BRANCH   8  13
ATOM     13  C   LIG    1        0.897   1.866   0.644  0.00  0.00    -0.140 A 
ATOM     14  C   LIG    1       -0.312   1.207   0.401  0.00  0.00    +0.040 A 
ATOM     15  C   LIG    1       -0.390  -0.163   0.530  0.00  0.00    +0.020 A 
ATOM     16  C   LIG    1        0.725  -0.897   0.903  0.00  0.00    +0.070 A 
ATOM     17  C   LIG    1        1.927  -0.257   1.147  0.00  0.00    +0.060 A 
ATOM     18  O   LIG    1        3.028  -0.976   1.514  0.00  0.00    -0.310 OA
ATOM     19  C   LIG    1        4.087  -1.029   0.556  0.00  0.00    +0.230 C 
ATOM     20  C   LIG    1        4.983   0.194   0.673  0.00  0.00    +0.000 C 
ATOM     21  C   LIG    1        4.253   1.482   0.324  0.00  0.00    +0.240 C 
ATOM     22  O   LIG    1        3.208   1.742   1.264  0.00  0.00    -0.300 OA
ATOM     23  C   LIG    1        2.021   1.121   1.020  0.00  0.00    +0.130 A 
ENDBRANCH   8  13
BRANCH   4  24
ATOM     24  C   LIG    1       -3.833   4.961  -0.848  0.00  0.00    +0.220 A 
ATOM     25  C   LIG    1       -4.811   4.220  -0.205  0.00  0.00    -0.160 A 
ATOM     26  C   LIG    1       -5.574   3.337  -0.954  0.00  0.00    +0.400 A 
ATOM     27  N   LIG    1       -5.339   3.221  -2.250  0.00  0.00    -0.560 NA
ATOM     28  C   LIG    1       -4.391   3.940  -2.834  0.00  0.00    +0.580 A 
ATOM     29  N   LIG    1       -3.649   4.797  -2.148  0.00  0.00    -0.560 NA
BRANCH  28  30
ATOM     30  N   LIG    1       -4.172   3.794  -4.192  0.00  0.00    -0.810 N 
ATOM     31  H   LIG    1       -4.709   3.170  -4.706  0.00  0.00    +0.420 HD
ATOM     32  H   LIG    1       -3.482   4.315  -4.631  0.00  0.00    +0.420 HD
ENDBRANCH  28  30
ENDBRANCH   4  24
TORSDOF 3
