REMARK  Name = ZINCtj00000rnaAK.1
REMARK                            x       y       z     vdW  Elec       q    Type
REMARK                         _______ _______ _______ _____ _____    ______ ____
ROOT
ATOM      1  C   LIG    1        2.680  -2.386  -0.564  0.00  0.00    +0.350 C 
ATOM      2  N   LIG    1        2.072  -1.236   0.119  0.00  0.00    -0.400 N 
ATOM      3  C   LIG    1        1.195  -0.494  -0.815  0.00  0.00    +0.280 C 
ATOM      4  C   LIG    1       -0.010   0.015   0.003  0.00  0.00    +0.100 C 
ATOM      5  C   LIG    1        0.222  -0.528   1.417  0.00  0.00    -0.120 C 
ATOM      6  C   LIG    1       -1.028  -0.819   2.243  0.00  0.00    +0.340 C 
ATOM      7  N   LIG    1       -0.261  -0.281   3.387  0.00  0.00    -0.650 N 
ATOM      8  C   LIG    1       -0.329  -0.437   4.724  0.00  0.00    +0.590 C 
ATOM      9  O   LIG    1        0.515   0.069   5.438  0.00  0.00    -0.500 OA
ATOM     10  C   LIG    1        0.611   0.496   2.479  0.00  0.00    +0.320 C 
ATOM     11  C   LIG    1        1.193  -1.703   1.225  0.00  0.00    +0.310 C 
ATOM     12  H   LIG    1        2.790  -0.626   0.479  0.00  0.00    +0.430 HD
ENDROOT
BRANCH   8  13
ATOM     13  C   LIG    1       -1.427  -1.221   5.320  0.00  0.00    -0.140 A 
ATOM     14  C   LIG    1       -2.640  -1.368   4.639  0.00  0.00    +0.040 A 
ATOM     15  C   LIG    1       -3.662  -2.102   5.202  0.00  0.00    +0.020 A 
ATOM     16  C   LIG    1       -3.498  -2.699   6.442  0.00  0.00    +0.060 A 
ATOM     17  C   LIG    1       -2.303  -2.560   7.125  0.00  0.00    +0.060 A 
ATOM     18  O   LIG    1       -2.136  -3.146   8.347  0.00  0.00    -0.320 OA
ATOM     19  C   LIG    1       -2.034  -2.255   9.459  0.00  0.00    +0.230 C 
ATOM     20  C   LIG    1       -0.605  -1.761   9.624  0.00  0.00    +0.000 C 
ATOM     21  C   LIG    1       -0.145  -0.914   8.447  0.00  0.00    +0.240 C 
ATOM     22  O   LIG    1       -0.092  -1.696   7.252  0.00  0.00    -0.310 OA
ATOM     23  C   LIG    1       -1.263  -1.829   6.569  0.00  0.00    +0.130 A 
ENDBRANCH   8  13
BRANCH   4  24
ATOM     24  C   LIG    1       -0.036   1.521   0.017  0.00  0.00    +0.220 A 
ATOM     25  C   LIG    1        1.147   2.243   0.009  0.00  0.00    -0.170 A 
ATOM     26  C   LIG    1        1.079   3.628   0.023  0.00  0.00    +0.400 A 
ATOM     27  N   LIG    1       -0.106   4.215   0.042  0.00  0.00    -0.560 NA
ATOM     28  C   LIG    1       -1.219   3.495   0.049  0.00  0.00    +0.580 A 
ATOM     29  N   LIG    1       -1.188   2.171   0.031  0.00  0.00    -0.560 NA
BRANCH  28  30
ATOM     30  N   LIG    1       -2.442   4.143   0.069  0.00  0.00    -0.810 N 
ATOM     31  H   LIG    1       -3.264   3.627   0.074  0.00  0.00    +0.420 HD
ATOM     32  H   LIG    1       -2.478   5.112   0.078  0.00  0.00    +0.420 HD
ENDBRANCH  28  30
ENDBRANCH   4  24
TORSDOF 3
