REMARK  Name = ZINCc70000001n7u.0
REMARK                            x       y       z     vdW  Elec       q    Type
REMARK                         _______ _______ _______ _____ _____    ______ ____
ROOT
ATOM      1  C   LIG    1       -0.821   1.627  -1.190  0.00  0.00    +0.260 C 
ATOM      2  C   LIG    1       -0.013   1.086   0.008  0.00  0.00    +0.060 C 
ATOM      3  C   LIG    1       -0.802   1.617   1.234  0.00  0.00    +0.050 C 
ATOM      4  C   LIG    1       -2.264   1.534   0.716  0.00  0.00    +0.270 C 
ATOM      5  N   LIG    1       -2.183   1.902  -0.710  0.00  0.00    -0.610 N 
ATOM      6  C   LIG    1       -3.190   2.406  -1.450  0.00  0.00    +0.530 C 
ATOM      7  O   LIG    1       -3.009   2.673  -2.619  0.00  0.00    -0.540 OA
ATOM      8  C   LIG    1       -4.542   2.638  -0.825  0.00  0.00    +0.110 C 
ENDROOT
BRANCH   1   9
ATOM      9  C   LIG    1       -0.863   0.596  -2.288  0.00  0.00    +0.460 C 
ATOM     10  O   LIG    1       -1.841  -0.099  -2.427  0.00  0.00    -0.490 OA
BRANCH   9  12
ATOM     11  C   LIG    1        0.077  -0.563  -4.147  0.00  0.00    +0.260 C 
ATOM     12  O   LIG    1        0.187   0.450  -3.112  0.00  0.00    -0.360 OA
ENDBRANCH   9  12
ENDBRANCH   1   9
TORSDOF 2
