REMARK  Name = ZINCpk000000oG6y.0
REMARK                            x       y       z     vdW  Elec       q    Type
REMARK                         _______ _______ _______ _____ _____    ______ ____
ROOT
ATOM      1  C   LIG    1        3.338  -1.504  -3.460  0.00  0.00    +0.260 C 
ATOM      2  C   LIG    1        2.424  -2.729  -3.392  0.00  0.00    +0.100 C 
ENDROOT
BRANCH   1   3
ATOM      3  N   LIG    1        2.854  -0.481  -2.530  0.00  0.00    -0.270 N 
ATOM      4  C   LIG    1        2.282  -0.711  -1.325  0.00  0.00    +0.170 A 
ATOM      5  C   LIG    1        1.986   0.505  -0.810  0.00  0.00    -0.040 A 
ATOM      6  N   LIG    1        2.393   1.408  -1.708  0.00  0.00    -0.240 NA
ATOM      7  N   LIG    1        2.903   0.792  -2.716  0.00  0.00    -0.070 NA
BRANCH   5   8
ATOM      8  C   LIG    1        1.331   0.786   0.518  0.00  0.00    +0.190 C 
ATOM      9  C   LIG    1        1.105   2.307   0.703  0.00  0.00    +0.070 C 
ATOM     10  C   LIG    1        1.469   2.510   2.195  0.00  0.00    +0.220 C 
ATOM     11  O   LIG    1        2.576   1.606   2.398  0.00  0.00    -0.370 OA
ATOM     12  C   LIG    1        2.272   0.401   1.676  0.00  0.00    +0.190 C 
BRANCH   8  13
ATOM     13  O   LIG    1        0.093   0.080   0.624  0.00  0.00    -0.540 OA
ATOM     14  H   LIG    1        0.183  -0.881   0.573  0.00  0.00    +0.380 HD
ENDBRANCH   8  13
ENDBRANCH   5   8
ENDBRANCH   1   3
BRANCH   1  16
ATOM     15  N   LIG    1        5.435  -2.751  -3.865  0.00  0.00    -0.600 N 
ATOM     16  C   LIG    1        4.741  -1.903  -3.081  0.00  0.00    +0.510 C 
ATOM     17  O   LIG    1        5.246  -1.461  -2.071  0.00  0.00    -0.510 OA
BRANCH  15  19
ATOM     18  C   LIG    1        5.427  -2.341  -6.276  0.00  0.00    +0.010 C 
ATOM     19  C   LIG    1        4.869  -3.200  -5.140  0.00  0.00    +0.260 C 
ENDBRANCH  15  19
BRANCH  15  20
ATOM     20  C   LIG    1        6.755  -3.225  -3.443  0.00  0.00    +0.340 C 
BRANCH  20  21
ATOM     21  C   LIG    1        6.602  -4.491  -2.641  0.00  0.00    -0.110 A 
ATOM     22  C   LIG    1        6.448  -4.426  -1.269  0.00  0.00    +0.030 A 
ATOM     23  C   LIG    1        6.303  -5.587  -0.533  0.00  0.00    +0.000 A 
ATOM     24  C   LIG    1        6.321  -6.815  -1.169  0.00  0.00    +0.010 A 
ATOM     25  C   LIG    1        6.480  -6.880  -2.540  0.00  0.00    +0.000 A 
ATOM     26  C   LIG    1        6.621  -5.719  -3.276  0.00  0.00    +0.010 A 
ENDBRANCH  20  21
ENDBRANCH  15  20
ENDBRANCH   1  16
TORSDOF 7
