REMARK  Name = ZINCkj000005hv5N.0
REMARK                            x       y       z     vdW  Elec       q    Type
REMARK                         _______ _______ _______ _____ _____    ______ ____
ROOT
ATOM      1  C   LIG    1        1.370   1.534  -0.003  0.00  0.00    +0.170 C 
ATOM      2  C   LIG    1        1.743   1.793  -1.474  0.00  0.00    +0.090 C 
ATOM      3  C   LIG    1        0.483   1.409  -2.284  0.00  0.00    +0.080 C 
ATOM      4  C   LIG    1       -0.650   1.515  -1.233  0.00  0.00    +0.270 C 
ATOM      5  N   LIG    1       -0.012   1.005   0.008  0.00  0.00    -0.380 N 
ATOM      6  H   LIG    1        0.002  -0.004   0.002  0.00  0.00    +0.430 HD
ENDROOT
BRANCH   1  10
ATOM      7  C   LIG    1        4.542  -0.184   1.277  0.00  0.00    +0.310 C 
ATOM      8  N   LIG    1        3.627   0.798   0.691  0.00  0.00    -0.700 N 
ATOM      9  H   LIG    1        3.968   1.647   0.369  0.00  0.00    +0.410 HD
ATOM     10  C   LIG    1        2.311   0.523   0.600  0.00  0.00    +0.500 C 
ATOM     11  O   LIG    1        1.884  -0.539   1.002  0.00  0.00    -0.520 OA
ENDBRANCH   1  10
BRANCH   5  12
ATOM     12  C   LIG    1       -0.733   1.496   1.189  0.00  0.00    +0.270 C 
BRANCH  12  13
ATOM     13  C   LIG    1       -2.124   0.861   1.238  0.00  0.00    +0.110 C 
BRANCH  13  14
ATOM     14  C   LIG    1       -2.865   1.364   2.450  0.00  0.00    -0.060 A 
ATOM     15  C   LIG    1       -2.771   0.683   3.649  0.00  0.00    +0.040 A 
ATOM     16  C   LIG    1       -3.446   1.148   4.762  0.00  0.00    +0.110 A 
ATOM     17  C   LIG    1       -4.223   2.288   4.674  0.00  0.00    -0.030 A 
ATOM     18  C   LIG    1       -4.321   2.966   3.473  0.00  0.00    +0.110 A 
ATOM     19  C   LIG    1       -3.641   2.504   2.361  0.00  0.00    +0.040 A 
BRANCH  17  20
ATOM     20  N   LIG    1       -4.950   2.783   5.864  0.00  0.00    +0.020 N 
ATOM     21  O   LIG    1       -4.863   2.185   6.922  0.00  0.00    -0.140 OA
ATOM     22  O   LIG    1       -5.634   3.787   5.786  0.00  0.00    -0.140 OA
ENDBRANCH  17  20
ENDBRANCH  13  14
ENDBRANCH  12  13
ENDBRANCH   5  12
TORSDOF 5
