REMARK  Name = ZINCkj000005hv5N.1
REMARK                            x       y       z     vdW  Elec       q    Type
REMARK                         _______ _______ _______ _____ _____    ______ ____
ROOT
ATOM      1  C   LIG    1       -7.302   4.998   2.873  0.00  0.00    +0.160 C 
ATOM      2  C   LIG    1       -7.625   6.410   3.399  0.00  0.00    +0.100 C 
ATOM      3  C   LIG    1       -7.676   7.262   2.103  0.00  0.00    +0.080 C 
ATOM      4  C   LIG    1       -6.567   6.598   1.248  0.00  0.00    +0.270 C 
ATOM      5  N   LIG    1       -6.672   5.155   1.549  0.00  0.00    -0.380 N 
ATOM      6  H   LIG    1       -7.239   4.702   0.848  0.00  0.00    +0.430 HD
ENDROOT
BRANCH   1  10
ATOM      7  C   LIG    1       -5.798   2.491   5.344  0.00  0.00    +0.310 C 
ATOM      8  N   LIG    1       -6.722   3.165   4.428  0.00  0.00    -0.710 N 
ATOM      9  H   LIG    1       -7.601   2.789   4.263  0.00  0.00    +0.410 HD
ATOM     10  C   LIG    1       -6.351   4.306   3.815  0.00  0.00    +0.500 C 
ATOM     11  O   LIG    1       -5.252   4.776   4.021  0.00  0.00    -0.510 OA
ENDBRANCH   1  10
BRANCH   5  12
ATOM     12  C   LIG    1       -5.331   4.555   1.566  0.00  0.00    +0.260 C 
BRANCH  12  13
ATOM     13  C   LIG    1       -4.742   4.584   0.154  0.00  0.00    +0.100 C 
BRANCH  13  14
ATOM     14  C   LIG    1       -3.366   3.969   0.172  0.00  0.00    -0.050 A 
ATOM     15  C   LIG    1       -3.213   2.612  -0.042  0.00  0.00    +0.040 A 
ATOM     16  C   LIG    1       -1.951   2.047  -0.027  0.00  0.00    +0.110 A 
ATOM     17  C   LIG    1       -0.842   2.840   0.203  0.00  0.00    -0.030 A 
ATOM     18  C   LIG    1       -0.996   4.196   0.423  0.00  0.00    +0.110 A 
ATOM     19  C   LIG    1       -2.257   4.761   0.402  0.00  0.00    +0.050 A 
BRANCH  17  20
ATOM     20  N   LIG    1        0.509   2.236   0.220  0.00  0.00    +0.020 N 
ATOM     21  O   LIG    1        1.486   2.935   0.418  0.00  0.00    -0.140 OA
ATOM     22  O   LIG    1        0.643   1.040   0.032  0.00  0.00    -0.150 OA
ENDBRANCH  17  20
ENDBRANCH  13  14
ENDBRANCH  12  13
ENDBRANCH   5  12
TORSDOF 5
