REMARK  Name = ZINCnE000001Ia1g.1
REMARK                            x       y       z     vdW  Elec       q    Type
REMARK                         _______ _______ _______ _____ _____    ______ ____
ROOT
ATOM      1  N   LIG    1       -1.277   1.350  -3.434  0.00  0.00    -0.710 NA
ATOM      2  C   LIG    1       -0.624   0.903  -2.344  0.00  0.00    +0.660 C 
ATOM      3  N   LIG    1       -0.723   1.572  -1.178  0.00  0.00    -0.740 N 
ATOM      4  H   LIG    1       -1.264   2.375  -1.123  0.00  0.00    +0.390 HD
ATOM      5  O   LIG    1        0.055  -0.103  -2.412  0.00  0.00    -0.620 OA
ENDROOT
BRANCH   3   6
ATOM      6  C   LIG    1       -0.013   1.086   0.008  0.00  0.00    +0.260 C 
ATOM      7  C   LIG    1        1.423   1.617  -0.003  0.00  0.00    +0.000 C 
ATOM      8  C   LIG    1        2.140   1.153   1.268  0.00  0.00    +0.020 C 
ATOM      9  C   LIG    1        1.366   1.645   2.493  0.00  0.00    +0.180 C 
ATOM     10  N   LIG    1       -0.001   1.110   2.458  0.00  0.00    -0.490 N 
ATOM     11  C   LIG    1       -0.725   1.580   1.269  0.00  0.00    +0.190 C 
BRANCH  10  12
ATOM     12  C   LIG    1       -0.695   1.431   3.626  0.00  0.00    +0.120 A 
ATOM     13  C   LIG    1       -1.899   2.120   3.553  0.00  0.00    -0.040 A 
ATOM     14  C   LIG    1       -2.586   2.432   4.710  0.00  0.00    +0.030 A 
ATOM     15  C   LIG    1       -2.070   2.069   5.941  0.00  0.00    -0.030 A 
ATOM     16  C   LIG    1       -0.869   1.389   6.018  0.00  0.00    +0.020 A 
ATOM     17  C   LIG    1       -0.180   1.069   4.864  0.00  0.00    -0.020 A 
ENDBRANCH  10  12
ENDBRANCH   3   6
BRANCH   1  21
ATOM     18  C   LIG    1       -1.238  -0.276  -6.913  0.00  0.00    -0.340 A 
ATOM     19  C   LIG    1       -0.496  -0.944  -6.029  0.00  0.00    +0.230 A 
ATOM     20  N   LIG    1       -0.476  -0.416  -4.819  0.00  0.00    -0.570 NA
ATOM     21  C   LIG    1       -1.175   0.661  -4.637  0.00  0.00    +0.360 A 
ATOM     22  S   LIG    1       -1.947   1.113  -6.094  0.00  0.00    +0.000 S 
BRANCH  18  24
ATOM     23  C   LIG    1       -2.650  -1.568  -8.490  0.00  0.00    +0.010 C 
ATOM     24  C   LIG    1       -1.436  -0.646  -8.361  0.00  0.00    +0.100 C 
ENDBRANCH  18  24
ENDBRANCH   1  21
TORSDOF 4
