REMARK  Name = ZINCqH0000008Ogh.0
REMARK                            x       y       z     vdW  Elec       q    Type
REMARK                         _______ _______ _______ _____ _____    ______ ____
ROOT
ATOM      1  C   LIG    1       -0.150   1.385  -0.156  0.00  0.00    +0.070 C 
ATOM      2  C   LIG    1       -0.068  -0.138  -0.033  0.00  0.00    +0.160 C 
ATOM      3  O   LIG    1       -1.377  -0.700   0.219  0.00  0.00    -0.350 OA
ATOM      4  C   LIG    1       -1.097  -1.965   0.855  0.00  0.00    +0.310 C 
ATOM      5  N   LIG    1        0.036  -1.712   1.766  0.00  0.00    -0.610 N 
ATOM      6  C   LIG    1        0.358  -2.409   2.874  0.00  0.00    +0.680 C 
ATOM      7  O   LIG    1        1.268  -2.033   3.586  0.00  0.00    -0.550 OA
ATOM      8  C   LIG    1       -2.316  -2.442   1.647  0.00  0.00    +0.090 C 
ATOM      9  C   LIG    1       -0.707  -3.008  -0.195  0.00  0.00    +0.040 C 
ATOM     10  C   LIG    1        0.746  -0.539   1.216  0.00  0.00    +0.210 C 
ENDROOT
BRANCH   6  11
ATOM     11  O   LIG    1       -0.330  -3.522   3.192  0.00  0.00    -0.350 OA
BRANCH  11  12
ATOM     12  C   LIG    1        0.071  -4.222   4.400  0.00  0.00    +0.130 C 
ATOM     13  C   LIG    1        1.531  -4.663   4.272  0.00  0.00    +0.040 C 
ATOM     14  C   LIG    1       -0.818  -5.452   4.596  0.00  0.00    +0.080 C 
ATOM     15  C   LIG    1       -0.076  -3.289   5.603  0.00  0.00    +0.040 C 
ENDBRANCH  11  12
ENDBRANCH   6  11
BRANCH  10  16
ATOM     16  C   LIG    1        2.175  -0.918   0.823  0.00  0.00    +0.290 C 
BRANCH  16  17
ATOM     17  N   LIG    1        2.869   0.265   0.307  0.00  0.00    -0.700 N 
ATOM     18  H   LIG    1        2.436   1.133   0.336  0.00  0.00    +0.410 HD
BRANCH  17  19
ATOM     19  C   LIG    1        4.145   0.145  -0.222  0.00  0.00    +0.450 A 
ATOM     20  N   LIG    1        4.731  -1.044  -0.251  0.00  0.00    -0.520 NA
ATOM     21  C   LIG    1        5.939  -1.206  -0.748  0.00  0.00    +0.400 A 
ATOM     22  C   LIG    1        6.651  -0.117  -1.254  0.00  0.00    -0.130 A 
ATOM     23  C   LIG    1        6.057   1.154  -1.231  0.00  0.00    +0.190 A 
ATOM     24  C   LIG    1        4.796   1.277  -0.710  0.00  0.00    -0.160 A 
ATOM     25 CL   LIG    1        4.017   2.828  -0.658  0.00  0.00    -0.050 Cl
BRANCH  22  26
ATOM     26  C   LIG    1        7.967  -0.295  -1.790  0.00  0.00    +0.260 C 
ATOM     27  N   LIG    1        9.011  -0.436  -2.215  0.00  0.00    -0.410 NA
ENDBRANCH  22  26
ENDBRANCH  17  19
ENDBRANCH  16  17
ENDBRANCH  10  16
TORSDOF 6
