REMARK  Name = ZINCpe00000MBxBW.1
REMARK                            x       y       z     vdW  Elec       q    Type
REMARK                         _______ _______ _______ _____ _____    ______ ____
ROOT
ATOM      1  C   LIG    1       -2.447   4.120   0.218  0.00  0.00    +0.530 C 
ATOM      2  N   LIG    1       -3.606   3.689   0.755  0.00  0.00    -0.620 N 
ATOM      3  C   LIG    1       -3.634   2.538   1.671  0.00  0.00    +0.250 C 
ATOM      4  C   LIG    1       -4.413   2.947   2.932  0.00  0.00    +0.240 C 
ATOM      5  O   LIG    1       -5.682   3.482   2.546  0.00  0.00    -0.380 OA
ATOM      6  C   LIG    1       -5.600   4.670   1.755  0.00  0.00    +0.270 C 
ATOM      7  C   LIG    1       -4.880   4.353   0.439  0.00  0.00    +0.300 C 
ATOM      8  O   LIG    1       -2.433   5.118  -0.471  0.00  0.00    -0.520 OA
ENDROOT
BRANCH   1  13
ATOM      9  C   LIG    1        2.671   1.568   0.021  0.00  0.00    +0.280 C 
ATOM     10  N   LIG    1        1.368   2.236   0.073  0.00  0.00    -0.610 N 
ATOM     11  C   LIG    1        1.300   3.553   0.695  0.00  0.00    +0.270 C 
ATOM     12  C   LIG    1        0.032   4.287   0.257  0.00  0.00    +0.060 C 
ATOM     13  C   LIG    1       -1.171   3.361   0.472  0.00  0.00    -0.010 C 
ATOM     14  C   LIG    1       -1.060   2.193  -0.515  0.00  0.00    +0.100 C 
ATOM     15  C   LIG    1        0.319   1.603  -0.452  0.00  0.00    +0.520 C 
ATOM     16  O   LIG    1        0.489   0.491  -0.908  0.00  0.00    -0.550 OA
ENDBRANCH   1  13
BRANCH   6  17
ATOM     17  C   LIG    1       -6.988   5.177   1.461  0.00  0.00    +0.180 A 
ATOM     18  N   LIG    1       -7.297   6.182   0.688  0.00  0.00    -0.270 NA
ATOM     19  N   LIG    1       -8.574   6.334   0.665  0.00  0.00    -0.280 NA
ATOM     20  C   LIG    1       -9.137   5.432   1.421  0.00  0.00    +0.200 A 
ATOM     21  N   LIG    1       -8.148   4.669   1.944  0.00  0.00    -0.560 N 
ATOM     22  H   LIG    1       -8.248   3.914   2.545  0.00  0.00    +0.430 HD
BRANCH  20  23
ATOM     23  C   LIG    1      -10.616   5.267   1.664  0.00  0.00    +0.020 C 
ATOM     24  C   LIG    1      -10.987   3.787   1.561  0.00  0.00    +0.040 C 
ATOM     25  C   LIG    1      -11.396   6.063   0.617  0.00  0.00    +0.070 C 
ATOM     26  C   LIG    1      -10.964   5.784   3.062  0.00  0.00    +0.040 C 
ENDBRANCH  20  23
ENDBRANCH   6  17
TORSDOF 3
