REMARK  Name = ZINCpe00000MBxBW.2
REMARK                            x       y       z     vdW  Elec       q    Type
REMARK                         _______ _______ _______ _____ _____    ______ ____
ROOT
ATOM      1  C   LIG    1       -1.049   0.717   2.202  0.00  0.00    +0.530 C 
ATOM      2  N   LIG    1       -1.093   1.515   1.117  0.00  0.00    -0.610 N 
ATOM      3  C   LIG    1       -0.802   0.986  -0.225  0.00  0.00    +0.250 C 
ATOM      4  C   LIG    1       -1.938   1.402  -1.167  0.00  0.00    +0.230 C 
ATOM      5  O   LIG    1       -2.136   2.815  -1.070  0.00  0.00    -0.360 OA
ATOM      6  C   LIG    1       -2.540   3.262   0.226  0.00  0.00    +0.270 C 
ATOM      7  C   LIG    1       -1.435   2.941   1.239  0.00  0.00    +0.280 C 
ATOM      8  O   LIG    1       -1.199   1.189   3.309  0.00  0.00    -0.520 OA
ENDROOT
BRANCH   1  13
ATOM      9  C   LIG    1        0.456  -4.785   2.660  0.00  0.00    +0.280 C 
ATOM     10  N   LIG    1        0.058  -3.379   2.554  0.00  0.00    -0.610 N 
ATOM     11  C   LIG    1       -1.284  -3.014   2.989  0.00  0.00    +0.260 C 
ATOM     12  C   LIG    1       -1.370  -1.511   3.257  0.00  0.00    +0.060 C 
ATOM     13  C   LIG    1       -0.813  -0.763   2.040  0.00  0.00    -0.010 C 
ATOM     14  C   LIG    1        0.690  -1.038   1.949  0.00  0.00    +0.100 C 
ATOM     15  C   LIG    1        0.947  -2.513   2.066  0.00  0.00    +0.520 C 
ATOM     16  O   LIG    1        2.021  -2.940   1.697  0.00  0.00    -0.550 OA
ENDBRANCH   1  13
BRANCH   6  17
ATOM     17  C   LIG    1       -2.778   4.750   0.194  0.00  0.00    +0.230 A 
ATOM     18  N   LIG    1       -1.994   5.632  -0.369  0.00  0.00    -0.280 NA
ATOM     19  N   LIG    1       -2.587   6.889  -0.166  0.00  0.00    -0.480 N 
ATOM     20  H   LIG    1       -2.248   7.747  -0.466  0.00  0.00    +0.440 HD
ATOM     21  C   LIG    1       -3.719   6.667   0.524  0.00  0.00    +0.300 A 
ATOM     22  N   LIG    1       -3.824   5.379   0.728  0.00  0.00    -0.520 NA
BRANCH  21  23
ATOM     23  C   LIG    1       -4.700   7.717   0.977  0.00  0.00    +0.010 C 
ATOM     24  C   LIG    1       -4.721   7.770   2.506  0.00  0.00    +0.060 C 
ATOM     25  C   LIG    1       -6.097   7.367   0.460  0.00  0.00    +0.060 C 
ATOM     26  C   LIG    1       -4.279   9.081   0.425  0.00  0.00    +0.040 C 
ENDBRANCH  21  23
ENDBRANCH   6  17
TORSDOF 3
