REMARK  Name = ZINCqH000000235A.0
REMARK                            x       y       z     vdW  Elec       q    Type
REMARK                         _______ _______ _______ _____ _____    ______ ____
ROOT
ATOM      1  C   LIG    1       -2.915   8.138   3.293  0.00  0.00    +0.030 C 
ATOM      2  C   LIG    1       -1.994   7.852   2.105  0.00  0.00    +0.200 C 
ATOM      3  C   LIG    1       -2.120   8.981   1.060  0.00  0.00    -0.020 C 
ATOM      4  C   LIG    1       -3.129   8.395   0.036  0.00  0.00    +0.070 C 
ATOM      5  C   LIG    1       -2.740   6.894   0.043  0.00  0.00    +0.260 C 
ATOM      6  C   LIG    1       -0.544   7.744   2.580  0.00  0.00    +0.050 C 
ATOM      7  N   LIG    1       -2.400   6.601   1.448  0.00  0.00    -0.630 N 
ATOM      8  C   LIG    1       -2.447   5.387   2.031  0.00  0.00    +0.730 C 
ATOM      9  N   LIG    1       -2.838   4.312   1.318  0.00  0.00    -0.740 N 
ATOM     10  H   LIG    1       -3.085   4.412   0.385  0.00  0.00    +0.400 HD
ATOM     11  O   LIG    1       -2.138   5.262   3.200  0.00  0.00    -0.570 OA
ENDROOT
BRANCH   3  12
ATOM     12  C   LIG    1       -2.677  10.253   1.701  0.00  0.00    +0.470 C 
ATOM     13  F   LIG    1       -3.942   9.990   2.237  0.00  0.00    -0.170 F 
ATOM     14  F   LIG    1       -2.781  11.257   0.733  0.00  0.00    -0.180 F 
ATOM     15  F   LIG    1       -1.817  10.676   2.721  0.00  0.00    -0.180 F 
ENDBRANCH   3  12
BRANCH   9  16
ATOM     16  C   LIG    1       -2.890   2.992   1.952  0.00  0.00    +0.350 C 
BRANCH  16  17
ATOM     17  C   LIG    1       -3.354   1.970   0.947  0.00  0.00    -0.110 A 
ATOM     18  C   LIG    1       -4.669   1.548   0.947  0.00  0.00    +0.060 A 
ATOM     19  C   LIG    1       -5.096   0.610   0.025  0.00  0.00    +0.030 A 
ATOM     20  C   LIG    1       -4.208   0.091  -0.899  0.00  0.00    +0.050 A 
ATOM     21  C   LIG    1       -2.893   0.513  -0.907  0.00  0.00    +0.010 A 
ATOM     22  C   LIG    1       -2.460   1.451   0.020  0.00  0.00    +0.130 A 
BRANCH  22  23
ATOM     23  N   LIG    1       -1.125   1.878   0.017  0.00  0.00    -0.420 N 
ATOM     24  C   LIG    1       -0.013   1.076   0.008  0.00  0.00    +0.130 A 
ATOM     25  C   LIG    1        1.058   1.893   0.002  0.00  0.00    +0.150 A 
ATOM     26  N   LIG    1        0.617   3.160   0.013  0.00  0.00    -0.480 NA
ATOM     27  C   LIG    1       -0.688   3.164   0.025  0.00  0.00    +0.390 A 
ENDBRANCH  22  23
ENDBRANCH  16  17
ENDBRANCH   9  16
TORSDOF 4
