REMARK  Name = ZINCrD0000074Fen.0
REMARK                            x       y       z     vdW  Elec       q    Type
REMARK                         _______ _______ _______ _____ _____    ______ ____
ROOT
ATOM      1  C   LIG    1       -2.109  11.483  -0.642  0.00  0.00    +0.560 C 
ATOM      2  N   LIG    1       -1.967  10.209  -0.227  0.00  0.00    -0.610 N 
ATOM      3  C   LIG    1       -3.134   9.321  -0.125  0.00  0.00    +0.290 C 
ATOM      4  C   LIG    1       -3.198   8.759   1.301  0.00  0.00    +0.290 C 
ATOM      5  N   LIG    1       -1.874   8.232   1.659  0.00  0.00    -0.610 N 
ATOM      6  C   LIG    1       -0.708   9.122   1.562  0.00  0.00    +0.280 C 
ATOM      7  C   LIG    1       -1.732   6.958   2.073  0.00  0.00    +0.530 C 
ATOM      8  O   LIG    1       -2.682   6.204   2.054  0.00  0.00    -0.530 OA
ATOM      9  C   LIG    1       -0.642   9.682   0.131  0.00  0.00    +0.270 C 
ATOM     10  O   LIG    1       -3.218  11.932  -0.859  0.00  0.00    -0.520 OA
ENDROOT
BRANCH   1  16
ATOM     11  C   LIG    1        2.700  11.961  -1.880  0.00  0.00    +0.100 C 
ATOM     12  C   LIG    1        1.397  12.571  -1.428  0.00  0.00    -0.100 A 
ATOM     13  C   LIG    1        1.318  13.932  -1.190  0.00  0.00    +0.080 A 
ATOM     14  C   LIG    1        0.129  14.501  -0.776  0.00  0.00    +0.000 A 
ATOM     15  C   LIG    1       -0.992  13.711  -0.595  0.00  0.00    +0.150 A 
ATOM     16  C   LIG    1       -0.918  12.335  -0.833  0.00  0.00    -0.170 A 
ATOM     17  F   LIG    1       -2.154  14.267  -0.188  0.00  0.00    -0.120 F 
ATOM     18  C   LIG    1        0.290  11.769  -1.247  0.00  0.00    +0.080 A 
ENDBRANCH   1  16
BRANCH   7  19
ATOM     19  C   LIG    1       -0.392   6.469   2.561  0.00  0.00    -0.040 C 
ATOM     20  C   LIG    1       -0.542   5.060   3.139  0.00  0.00    +0.070 C 
ATOM     21  C   LIG    1        0.596   6.439   1.393  0.00  0.00    +0.070 C 
BRANCH  19  22
ATOM     22  C   LIG    1        0.122   7.398   3.631  0.00  0.00    -0.080 A 
ATOM     23  C   LIG    1        1.419   7.269   4.093  0.00  0.00    +0.020 A 
ATOM     24  C   LIG    1        1.891   8.121   5.074  0.00  0.00    +0.000 A 
ATOM     25  C   LIG    1        1.066   9.102   5.593  0.00  0.00    +0.000 A 
ATOM     26  C   LIG    1       -0.232   9.227   5.134  0.00  0.00    +0.000 A 
ATOM     27  C   LIG    1       -0.702   8.379   4.149  0.00  0.00    +0.010 A 
ENDBRANCH  19  22
ENDBRANCH   7  19
TORSDOF 3
