REMARK  Name = ZINCrH000004k0jv.0
REMARK                            x       y       z     vdW  Elec       q    Type
REMARK                         _______ _______ _______ _____ _____    ______ ____
ROOT
ATOM      1  C   LIG    1        2.380   1.399  -0.026  0.00  0.00    -0.200 A 
ATOM      2  C   LIG    1        2.387   0.019  -0.043  0.00  0.00    +0.060 A 
ATOM      3  C   LIG    1        1.194  -0.680  -0.043  0.00  0.00    -0.010 A 
ATOM      4  C   LIG    1       -0.010   0.000  -0.025  0.00  0.00    +0.080 A 
ATOM      5  C   LIG    1       -0.024   1.381  -0.007  0.00  0.00    +0.030 A 
ATOM      6  C   LIG    1        1.173   2.086  -0.008  0.00  0.00    +0.180 A 
ENDROOT
BRANCH   6   7
ATOM      7  N   LIG    1        1.162   3.484   0.009  0.00  0.00    -0.680 N 
ATOM      8  H   LIG    1        1.918   3.979  -0.343  0.00  0.00    +0.420 HD
ATOM      9  C   LIG    1        0.102   4.144   0.516  0.00  0.00    +0.590 C 
ATOM     10  O   LIG    1       -0.800   3.527   1.048  0.00  0.00    -0.500 OA
BRANCH   9  11
ATOM     11  C   LIG    1        0.035   5.623   0.423  0.00  0.00    +0.030 A 
ATOM     12  C   LIG    1       -1.065   6.295   0.950  0.00  0.00    +0.030 A 
ATOM     13  C   LIG    1       -1.120   7.676   0.860  0.00  0.00    +0.100 A 
ATOM     14  C   LIG    1       -0.058   8.344   0.239  0.00  0.00    -0.140 A 
ATOM     15  C   LIG    1        1.012   7.598  -0.265  0.00  0.00    +0.300 A 
ATOM     16  N   LIG    1        1.027   6.288  -0.155  0.00  0.00    -0.480 NA
BRANCH  14  17
ATOM     17  C   LIG    1       -0.068   9.816   0.117  0.00  0.00    +0.520 C 
ATOM     18  O   LIG    1        0.864  10.391  -0.428  0.00  0.00    -0.670 OA
ATOM     19  O   LIG    1       -1.008  10.460   0.560  0.00  0.00    -0.670 OA
ENDBRANCH  14  17
ENDBRANCH   9  11
ENDBRANCH   6   7
BRANCH   1  20
ATOM     20  C   LIG    1        3.681   2.160  -0.025  0.00  0.00    +0.310 C 
BRANCH  20  22
ATOM     21  C   LIG    1        4.229   1.423   2.191  0.00  0.00    +0.310 C 
ATOM     22  N   LIG    1        3.992   2.598   1.342  0.00  0.00    -0.390 N 
ATOM     23  H   LIG    1        3.216   3.127   1.710  0.00  0.00    +0.420 HD
BRANCH  22  24
ATOM     24  C   LIG    1        5.195   3.440   1.325  0.00  0.00    +0.160 C 
ATOM     25  C   LIG    1        5.519   3.896   2.749  0.00  0.00    +0.040 C 
ATOM     26  C   LIG    1        6.772   4.774   2.731  0.00  0.00    +0.040 C 
ATOM     27  C   LIG    1        6.525   5.998   1.848  0.00  0.00    +0.020 C 
ATOM     28  C   LIG    1        6.202   5.542   0.423  0.00  0.00    +0.050 C 
ATOM     29  C   LIG    1        4.948   4.665   0.441  0.00  0.00    +0.030 C 
ENDBRANCH  22  24
ENDBRANCH  20  22
ENDBRANCH   1  20
TORSDOF 6
