REMARK  Name = ZINCrH000004k0jv.1
REMARK                            x       y       z     vdW  Elec       q    Type
REMARK                         _______ _______ _______ _____ _____    ______ ____
ROOT
ATOM      1  C   LIG    1       -2.176   1.580   1.093  0.00  0.00    -0.190 A 
ATOM      2  C   LIG    1       -3.053   2.491   0.540  0.00  0.00    +0.070 A 
ATOM      3  C   LIG    1       -4.405   2.205   0.482  0.00  0.00    +0.010 A 
ATOM      4  C   LIG    1       -4.884   1.011   0.989  0.00  0.00    +0.070 A 
ATOM      5  C   LIG    1       -4.013   0.097   1.549  0.00  0.00    +0.030 A 
ATOM      6  C   LIG    1       -2.654   0.379   1.603  0.00  0.00    +0.170 A 
ENDROOT
BRANCH   6   7
ATOM      7  N   LIG    1       -1.769  -0.543   2.170  0.00  0.00    -0.680 N 
ATOM      8  H   LIG    1       -0.871  -0.636   1.814  0.00  0.00    +0.420 HD
ATOM      9  C   LIG    1       -2.163  -1.303   3.211  0.00  0.00    +0.580 C 
ATOM     10  O   LIG    1       -3.312  -1.248   3.603  0.00  0.00    -0.500 OA
BRANCH   9  11
ATOM     11  C   LIG    1       -1.194  -2.207   3.878  0.00  0.00    +0.030 A 
ATOM     12  C   LIG    1       -1.611  -2.988   4.953  0.00  0.00    +0.030 A 
ATOM     13  C   LIG    1       -0.701  -3.829   5.570  0.00  0.00    +0.100 A 
ATOM     14  C   LIG    1        0.611  -3.860   5.084  0.00  0.00    -0.130 A 
ATOM     15  C   LIG    1        0.953  -3.046   3.999  0.00  0.00    +0.300 A 
ATOM     16  N   LIG    1        0.057  -2.265   3.439  0.00  0.00    -0.480 NA
BRANCH  14  17
ATOM     17  C   LIG    1        1.621  -4.741   5.707  0.00  0.00    +0.520 C 
ATOM     18  O   LIG    1        2.764  -4.761   5.275  0.00  0.00    -0.670 OA
ATOM     19  O   LIG    1        1.312  -5.449   6.655  0.00  0.00    -0.670 OA
ENDBRANCH  14  17
ENDBRANCH   9  11
ENDBRANCH   6   7
BRANCH   1  20
ATOM     20  C   LIG    1       -0.702   1.890   1.150  0.00  0.00    +0.310 C 
BRANCH  20  22
ATOM     21  C   LIG    1       -0.990   3.466   2.935  0.00  0.00    +0.310 C 
ATOM     22  N   LIG    1       -0.324   2.221   2.531  0.00  0.00    -0.390 N 
ATOM     23  H   LIG    1       -0.608   1.473   3.146  0.00  0.00    +0.420 HD
BRANCH  22  24
ATOM     24  C   LIG    1        1.132   2.396   2.611  0.00  0.00    +0.170 C 
ATOM     25  C   LIG    1        1.826   1.099   2.189  0.00  0.00    +0.040 C 
ATOM     26  C   LIG    1        3.342   1.281   2.273  0.00  0.00    +0.050 C 
ATOM     27  C   LIG    1        3.736   1.625   3.711  0.00  0.00    +0.020 C 
ATOM     28  C   LIG    1        3.043   2.922   4.133  0.00  0.00    +0.040 C 
ATOM     29  C   LIG    1        1.526   2.740   4.049  0.00  0.00    +0.040 C 
ENDBRANCH  22  24
ENDBRANCH  20  22
ENDBRANCH   1  20
TORSDOF 6
