REMARK  Name = ZINCqH0000002Z6y.0
REMARK                            x       y       z     vdW  Elec       q    Type
REMARK                         _______ _______ _______ _____ _____    ______ ____
ROOT
ATOM      1  N   LIG    1        2.775   2.914  -0.015  0.00  0.00    -0.600 N 
ATOM      2  C   LIG    1        2.300   1.655  -0.097  0.00  0.00    +0.730 C 
ATOM      3  N   LIG    1        3.127   0.642  -0.422  0.00  0.00    -0.560 N 
ATOM      4  C   LIG    1        4.572   0.772  -0.633  0.00  0.00    +0.270 C 
ATOM      5  C   LIG    1        5.058  -0.645  -0.979  0.00  0.00    +0.090 C 
ATOM      6  C   LIG    1        3.809  -1.497  -0.935  0.00  0.00    -0.140 A 
ATOM      7  C   LIG    1        3.627  -2.848  -1.159  0.00  0.00    +0.050 A 
ATOM      8  C   LIG    1        2.368  -3.407  -1.040  0.00  0.00    -0.010 A 
ATOM      9  C   LIG    1        1.288  -2.608  -0.712  0.00  0.00    +0.040 A 
ATOM     10  C   LIG    1        1.465  -1.258  -0.494  0.00  0.00    +0.010 A 
ATOM     11  C   LIG    1        2.735  -0.688  -0.602  0.00  0.00    +0.170 A 
ATOM     12  O   LIG    1        1.124   1.434   0.119  0.00  0.00    -0.570 OA
ENDROOT
BRANCH   1  14
ATOM     13  C   LIG    1        4.196   3.292  -1.970  0.00  0.00    +0.020 C 
ATOM     14  C   LIG    1        4.145   3.209  -0.443  0.00  0.00    +0.250 C 
ENDBRANCH   1  14
BRANCH   1  15
ATOM     15  C   LIG    1        1.921   3.987   0.500  0.00  0.00    +0.350 C 
BRANCH  15  16
ATOM     16  C   LIG    1        2.095   4.094   1.993  0.00  0.00    +0.490 C 
ATOM     17  N   LIG    1        1.404   5.019   2.688  0.00  0.00    -0.670 N 
ATOM     18  H   LIG    1        0.861   5.672   2.219  0.00  0.00    +0.410 HD
ATOM     19  O   LIG    1        2.858   3.347   2.570  0.00  0.00    -0.500 OA
BRANCH  17  20
ATOM     20  C   LIG    1        1.470   5.038   4.085  0.00  0.00    +0.140 A 
ATOM     21  C   LIG    1        1.230   3.878   4.809  0.00  0.00    -0.070 A 
ATOM     22  C   LIG    1        1.300   3.899   6.188  0.00  0.00    +0.010 A 
ATOM     23  C   LIG    1        1.599   5.077   6.849  0.00  0.00    +0.000 A 
ATOM     24  C   LIG    1        1.834   6.235   6.131  0.00  0.00    +0.010 A 
ATOM     25  C   LIG    1        0.898   2.596   4.090  0.00  0.00    +0.090 C 
ATOM     26  C   LIG    1        1.770   6.219   4.752  0.00  0.00    -0.100 A 
ATOM     27  C   LIG    1        2.026   7.482   3.970  0.00  0.00    +0.090 C 
ENDBRANCH  17  20
ENDBRANCH  15  16
ENDBRANCH   1  15
TORSDOF 4
