REMARK  Name = ZINCpe00000VVGwQ.0
REMARK                            x       y       z     vdW  Elec       q    Type
REMARK                         _______ _______ _______ _____ _____    ______ ____
ROOT
ATOM      1  C   LIG    1        0.543  -2.671  -2.355  0.00  0.00    +0.520 C 
ATOM      2  N   LIG    1        0.425  -4.000  -2.549  0.00  0.00    -0.660 N 
ATOM      3  H   LIG    1        0.426  -4.603  -1.789  0.00  0.00    +0.420 HD
ATOM      4  O   LIG    1        0.627  -1.924  -3.307  0.00  0.00    -0.490 OA
ENDROOT
BRANCH   2   5
ATOM      5  C   LIG    1        0.301  -4.510  -3.848  0.00  0.00    +0.150 A 
ATOM      6  C   LIG    1       -0.492  -5.624  -4.084  0.00  0.00    +0.000 A 
ATOM      7  C   LIG    1       -0.617  -6.125  -5.365  0.00  0.00    +0.050 A 
ATOM      8  C   LIG    1        0.057  -5.524  -6.417  0.00  0.00    +0.040 A 
ATOM      9  O   LIG    1       -0.072  -6.037  -7.672  0.00  0.00    -0.310 OA
ATOM     10  C   LIG    1        0.316  -5.188  -8.758  0.00  0.00    +0.220 C 
ATOM     11  C   LIG    1        1.671  -4.557  -8.412  0.00  0.00    +0.220 C 
ATOM     12  O   LIG    1        1.520  -3.803  -7.205  0.00  0.00    -0.300 OA
ATOM     13  C   LIG    1        0.855  -4.410  -6.184  0.00  0.00    +0.070 A 
ATOM     14  C   LIG    1        0.977  -3.905  -4.899  0.00  0.00    +0.030 A 
ENDBRANCH   2   5
BRANCH   1  16
ATOM     15  C   LIG    1        1.828  -2.607  -0.235  0.00  0.00    +0.070 C 
ATOM     16  C   LIG    1        0.572  -2.113  -0.955  0.00  0.00    +0.190 C 
BRANCH  16  17
ATOM     17  O   LIG    1        0.586  -0.663  -1.012  0.00  0.00    -0.330 OA
BRANCH  17  18
ATOM     18  C   LIG    1        0.011  -0.007   0.008  0.00  0.00    +0.450 C 
ATOM     19  O   LIG    1       -0.487  -0.625   0.919  0.00  0.00    -0.490 OA
BRANCH  18  20
ATOM     20  C   LIG    1       -0.013   1.500   0.018  0.00  0.00    +0.400 C 
BRANCH  20  21
ATOM     21  N   LIG    1       -0.692   1.970   1.228  0.00  0.00    -0.600 N 
ATOM     22  C   LIG    1        0.059   2.226   2.466  0.00  0.00    +0.380 C 
ATOM     23  S   LIG    1       -1.255   2.273   3.748  0.00  0.00    -0.230 S 
ATOM     24  C   LIG    1       -2.596   2.655   2.551  0.00  0.00    +0.170 C 
ATOM     25  C   LIG    1       -2.002   2.182   1.240  0.00  0.00    +0.520 C 
ATOM     26  O   LIG    1       -2.687   2.003   0.255  0.00  0.00    -0.510 OA
ENDBRANCH  20  21
ENDBRANCH  18  20
ENDBRANCH  17  18
ENDBRANCH  16  17
ENDBRANCH   1  16
TORSDOF 6
