REMARK  Name = ZINCpe00000MDQxi.2
REMARK                            x       y       z     vdW  Elec       q    Type
REMARK                         _______ _______ _______ _____ _____    ______ ____
ROOT
ATOM      1  C   LIG    1       -5.812   1.785   1.760  0.00  0.00    +0.200 C 
ATOM      2  N   LIG    1       -4.375   2.046   1.599  0.00  0.00    -0.550 NA
ATOM      3  C   LIG    1       -3.611   1.498   2.724  0.00  0.00    +0.180 C 
ATOM      4  C   LIG    1       -2.132   1.880   2.597  0.00  0.00    +0.050 C 
ATOM      5  C   LIG    1       -1.605   1.345   1.268  0.00  0.00    +0.140 C 
ATOM      6  O   LIG    1       -0.236   1.676   1.067  0.00  0.00    -0.370 OA
ATOM      7  C   LIG    1        0.318   1.111  -0.127  0.00  0.00    +0.210 C 
ATOM      8  C   LIG    1       -0.434   1.641  -1.352  0.00  0.00    +0.250 C 
ATOM      9  N   LIG    1       -1.883   1.470  -1.139  0.00  0.00    -0.590 N 
ATOM     10  C   LIG    1       -2.667   0.889  -2.068  0.00  0.00    +0.580 C 
ATOM     11  O   LIG    1       -3.842   0.687  -1.832  0.00  0.00    -0.530 OA
ATOM     12  C   LIG    1       -2.433   1.960   0.131  0.00  0.00    +0.220 C 
ATOM     13  C   LIG    1       -3.890   1.540   0.306  0.00  0.00    +0.210 C 
ENDROOT
BRANCH  10  14
ATOM     14  C   LIG    1       -2.098   0.498  -3.376  0.00  0.00    -0.090 A 
ATOM     15  C   LIG    1       -1.022  -0.388  -3.435  0.00  0.00    +0.030 A 
ATOM     16  C   LIG    1       -0.496  -0.750  -4.658  0.00  0.00    +0.020 A 
ATOM     17  C   LIG    1       -1.033  -0.235  -5.825  0.00  0.00    +0.030 A 
ATOM     18  C   LIG    1       -2.100   0.645  -5.773  0.00  0.00    +0.030 A 
ATOM     19  C   LIG    1       -2.639   1.010  -4.557  0.00  0.00    -0.070 A 
BRANCH  19  20
ATOM     20  C   LIG    1       -3.805   1.963  -4.503  0.00  0.00    +0.380 C 
BRANCH  20  21
ATOM     21  N   LIG    1       -3.314   3.321  -4.257  0.00  0.00    -0.380 N 
ATOM     22  C   LIG    1       -3.556   4.412  -5.004  0.00  0.00    +0.470 A 
ATOM     23  N   LIG    1       -2.942   5.427  -4.452  0.00  0.00    -0.540 NA
ATOM     24  C   LIG    1       -2.301   5.024  -3.355  0.00  0.00    +0.410 A 
ATOM     25  N   LIG    1       -2.503   3.743  -3.192  0.00  0.00    -0.310 NA
ENDBRANCH  20  21
ENDBRANCH  19  20
ENDBRANCH  10  14
TORSDOF 3
