REMARK  Name = ZINCkj00000MMOjs.0
REMARK                            x       y       z     vdW  Elec       q    Type
REMARK                         _______ _______ _______ _____ _____    ______ ____
ROOT
ATOM      1  N   LIG    1        4.295   0.193   1.396  0.00  0.00    -0.730 N 
ATOM      2  H   LIG    1        4.661  -0.132   0.558  0.00  0.00    +0.390 HD
ATOM      3  C   LIG    1        4.950  -0.035   2.551  0.00  0.00    +0.520 C 
ATOM      4  O   LIG    1        4.493   0.372   3.598  0.00  0.00    -0.490 OA
ENDROOT
BRANCH   3   5
ATOM      5  C   LIG    1        6.251  -0.796   2.542  0.00  0.00    -0.090 C 
ATOM      6  C   LIG    1        7.197  -0.392   1.396  0.00  0.00    +0.340 C 
ATOM      7  N   LIG    1        7.469  -1.839   1.243  0.00  0.00    -0.530 N 
ATOM      8  H   LIG    1        7.538  -2.125   0.278  0.00  0.00    +0.430 HD
ATOM      9  H   LIG    1        8.251  -2.153   1.798  0.00  0.00    +0.440 HD
ATOM     10  C   LIG    1        6.161  -2.169   1.851  0.00  0.00    +0.330 C 
BRANCH   5  11
ATOM     11  C   LIG    1        6.926  -0.840   3.914  0.00  0.00    -0.010 C 
ATOM     12  C   LIG    1        7.483  -2.185   4.385  0.00  0.00    +0.010 C 
ATOM     13  C   LIG    1        6.216  -1.615   5.026  0.00  0.00    +0.070 C 
ENDBRANCH   5  11
ENDBRANCH   3   5
BRANCH   1  14
ATOM     14  C   LIG    1        3.031   0.933   1.405  0.00  0.00    +0.280 C 
BRANCH  14  15
ATOM     15  C   LIG    1        2.499   1.052  -0.025  0.00  0.00    +0.080 C 
BRANCH  15  21
ATOM     16  C   LIG    1        1.205   3.200  -0.045  0.00  0.00    +0.130 A 
ATOM     17  C   LIG    1        0.006   3.898  -0.036  0.00  0.00    -0.080 A 
ATOM     18  C   LIG    1       -1.191   3.210   0.002  0.00  0.00    +0.060 A 
ATOM     19  C   LIG    1       -1.196   1.828   0.025  0.00  0.00    -0.020 A 
ATOM     20  C   LIG    1       -0.002   1.130   0.021  0.00  0.00    +0.060 A 
ATOM     21  C   LIG    1        1.198   1.813  -0.016  0.00  0.00    -0.130 A 
BRANCH  16  23
ATOM     22  C   LIG    1        2.316   5.301  -0.109  0.00  0.00    +0.240 C 
ATOM     23  O   LIG    1        2.385   3.874  -0.081  0.00  0.00    -0.320 OA
ENDBRANCH  16  23
ENDBRANCH  15  21
ENDBRANCH  14  15
ENDBRANCH   1  14
TORSDOF 6
