REMARK  Name = ZINCnE000004RcS5.0
REMARK                            x       y       z     vdW  Elec       q    Type
REMARK                         _______ _______ _______ _____ _____    ______ ____
ROOT
ATOM      1  N   LIG    1        2.141   1.400  -1.033  0.00  0.00    -0.510 NA
ATOM      2  C   LIG    1        1.321   2.102  -0.035  0.00  0.00    +0.210 C 
ATOM      3  C   LIG    1       -0.106   1.537  -0.050  0.00  0.00    +0.080 C 
ATOM      4  C   LIG    1       -0.009   0.032   0.016  0.00  0.00    +0.010 A 
ATOM      5  C   LIG    1        1.135  -0.645  -0.235  0.00  0.00    -0.100 A 
ATOM      6  N   LIG    1        0.858  -1.966  -0.081  0.00  0.00    -0.560 N 
ATOM      7  H   LIG    1        1.479  -2.703  -0.193  0.00  0.00    +0.410 HD
ATOM      8  C   LIG    1       -0.450  -2.060   0.258  0.00  0.00    +0.260 A 
ATOM      9  N   LIG    1       -0.958  -0.856   0.313  0.00  0.00    -0.450 NA
ATOM     10  C   LIG    1        2.433   0.018  -0.613  0.00  0.00    +0.310 C 
ENDROOT
BRANCH   1  12
ATOM     11  C   LIG    1        2.424   0.774  -3.384  0.00  0.00    +0.050 C 
ATOM     12  C   LIG    1        1.498   1.424  -2.354  0.00  0.00    +0.180 C 
BRANCH  12  13
ATOM     13  C   LIG    1        1.226   2.851  -2.754  0.00  0.00    -0.050 A 
ATOM     14  C   LIG    1        2.207   3.812  -2.596  0.00  0.00    +0.070 A 
ATOM     15  C   LIG    1        1.960   5.121  -2.967  0.00  0.00    +0.040 A 
ATOM     16  C   LIG    1        0.728   5.471  -3.487  0.00  0.00    -0.030 A 
ATOM     17  C   LIG    1       -0.257   4.510  -3.640  0.00  0.00    -0.030 A 
ATOM     18 CL   LIG    1       -1.805   4.948  -4.293  0.00  0.00    -0.050 Cl
ATOM     19 CL   LIG    1        0.415   7.116  -3.947  0.00  0.00    -0.060 Cl
ATOM     20  C   LIG    1       -0.007   3.200  -3.273  0.00  0.00    +0.050 A 
ENDBRANCH  12  13
ENDBRANCH   1  12
BRANCH   8  21
ATOM     21  C   LIG    1       -1.196  -3.341   0.528  0.00  0.00    +0.050 C 
BRANCH  21  22
ATOM     22  C   LIG    1       -1.837  -3.271   1.891  0.00  0.00    +0.500 C 
ATOM     23  O   LIG    1       -2.492  -4.212   2.305  0.00  0.00    -0.700 OA
ATOM     24  O   LIG    1       -1.700  -2.273   2.578  0.00  0.00    -0.670 OA
ENDBRANCH  21  22
ENDBRANCH   8  21
TORSDOF 4
