REMARK  Name = ZINCpe000000YsE1.0
REMARK                            x       y       z     vdW  Elec       q    Type
REMARK                         _______ _______ _______ _____ _____    ______ ____
ROOT
ATOM      1  N   LIG    1        5.033   0.722  -0.042  0.00  0.00    -0.530 N 
ATOM      2  H   LIG    1        4.814   1.667  -0.035  0.00  0.00    +0.410 HD
ATOM      3  C   LIG    1        6.322   0.328  -0.057  0.00  0.00    +0.600 C 
ATOM      4  O   LIG    1        6.595  -0.857  -0.066  0.00  0.00    -0.490 OA
ENDROOT
BRANCH   1   8
ATOM      5  N   LIG    1        2.416   1.473  -0.013  0.00  0.00    -0.650 N 
ATOM      6  H   LIG    1        3.125   2.135  -0.016  0.00  0.00    +0.400 HD
ATOM      7  C   LIG    1        2.719   0.160  -0.024  0.00  0.00    +0.730 C 
ATOM      8  N   LIG    1        4.008  -0.234  -0.038  0.00  0.00    -0.510 N 
ATOM      9  H   LIG    1        4.227  -1.179  -0.045  0.00  0.00    +0.460 HD
ATOM     10  O   LIG    1        1.830  -0.670  -0.020  0.00  0.00    -0.530 OA
BRANCH   5  16
ATOM     11  C   LIG    1        1.430   4.386   0.011  0.00  0.00    +0.370 C 
ATOM     12  N   LIG    1        0.622   3.163   0.013  0.00  0.00    -0.390 N 
ATOM     13  N   LIG    1       -0.778   3.081   0.026  0.00  0.00    -0.060 NA
ATOM     14  N   LIG    1       -1.107   1.836   0.017  0.00  0.00    -0.220 NA
ATOM     15  C   LIG    1       -0.013   1.076   0.008  0.00  0.00    +0.140 A 
ATOM     16  C   LIG    1        1.081   1.881   0.002  0.00  0.00    +0.290 A 
ENDBRANCH   5  16
ENDBRANCH   1   8
BRANCH   3  17
ATOM     17  C   LIG    1        7.398   1.332  -0.061  0.00  0.00    -0.040 A 
ATOM     18  C   LIG    1        8.758   1.087  -0.075  0.00  0.00    +0.060 A 
ATOM     19  C   LIG    1        9.364   2.357  -0.073  0.00  0.00    +0.070 A 
ATOM     20  N   LIG    1        8.402   3.256  -0.059  0.00  0.00    -0.240 NA
ATOM     21  N   LIG    1        7.249   2.691  -0.058  0.00  0.00    -0.380 N 
ATOM     22  H   LIG    1        6.399   3.158  -0.052  0.00  0.00    +0.440 HD
BRANCH  19  23
ATOM     23  C   LIG    1       10.822   2.633  -0.086  0.00  0.00    -0.030 A 
ATOM     24  C   LIG    1       11.732   1.578  -0.095  0.00  0.00    +0.070 A 
ATOM     25  C   LIG    1       13.087   1.839  -0.112  0.00  0.00    -0.010 A 
ATOM     26  C   LIG    1       13.543   3.147  -0.109  0.00  0.00    +0.110 A 
ATOM     27  C   LIG    1       12.641   4.199  -0.094  0.00  0.00    -0.010 A 
ATOM     28  F   LIG    1       14.870   3.398  -0.120  0.00  0.00    -0.140 F 
ATOM     29  C   LIG    1       11.285   3.947  -0.083  0.00  0.00    +0.080 A 
ENDBRANCH  19  23
ENDBRANCH   3  17
TORSDOF 4
