REMARK  Name = ZINCtV00000nmvJj.0
REMARK                            x       y       z     vdW  Elec       q    Type
REMARK                         _______ _______ _______ _____ _____    ______ ____
ROOT
ATOM      1  O   LIG    1       -1.148   1.561   3.580  0.00  0.00    -0.540 OA
ATOM      2  C   LIG    1       -0.408   1.133   2.715  0.00  0.00    +0.700 C 
ATOM      3  N   LIG    1       -0.303   1.780   1.537  0.00  0.00    -0.620 N 
ATOM      4  C   LIG    1        0.501   1.219   0.444  0.00  0.00    +0.270 C 
ATOM      5  C   LIG    1       -0.365   1.135  -0.817  0.00  0.00    +0.010 C 
ATOM      6  C   LIG    1       -0.958   2.513  -1.117  0.00  0.00    +0.020 C 
ATOM      7  C   LIG    1       -1.845   2.954   0.050  0.00  0.00    +0.020 C 
ATOM      8  C   LIG    1       -0.995   3.059   1.321  0.00  0.00    +0.290 C 
ATOM      9  N   LIG    1        0.308   0.013   2.934  0.00  0.00    -0.690 N 
ATOM     10  H   LIG    1        0.951  -0.289   2.273  0.00  0.00    +0.410 HD
ENDROOT
BRANCH   8  11
ATOM     11  C   LIG    1       -1.884   3.358   2.500  0.00  0.00    -0.060 A 
ATOM     12  C   LIG    1       -2.996   2.575   2.744  0.00  0.00    +0.100 A 
ATOM     13  C   LIG    1       -3.809   2.846   3.829  0.00  0.00    +0.010 A 
ATOM     14  C   LIG    1       -3.516   3.909   4.663  0.00  0.00    +0.070 A 
ATOM     15  C   LIG    1       -2.407   4.696   4.416  0.00  0.00    -0.180 A 
ATOM     16  C   LIG    1       -1.591   4.421   3.334  0.00  0.00    +0.060 A 
BRANCH  15  17
ATOM     17  C   LIG    1       -2.087   5.854   5.325  0.00  0.00    +0.510 C 
ATOM     18  F   LIG    1       -0.703   6.059   5.350  0.00  0.00    -0.180 F 
ATOM     19  F   LIG    1       -2.540   5.571   6.618  0.00  0.00    -0.180 F 
ATOM     20  F   LIG    1       -2.721   7.008   4.852  0.00  0.00    -0.180 F 
ENDBRANCH  15  17
ENDBRANCH   8  11
BRANCH   9  21
ATOM     21  C   LIG    1        0.125  -0.715   4.116  0.00  0.00    +0.160 A 
ATOM     22  C   LIG    1        0.218  -2.100   4.101  0.00  0.00    +0.010 A 
ATOM     23  C   LIG    1        0.038  -2.815   5.269  0.00  0.00    +0.040 A 
ATOM     24  C   LIG    1       -0.235  -2.153   6.452  0.00  0.00    +0.050 A 
ATOM     25  C   LIG    1       -0.329  -0.773   6.470  0.00  0.00    -0.160 A 
ATOM     26  C   LIG    1       -0.144  -0.052   5.306  0.00  0.00    +0.080 A 
BRANCH  25  27
ATOM     27  C   LIG    1       -0.626  -0.055   7.761  0.00  0.00    +0.510 C 
ATOM     28  F   LIG    1       -1.814   0.672   7.627  0.00  0.00    -0.170 F 
ATOM     29  F   LIG    1        0.424   0.818   8.062  0.00  0.00    -0.180 F 
ATOM     30  F   LIG    1       -0.766  -0.990   8.792  0.00  0.00    -0.180 F 
ENDBRANCH  25  27
ENDBRANCH   9  21
TORSDOF 4
