REMARK  Name = ZINCpe000000TEXW.0
REMARK                            x       y       z     vdW  Elec       q    Type
REMARK                         _______ _______ _______ _____ _____    ______ ____
ROOT
ATOM      1  N   LIG    1       -7.050  -0.470   0.219  0.00  0.00    -0.520 NA
ENDROOT
BRANCH   1   2
ATOM      2  C   LIG    1       -7.363  -1.065  -1.087  0.00  0.00    +0.170 C 
ATOM      3  C   LIG    1       -6.068  -1.518  -1.765  0.00  0.00    +0.070 C 
BRANCH   2   4
ATOM      4  C   LIG    1       -8.052  -0.041  -1.953  0.00  0.00    -0.070 A 
ATOM      5  C   LIG    1       -7.420   1.152  -2.249  0.00  0.00    +0.060 A 
ATOM      6  C   LIG    1       -8.050   2.089  -3.046  0.00  0.00    -0.010 A 
ATOM      7  C   LIG    1       -9.316   1.836  -3.540  0.00  0.00    -0.010 A 
ATOM      8  C   LIG    1       -9.950   0.645  -3.240  0.00  0.00    -0.010 A 
ATOM      9  C   LIG    1       -9.319  -0.293  -2.446  0.00  0.00    -0.010 A 
ENDBRANCH   2   4
ENDBRANCH   1   2
BRANCH   1  10
ATOM     10  C   LIG    1       -8.241  -0.427   1.077  0.00  0.00    +0.260 C 
BRANCH  10  11
ATOM     11  C   LIG    1       -9.091   0.758   0.698  0.00  0.00    +0.450 C 
ATOM     12  O   LIG    1       -8.629   1.637   0.010  0.00  0.00    -0.470 OA
BRANCH  11  13
ATOM     13  O   LIG    1      -10.362   0.836   1.123  0.00  0.00    -0.370 OA
BRANCH  13  15
ATOM     14  C   LIG    1      -12.536   1.919   1.295  0.00  0.00    +0.070 C 
ATOM     15  C   LIG    1      -11.122   2.006   0.719  0.00  0.00    +0.210 C 
ENDBRANCH  13  15
ENDBRANCH  11  13
ENDBRANCH  10  11
ENDBRANCH   1  10
BRANCH   1  16
ATOM     16  C   LIG    1       -5.953  -1.193   0.877  0.00  0.00    +0.300 C 
BRANCH  16  17
ATOM     17  C   LIG    1       -4.633  -0.665   0.376  0.00  0.00    -0.010 A 
ATOM     18  C   LIG    1       -3.879   0.304   0.946  0.00  0.00    +0.160 A 
ATOM     19  N   LIG    1       -2.790   0.448   0.156  0.00  0.00    -0.290 N 
ATOM     20  N   LIG    1       -2.885  -0.388  -0.818  0.00  0.00    -0.060 NA
ATOM     21  N   LIG    1       -3.973  -1.067  -0.716  0.00  0.00    -0.250 NA
BRANCH  19  22
ATOM     22  C   LIG    1       -1.689   1.390   0.375  0.00  0.00    +0.370 C 
BRANCH  22  23
ATOM     23  C   LIG    1       -0.384   0.637   0.409  0.00  0.00    +0.500 C 
ATOM     24  O   LIG    1       -0.374  -0.567   0.265  0.00  0.00    -0.510 OA
ATOM     25  N   LIG    1        0.773   1.303   0.595  0.00  0.00    -0.850 N 
ATOM     26  H   LIG    1        0.765   2.266   0.711  0.00  0.00    +0.400 HD
ATOM     27  H   LIG    1        1.613   0.819   0.613  0.00  0.00    +0.410 HD
ENDBRANCH  22  23
ENDBRANCH  19  22
ENDBRANCH  16  17
ENDBRANCH   1  16
TORSDOF 10
