REMARK  Name = ZINCrH000004rQWB.0
REMARK                            x       y       z     vdW  Elec       q    Type
REMARK                         _______ _______ _______ _____ _____    ______ ____
ROOT
ATOM      1  N   LIG    1       -3.155  -0.881   3.346  0.00  0.00    -0.490 N 
ATOM      2  C   LIG    1       -2.575   0.321   3.962  0.00  0.00    +0.190 C 
ATOM      3  C   LIG    1       -2.496   1.439   2.917  0.00  0.00    +0.300 C 
ATOM      4  N   LIG    1       -1.772   0.930   1.742  0.00  0.00    -0.610 N 
ATOM      5  C   LIG    1       -2.215  -0.340   1.147  0.00  0.00    +0.290 C 
ATOM      6  C   LIG    1       -0.734   1.614   1.220  0.00  0.00    +0.540 C 
ATOM      7  O   LIG    1       -0.386   2.662   1.720  0.00  0.00    -0.510 OA
ATOM      8  C   LIG    1       -2.300  -1.391   2.265  0.00  0.00    +0.190 C 
ENDROOT
BRANCH   1  14
ATOM      9  C   LIG    1       -4.773  -5.384   4.466  0.00  0.00    +0.090 C 
ATOM     10  C   LIG    1       -4.178  -4.061   4.876  0.00  0.00    -0.060 A 
ATOM     11  C   LIG    1       -3.868  -3.825   6.202  0.00  0.00    -0.020 A 
ATOM     12  C   LIG    1       -3.321  -2.613   6.583  0.00  0.00    +0.030 A 
ATOM     13  C   LIG    1       -3.083  -1.634   5.638  0.00  0.00    -0.050 A 
ATOM     14  C   LIG    1       -3.394  -1.868   4.304  0.00  0.00    +0.110 A 
ATOM     15  C   LIG    1       -3.947  -3.085   3.926  0.00  0.00    -0.020 A 
ENDBRANCH   1  14
BRANCH   6  16
ATOM     16  C   LIG    1       -0.006   1.075   0.016  0.00  0.00    +0.000 C 
ATOM     17  C   LIG    1       -0.738   1.504  -1.257  0.00  0.00    +0.080 C 
BRANCH  16  18
ATOM     18  S   LIG    1        1.686   1.728  -0.011  0.00  0.00    -0.050 S 
BRANCH  18  19
ATOM     19  C   LIG    1        2.433   0.841  -1.337  0.00  0.00    -0.090 A 
ATOM     20  C   LIG    1        2.977  -0.419  -1.114  0.00  0.00    +0.090 A 
ATOM     21  C   LIG    1        3.556  -1.113  -2.157  0.00  0.00    +0.100 A 
ATOM     22  C   LIG    1        3.606  -0.553  -3.420  0.00  0.00    -0.020 A 
ATOM     23  C   LIG    1        3.071   0.702  -3.645  0.00  0.00    +0.100 A 
ATOM     24  C   LIG    1        2.485   1.401  -2.608  0.00  0.00    +0.090 A 
BRANCH  22  25
ATOM     25  N   LIG    1        4.234  -1.298  -4.534  0.00  0.00    +0.020 N 
ATOM     26  O   LIG    1        4.706  -2.404  -4.338  0.00  0.00    -0.150 OA
ATOM     27  O   LIG    1        4.279  -0.805  -5.647  0.00  0.00    -0.150 OA
ENDBRANCH  22  25
ENDBRANCH  18  19
ENDBRANCH  16  18
ENDBRANCH   6  16
TORSDOF 5
