REMARK  Name = ZINCpk000005DsQY.0
REMARK                            x       y       z     vdW  Elec       q    Type
REMARK                         _______ _______ _______ _____ _____    ______ ____
ROOT
ATOM      1  N   LIG    1       -2.693  -2.385  -1.949  0.00  0.00    -0.720 N 
ATOM      2  H   LIG    1       -1.878  -2.175  -2.431  0.00  0.00    +0.400 HD
ATOM      3  C   LIG    1       -3.839  -2.601  -2.625  0.00  0.00    +0.560 C 
ATOM      4  O   LIG    1       -4.861  -2.866  -2.021  0.00  0.00    -0.480 OA
ENDROOT
BRANCH   3   5
ATOM      5  C   LIG    1       -3.854  -2.517  -4.097  0.00  0.00    -0.080 A 
ATOM      6  C   LIG    1       -2.694  -2.210  -4.792  0.00  0.00    +0.050 A 
ATOM      7  C   LIG    1       -2.697  -2.134  -6.181  0.00  0.00    +0.100 A 
ATOM      8  C   LIG    1       -3.842  -2.347  -6.894  0.00  0.00    +0.050 A 
ATOM      9  C   LIG    1       -5.039  -2.654  -6.228  0.00  0.00    -0.090 A 
ATOM     10  C   LIG    1       -6.233  -2.879  -6.938  0.00  0.00    +0.090 A 
ATOM     11  C   LIG    1       -7.362  -3.174  -6.226  0.00  0.00    -0.020 A 
ATOM     12  C   LIG    1       -7.307  -3.244  -4.837  0.00  0.00    +0.310 A 
ATOM     13  N   LIG    1       -6.191  -3.035  -4.179  0.00  0.00    -0.440 NA
ATOM     14  F   LIG    1       -1.552  -1.839  -6.834  0.00  0.00    -0.130 F 
ATOM     15  C   LIG    1       -5.056  -2.742  -4.814  0.00  0.00    +0.150 A 
ENDBRANCH   3   5
BRANCH   1  20
ATOM     16  C   LIG    1        0.004  -0.017   0.047  0.00  0.00    +0.500 C 
ATOM     17  N   LIG    1       -1.148  -0.717   0.085  0.00  0.00    -0.620 N 
ATOM     18  C   LIG    1       -2.499  -0.140   0.152  0.00  0.00    +0.250 C 
ATOM     19  C   LIG    1       -3.499  -1.315   0.146  0.00  0.00    +0.050 C 
ATOM     20  C   LIG    1       -2.678  -2.470  -0.486  0.00  0.00    +0.170 C 
ATOM     21  C   LIG    1       -3.192  -3.831  -0.013  0.00  0.00    +0.060 C 
ATOM     22  C   LIG    1       -1.261  -2.186   0.072  0.00  0.00    +0.270 C 
ATOM     23  O   LIG    1       -0.017   1.191   0.147  0.00  0.00    -0.530 OA
BRANCH  16  25
ATOM     24  C   LIG    1        1.624  -1.539   1.146  0.00  0.00    +0.030 C 
ATOM     25  C   LIG    1        1.317  -0.737  -0.120  0.00  0.00    +0.210 C 
BRANCH  25  26
ATOM     26  O   LIG    1        2.358   0.217  -0.344  0.00  0.00    -0.540 OA
ATOM     27  H   LIG    1        2.470   0.852   0.376  0.00  0.00    +0.390 HD
ENDBRANCH  25  26
ENDBRANCH  16  25
ENDBRANCH   1  20
TORSDOF 4
