REMARK  Name = ZINCrH000004mTGl.0
REMARK                            x       y       z     vdW  Elec       q    Type
REMARK                         _______ _______ _______ _____ _____    ______ ____
ROOT
ATOM      1  N   LIG    1        0.625   3.702   1.192  0.00  0.00    -1.010 NA
ATOM      2  C   LIG    1        0.058   4.816   0.403  0.00  0.00    +0.300 C 
ATOM      3  C   LIG    1       -1.046   3.813  -0.006  0.00  0.00    +0.000 C 
ATOM      4  C   LIG    1       -0.708   3.107  -1.302  0.00  0.00    +0.040 C 
ATOM      5  C   LIG    1       -0.759   1.596  -1.222  0.00  0.00    +0.010 C 
ATOM      6  C   LIG    1       -0.013   1.086   0.008  0.00  0.00    +0.020 C 
ATOM      7  C   LIG    1       -0.738   1.584   1.261  0.00  0.00    +0.040 C 
ATOM      8  C   LIG    1       -0.711   3.101   1.300  0.00  0.00    +0.240 C 
ENDROOT
BRANCH   8   9
ATOM      9  C   LIG    1       -1.493   3.640   2.470  0.00  0.00    -0.090 A 
ATOM     10  C   LIG    1       -2.754   4.172   2.272  0.00  0.00    +0.020 A 
ATOM     11  C   LIG    1       -3.473   4.662   3.346  0.00  0.00    +0.000 A 
ATOM     12  C   LIG    1       -2.929   4.629   4.616  0.00  0.00    +0.000 A 
ATOM     13  C   LIG    1       -1.666   4.102   4.813  0.00  0.00    +0.010 A 
ATOM     14  C   LIG    1       -0.948   3.607   3.740  0.00  0.00    +0.000 A 
ENDBRANCH   8   9
BRANCH   1  15
ATOM     15  S   LIG    1        2.138   3.299   1.729  0.00  0.00    +2.710 S 
ATOM     16  O   LIG    1        3.058   3.949   0.864  0.00  0.00    -0.940 OA
ATOM     17  O   LIG    1        2.129   1.893   1.938  0.00  0.00    -0.950 OA
BRANCH  15  22
ATOM     18  C   LIG    1        2.644   3.819   5.685  0.00  0.00    +0.080 A 
ATOM     19  C   LIG    1        2.662   5.200   5.811  0.00  0.00    +0.030 A 
ATOM     20  C   LIG    1        2.520   5.998   4.692  0.00  0.00    -0.050 A 
ATOM     21  C   LIG    1        2.365   5.417   3.442  0.00  0.00    +0.190 A 
ATOM     22  C   LIG    1        2.342   4.036   3.317  0.00  0.00    -0.680 A 
ATOM     23  C   LIG    1        2.484   3.239   4.435  0.00  0.00    +0.140 A 
BRANCH  18  25
ATOM     24  C   LIG    1        2.945   3.700   8.041  0.00  0.00    +0.240 C 
ATOM     25  O   LIG    1        2.784   3.034   6.786  0.00  0.00    -0.310 OA
ENDBRANCH  18  25
BRANCH  21  26
ATOM     26  O   LIG    1        2.230   6.202   2.340  0.00  0.00    -0.310 OA
ATOM     27  C   LIG    1        2.264   7.617   2.542  0.00  0.00    +0.260 C 
ENDBRANCH  21  26
ENDBRANCH  15  22
ENDBRANCH   1  15
TORSDOF 5
