REMARK  Name = ZINCrg000000pSl5.0
REMARK                            x       y       z     vdW  Elec       q    Type
REMARK                         _______ _______ _______ _____ _____    ______ ____
ROOT
ATOM      1  C   LIG    1       -2.641  -4.546   6.343  0.00  0.00    +0.340 C 
ENDROOT
BRANCH   1   4
ATOM      2  C   LIG    1       -2.086  -4.878   9.998  0.00  0.00    -0.240 A 
ATOM      3  C   LIG    1       -2.127  -4.387   8.707  0.00  0.00    +0.450 A 
ATOM      4  N   LIG    1       -2.621  -5.115   7.693  0.00  0.00    -0.470 N 
ATOM      5  C   LIG    1       -3.103  -6.356   7.893  0.00  0.00    +0.550 A 
ATOM      6  C   LIG    1       -3.083  -6.934   9.239  0.00  0.00    -0.150 A 
ATOM      7  O   LIG    1       -3.551  -6.997   6.958  0.00  0.00    -0.500 OA
ATOM      8  C   LIG    1       -2.569  -6.172  10.280  0.00  0.00    +0.250 A 
BRANCH   2   9
ATOM      9  C   LIG    1       -1.536  -4.047  11.083  0.00  0.00    +0.530 C 
ATOM     10  O   LIG    1       -1.119  -2.931  10.842  0.00  0.00    -0.510 OA
BRANCH   9  12
ATOM     11  C   LIG    1       -0.939  -3.650  13.361  0.00  0.00    +0.290 C 
ATOM     12  O   LIG    1       -1.494  -4.524  12.343  0.00  0.00    -0.350 OA
ENDBRANCH   9  12
ENDBRANCH   2   9
BRANCH   6  13
ATOM     13  C   LIG    1       -3.585  -8.254   9.476  0.00  0.00    +0.270 C 
ATOM     14  N   LIG    1       -3.983  -9.301   9.665  0.00  0.00    -0.400 NA
ENDBRANCH   6  13
ENDBRANCH   1   4
BRANCH   1  15
ATOM     15  C   LIG    1       -1.355  -4.887   5.635  0.00  0.00    +0.500 C 
ATOM     16  N   LIG    1       -1.149  -4.465   4.372  0.00  0.00    -0.720 N 
ATOM     17  H   LIG    1       -1.829  -3.942   3.918  0.00  0.00    +0.410 HD
ATOM     18  O   LIG    1       -0.505  -5.541   6.202  0.00  0.00    -0.520 OA
BRANCH  16  19
ATOM     19  C   LIG    1        0.101  -4.796   3.683  0.00  0.00    +0.310 C 
BRANCH  19  20
ATOM     20  C   LIG    1        0.080  -4.202   2.274  0.00  0.00    +0.200 C 
BRANCH  20  21
ATOM     21  O   LIG    1        0.062  -2.775   2.358  0.00  0.00    -0.310 OA
BRANCH  21  22
ATOM     22  C   LIG    1        0.042  -2.088   1.186  0.00  0.00    +0.130 A 
ATOM     23  C   LIG    1        0.040  -2.772  -0.020  0.00  0.00    -0.090 A 
ATOM     24  C   LIG    1        0.019  -2.071  -1.211  0.00  0.00    +0.050 A 
ATOM     25  C   LIG    1       -0.006  -0.689  -1.200  0.00  0.00    -0.040 A 
ATOM     26  C   LIG    1        0.002  -0.004   0.002  0.00  0.00    -0.050 A 
ATOM     27  C   LIG    1       -0.018   1.503   0.010  0.00  0.00    +0.090 C 
ATOM     28  C   LIG    1        0.023  -0.700   1.195  0.00  0.00    -0.020 A 
ENDBRANCH  21  22
ENDBRANCH  20  21
ENDBRANCH  19  20
ENDBRANCH  16  19
ENDBRANCH   1  15
TORSDOF 9
