REMARK  Name = ZINCvU00000007ed.2
REMARK                            x       y       z     vdW  Elec       q    Type
REMARK                         _______ _______ _______ _____ _____    ______ ____
ROOT
ATOM      1  N   LIG    1        0.794   3.322  -3.715  0.00  0.00    -0.530 NA
ATOM      2  C   LIG    1        1.206   3.122  -5.123  0.00  0.00    +0.170 C 
ATOM      3  C   LIG    1        2.116   1.934  -5.305  0.00  0.00    +0.050 C 
ATOM      4  C   LIG    1        1.260   0.695  -5.650  0.00  0.00    +0.160 C 
ATOM      5  N   LIG    1        0.609   0.189  -4.517  0.00  0.00    -0.540 NA
ATOM      6  C   LIG    1       -0.336   1.128  -3.881  0.00  0.00    +0.150 C 
ATOM      7  C   LIG    1        0.455   2.070  -3.009  0.00  0.00    +0.240 C 
ENDROOT
BRANCH   1   8
ATOM      8  C   LIG    1       -0.304   4.293  -3.621  0.00  0.00    +0.210 C 
BRANCH   8  11
ATOM      9  N   LIG    1       -0.652   6.706  -4.042  0.00  0.00    -0.690 N 
ATOM     10  H   LIG    1       -1.591   6.577  -3.835  0.00  0.00    +0.410 HD
ATOM     11  C   LIG    1        0.188   5.652  -4.047  0.00  0.00    +0.520 C 
ATOM     12  O   LIG    1        1.341   5.797  -4.395  0.00  0.00    -0.500 OA
BRANCH   9  17
ATOM     13  C   LIG    1        1.301  11.898  -5.236  0.00  0.00    +0.100 C 
ATOM     14  C   LIG    1        0.782  10.520  -4.918  0.00  0.00    -0.060 A 
ATOM     15  C   LIG    1        0.239   9.739  -5.921  0.00  0.00    +0.020 A 
ATOM     16  C   LIG    1       -0.237   8.474  -5.634  0.00  0.00    -0.060 A 
ATOM     17  C   LIG    1       -0.170   7.987  -4.336  0.00  0.00    +0.140 A 
ATOM     18  C   LIG    1        0.372   8.776  -3.328  0.00  0.00    -0.020 A 
ATOM     19 CL   LIG    1        0.452   8.174  -1.702  0.00  0.00    -0.060 Cl
ATOM     20  C   LIG    1       -0.829   7.625  -6.729  0.00  0.00    +0.100 C 
ATOM     21  C   LIG    1        0.851  10.038  -3.623  0.00  0.00    +0.030 A 
ENDBRANCH   9  17
ENDBRANCH   8  11
ENDBRANCH   1   8
BRANCH   5  22
ATOM     22  C   LIG    1       -0.043  -1.094  -4.814  0.00  0.00    +0.230 C 
BRANCH  22  23
ATOM     23  C   LIG    1        1.007  -2.132  -5.118  0.00  0.00    -0.050 A 
ATOM     24  C   LIG    1        1.437  -2.320  -6.418  0.00  0.00    +0.010 A 
ATOM     25  C   LIG    1        2.403  -3.269  -6.697  0.00  0.00    +0.070 A 
ATOM     26  C   LIG    1        2.931  -4.037  -5.676  0.00  0.00    -0.180 A 
ATOM     27  C   LIG    1        2.497  -3.853  -4.377  0.00  0.00    +0.070 A 
ATOM     28  C   LIG    1        1.535  -2.901  -4.098  0.00  0.00    +0.040 A 
BRANCH  26  29
ATOM     29  C   LIG    1        3.981  -5.075  -5.980  0.00  0.00    +0.510 C 
ATOM     30  F   LIG    1        4.823  -5.224  -4.874  0.00  0.00    -0.180 F 
ATOM     31  F   LIG    1        4.733  -4.667  -7.087  0.00  0.00    -0.180 F 
ATOM     32  F   LIG    1        3.360  -6.297  -6.263  0.00  0.00    -0.180 F 
ENDBRANCH  26  29
ENDBRANCH  22  23
ENDBRANCH   5  22
TORSDOF 6
