REMARK  Name = ZINCkj000005fM5V.0
REMARK                            x       y       z     vdW  Elec       q    Type
REMARK                         _______ _______ _______ _____ _____    ______ ____
ROOT
ATOM      1  N   LIG    1       -0.011   0.966   0.007  0.00  0.00    -0.690 NA
ATOM      2  H   LIG    1        0.002  -0.004   0.002  0.00  0.00    +0.430 HD
ENDROOT
BRANCH   1   3
ATOM      3  C   LIG    1       -1.290   1.681   0.017  0.00  0.00    +0.360 C 
BRANCH   3   9
ATOM      4  C   LIG    1       -2.808   0.059   1.195  0.00  0.00    +0.350 A 
ATOM      5  N   LIG    1       -3.800  -0.815   1.199  0.00  0.00    -0.540 NA
ATOM      6  C   LIG    1       -4.457  -1.122   0.097  0.00  0.00    +0.340 A 
ATOM      7  C   LIG    1       -4.127  -0.537  -1.110  0.00  0.00    -0.060 A 
ATOM      8  C   LIG    1       -3.094   0.390  -1.155  0.00  0.00    +0.140 A 
ATOM      9  C   LIG    1       -2.422   0.686   0.017  0.00  0.00    -0.210 A 
BRANCH   4  10
ATOM     10  O   LIG    1       -2.160   0.345   2.352  0.00  0.00    -0.310 OA
BRANCH  10  11
ATOM     11  C   LIG    1       -2.603  -0.333   3.529  0.00  0.00    +0.210 C 
BRANCH  11  13
ATOM     12  C   LIG    1       -2.236  -0.610   5.985  0.00  0.00    +0.040 C 
ATOM     13  C   LIG    1       -1.760   0.116   4.725  0.00  0.00    +0.020 C 
ENDBRANCH  11  13
ENDBRANCH  10  11
ENDBRANCH   4  10
ENDBRANCH   3   9
ENDBRANCH   1   3
BRANCH   1  14
ATOM     14  C   LIG    1        1.170   1.669  -0.000  0.00  0.00    +0.730 C 
BRANCH  14  15
ATOM     15  N   LIG    1        1.152   2.973   0.007  0.00  0.00    -0.780 NA
ATOM     16  H   LIG    1        0.306   3.446   0.018  0.00  0.00    +0.440 HD
ATOM     17  H   LIG    1        1.986   3.469   0.002  0.00  0.00    +0.440 HD
ENDBRANCH  14  15
BRANCH  14  18
ATOM     18  N   LIG    1        2.370   0.998  -0.015  0.00  0.00    -0.690 NA
ATOM     19  H   LIG    1        2.383   0.028  -0.021  0.00  0.00    +0.440 HD
BRANCH  18  20
ATOM     20  C   LIG    1        3.628   1.748  -0.023  0.00  0.00    +0.240 C 
ATOM     21  C   LIG    1        4.016   2.109   1.412  0.00  0.00    +0.060 C 
BRANCH  20  22
ATOM     22  C   LIG    1        4.730   0.889  -0.648  0.00  0.00    +0.210 C 
BRANCH  22  23
ATOM     23  O   LIG    1        4.973  -0.250   0.180  0.00  0.00    -0.390 OA
ATOM     24  C   LIG    1        5.990  -1.122  -0.316  0.00  0.00    +0.230 C 
ENDBRANCH  22  23
ENDBRANCH  20  22
ENDBRANCH  18  20
ENDBRANCH  14  18
ENDBRANCH   1  14
TORSDOF 11
