REMARK  Name = ZINCpe00000gM9Ty.0
REMARK                            x       y       z     vdW  Elec       q    Type
REMARK                         _______ _______ _______ _____ _____    ______ ____
ROOT
ATOM      1  N   LIG    1        2.012  -0.192  -1.357  0.00  0.00    -0.730 N 
ATOM      2  H   LIG    1        2.700  -0.666  -1.849  0.00  0.00    +0.400 HD
ATOM      3  C   LIG    1        2.318   0.935  -0.685  0.00  0.00    +0.720 C 
ATOM      4  N   LIG    1        3.599   1.348  -0.610  0.00  0.00    -0.630 N 
ATOM      5  C   LIG    1        3.970   2.516   0.204  0.00  0.00    +0.310 C 
ATOM      6  C   LIG    1        5.132   2.112   1.125  0.00  0.00    +0.190 C 
ATOM      7  N   LIG    1        6.220   1.550   0.315  0.00  0.00    -0.480 N 
ATOM      8  C   LIG    1        5.796   0.319  -0.367  0.00  0.00    +0.180 C 
ATOM      9  C   LIG    1        4.663   0.646  -1.345  0.00  0.00    +0.280 C 
ATOM     10  O   LIG    1        1.440   1.579  -0.145  0.00  0.00    -0.570 OA
ENDROOT
BRANCH   1  16
ATOM     11  C   LIG    1       -0.596  -3.369   1.098  0.00  0.00    +0.310 C 
ATOM     12  N   LIG    1       -0.425  -2.587  -0.129  0.00  0.00    -0.570 N 
ATOM     13  C   LIG    1       -1.128  -2.934  -1.217  0.00  0.00    +0.520 C 
ATOM     14  C   LIG    1       -1.007  -2.164  -2.505  0.00  0.00    +0.100 C 
ATOM     15  C   LIG    1        0.397  -1.552  -2.597  0.00  0.00    +0.070 C 
ATOM     16  C   LIG    1        0.638  -0.702  -1.345  0.00  0.00    +0.290 C 
ATOM     17  O   LIG    1       -1.876  -3.887  -1.162  0.00  0.00    -0.500 OA
ATOM     18  C   LIG    1        0.428  -1.552  -0.120  0.00  0.00    +0.500 C 
ATOM     19  O   LIG    1        1.041  -1.295   0.894  0.00  0.00    -0.480 OA
ENDBRANCH   1  16
BRANCH   7  20
ATOM     20  C   LIG    1        7.359   1.324   1.093  0.00  0.00    +0.100 A 
ATOM     21  C   LIG    1        7.927   0.058   1.145  0.00  0.00    +0.000 A 
ATOM     22  C   LIG    1        9.056  -0.162   1.910  0.00  0.00    +0.010 A 
ATOM     23  C   LIG    1        9.615   0.878   2.635  0.00  0.00    +0.070 A 
ATOM     24  C   LIG    1        9.047   2.140   2.590  0.00  0.00    +0.010 A 
ATOM     25  F   LIG    1       10.715   0.660   3.387  0.00  0.00    -0.140 F 
ATOM     26  C   LIG    1        7.922   2.365   1.821  0.00  0.00    +0.030 A 
ENDBRANCH   7  20
TORSDOF 2
