REMARK  Name = ZINCrH000004mchL.0
REMARK                            x       y       z     vdW  Elec       q    Type
REMARK                         _______ _______ _______ _____ _____    ______ ____
ROOT
ATOM      1  N   LIG    1       -2.372  -2.818   0.010  0.00  0.00    -0.670 N 
ATOM      2  H   LIG    1       -2.361  -3.784  -0.073  0.00  0.00    +0.420 HD
ATOM      3  C   LIG    1       -3.545  -2.165   0.127  0.00  0.00    +0.510 C 
ATOM      4  O   LIG    1       -3.566  -0.952   0.134  0.00  0.00    -0.470 OA
ENDROOT
BRANCH   1   7
ATOM      5  C   LIG    1        1.094  -1.839  -0.753  0.00  0.00    +0.190 A 
ATOM      6  C   LIG    1       -0.099  -2.546  -0.755  0.00  0.00    -0.070 A 
ATOM      7  C   LIG    1       -1.170  -2.102   0.008  0.00  0.00    +0.220 A 
ATOM      8  C   LIG    1       -1.050  -0.944   0.764  0.00  0.00    -0.040 A 
ATOM      9  C   LIG    1        0.141  -0.235   0.761  0.00  0.00    +0.190 A 
ATOM     10  C   LIG    1        1.213  -0.682   0.003  0.00  0.00    -0.170 A 
BRANCH   5  12
ATOM     11  C   LIG    1        3.341  -1.496  -1.450  0.00  0.00    +0.250 C 
ATOM     12  O   LIG    1        2.145  -2.277  -1.495  0.00  0.00    -0.310 OA
ENDBRANCH   5  12
BRANCH   9  13
ATOM     13  O   LIG    1        0.259   0.899   1.501  0.00  0.00    -0.310 OA
ATOM     14  C   LIG    1        1.514   1.580   1.450  0.00  0.00    +0.250 C 
ENDBRANCH   9  13
ENDBRANCH   1   7
BRANCH   3  15
ATOM     15  C   LIG    1       -4.831  -2.941   0.249  0.00  0.00    +0.240 C 
BRANCH  15  16
ATOM     16  O   LIG    1       -5.928  -2.032   0.359  0.00  0.00    -0.270 OA
BRANCH  16  17
ATOM     17  C   LIG    1       -7.166  -2.572   0.478  0.00  0.00    +0.190 A 
ATOM     18  C   LIG    1       -7.324  -3.948   0.488  0.00  0.00    -0.090 A 
ATOM     19  C   LIG    1       -8.584  -4.500   0.608  0.00  0.00    +0.100 A 
ATOM     20  C   LIG    1       -9.697  -3.683   0.720  0.00  0.00    -0.120 A 
ATOM     21  C   LIG    1       -9.560  -2.309   0.713  0.00  0.00    -0.000 A 
ATOM     22  C   LIG    1      -10.601  -1.220   0.819  0.00  0.00    +0.050 C 
ATOM     23  C   LIG    1      -11.345  -1.331   2.151  0.00  0.00    +0.050 C 
ATOM     24  C   LIG    1       -9.838   0.111   0.750  0.00  0.00    +0.050 C 
ATOM     25  C   LIG    1       -8.385  -0.269   0.607  0.00  0.00    +0.400 C 
ATOM     26  O   LIG    1       -7.453   0.502   0.519  0.00  0.00    -0.430 OA
ATOM     27  C   LIG    1      -11.066  -4.298   0.851  0.00  0.00    +0.100 C 
ATOM     28  C   LIG    1       -8.293  -1.735   0.597  0.00  0.00    -0.220 A 
ENDBRANCH  16  17
ENDBRANCH  15  16
ENDBRANCH   3  15
TORSDOF 6
