REMARK  Name = ZINCrD00000F5Lx0.0
REMARK                            x       y       z     vdW  Elec       q    Type
REMARK                         _______ _______ _______ _____ _____    ______ ____
ROOT
ATOM      1  C   LIG    1       -0.013   1.086   0.008  0.00  0.00    +0.350 C 
ATOM      2  C   LIG    1        1.382   1.620  -0.002  0.00  0.00    -0.250 A 
ATOM      3  C   LIG    1        1.535   2.362  -1.139  0.00  0.00    +0.090 A 
ATOM      4  C   LIG    1        0.264   2.336  -1.883  0.00  0.00    +0.570 C 
ATOM      5  O   LIG    1        0.064   2.901  -2.940  0.00  0.00    -0.490 OA
ATOM      6  O   LIG    1        2.691   2.979  -1.454  0.00  0.00    -0.180 OA
ATOM      7  C   LIG    1        3.671   3.077  -0.527  0.00  0.00    +0.140 A 
ATOM      8  C   LIG    1        4.753   3.921  -0.773  0.00  0.00    +0.010 A 
ATOM      9  C   LIG    1        5.767   4.036   0.151  0.00  0.00    +0.090 A 
ATOM     10  C   LIG    1        5.732   3.317   1.337  0.00  0.00    +0.000 A 
ATOM     11  C   LIG    1        4.673   2.478   1.605  0.00  0.00    +0.120 A 
ATOM     12  C   LIG    1        3.639   2.356   0.678  0.00  0.00    -0.210 A 
ATOM     13  C   LIG    1        2.483   1.466   0.955  0.00  0.00    +0.460 A 
ATOM     14  O   LIG    1        2.451   0.683   1.887  0.00  0.00    -0.430 OA
ATOM     15  N   LIG    1       -0.646   1.592  -1.221  0.00  0.00    -0.590 N 
ATOM     16  C   LIG    1       -2.022   1.333  -1.650  0.00  0.00    +0.360 C 
ENDROOT
BRANCH   1  20
ATOM     17  C   LIG    1       -2.114   2.517   3.447  0.00  0.00    +0.110 A 
ATOM     18  C   LIG    1       -1.948   3.337   2.342  0.00  0.00    -0.030 A 
ATOM     19  C   LIG    1       -1.268   2.871   1.232  0.00  0.00    +0.030 A 
ATOM     20  C   LIG    1       -0.753   1.588   1.221  0.00  0.00    -0.100 A 
ATOM     21  C   LIG    1       -0.920   0.763   2.318  0.00  0.00    +0.000 A 
ATOM     22  C   LIG    1       -1.595   1.226   3.436  0.00  0.00    +0.100 A 
BRANCH  22  23
ATOM     23  O   LIG    1       -1.756   0.418   4.517  0.00  0.00    -0.300 OA
ATOM     24  C   LIG    1       -1.197  -0.895   4.435  0.00  0.00    +0.240 C 
ENDBRANCH  22  23
BRANCH  17  25
ATOM     25  O   LIG    1       -2.783   2.974   4.539  0.00  0.00    -0.300 OA
BRANCH  25  27
ATOM     26  C   LIG    1       -4.005   4.642   5.790  0.00  0.00    +0.070 C 
ATOM     27  C   LIG    1       -3.288   4.309   4.480  0.00  0.00    +0.170 C 
ENDBRANCH  25  27
ENDBRANCH  17  25
ENDBRANCH   1  20
TORSDOF 4
