REMARK  Name = ZINCnE000001SoiP.0
REMARK                            x       y       z     vdW  Elec       q    Type
REMARK                         _______ _______ _______ _____ _____    ______ ____
ROOT
ATOM      1  C   LIG    1        1.147  -0.610  -0.012  0.00  0.00    -0.080 A 
ATOM      2  N   LIG    1        0.002  -0.004   0.002  0.00  0.00    -0.250 NA
ATOM      3  N   LIG    1       -0.017   1.373   0.010  0.00  0.00    -0.510 NA
ATOM      4  C   LIG    1        1.199   1.993   0.001  0.00  0.00    +0.340 A 
ATOM      5  N   LIG    1        1.442   3.282   0.005  0.00  0.00    -0.640 NA
ATOM      6  S   LIG    1        2.376   0.666  -0.017  0.00  0.00    -0.100 S 
ENDROOT
BRANCH   1   7
ATOM      7  S   LIG    1        1.425  -2.350  -0.025  0.00  0.00    +0.030 S 
BRANCH   7   8
ATOM      8  C   LIG    1       -0.256  -3.032  -0.012  0.00  0.00    +0.100 C 
BRANCH   8  10
ATOM      9  O   LIG    1        0.890  -5.096  -0.035  0.00  0.00    -0.520 OA
ATOM     10  C   LIG    1       -0.187  -4.538  -0.021  0.00  0.00    +0.540 C 
ATOM     11  N   LIG    1       -1.322  -5.264  -0.014  0.00  0.00    -0.720 N 
ATOM     12  H   LIG    1       -2.183  -4.818  -0.003  0.00  0.00    +0.400 HD
BRANCH  11  13
ATOM     13  C   LIG    1       -1.256  -6.728  -0.023  0.00  0.00    +0.230 C 
ATOM     14  C   LIG    1       -1.172  -7.244  -1.474  0.00  0.00    +0.000 C 
ATOM     15  C   LIG    1       -2.022  -8.539  -1.465  0.00  0.00    +0.020 C 
ATOM     16  C   LIG    1       -3.196  -8.172  -0.524  0.00  0.00    +0.020 C 
ATOM     17  C   LIG    1       -2.542  -7.318   0.581  0.00  0.00    +0.010 C 
ENDBRANCH  11  13
ENDBRANCH   8  10
ENDBRANCH   7   8
ENDBRANCH   1   7
BRANCH   5  18
ATOM     18  C   LIG    1        0.331   4.237   0.021  0.00  0.00    +0.200 C 
BRANCH  18  19
ATOM     19  C   LIG    1        0.354   5.025   1.332  0.00  0.00    +0.100 C 
BRANCH  19  20
ATOM     20  C   LIG    1       -0.788   6.007   1.348  0.00  0.00    -0.140 A 
ATOM     21  C   LIG    1       -2.011   5.757   1.819  0.00  0.00    -0.010 A 
ATOM     22  C   LIG    1       -2.899   6.815   1.729  0.00  0.00    +0.010 A 
ATOM     23  C   LIG    1       -2.397   7.925   1.184  0.00  0.00    -0.070 A 
ATOM     24  S   LIG    1       -0.712   7.661   0.755  0.00  0.00    +0.080 S 
ENDBRANCH  19  20
ENDBRANCH  18  19
ENDBRANCH   5  18
TORSDOF 7
