REMARK  Name = ZINCpk00000KfLCb.0
REMARK                            x       y       z     vdW  Elec       q    Type
REMARK                         _______ _______ _______ _____ _____    ______ ____
ROOT
ATOM      1  C   LIG    1       -1.349   1.401  -3.565  0.00  0.00    +0.210 C 
ENDROOT
BRANCH   1   2
ATOM      2  N   LIG    1       -1.196   0.516  -4.728  0.00  0.00    -0.520 NA
ATOM      3  C   LIG    1       -1.447  -0.883  -4.360  0.00  0.00    +0.180 C 
ATOM      4  C   LIG    1       -1.138  -1.790  -5.553  0.00  0.00    +0.030 C 
ATOM      5  C   LIG    1       -2.023  -1.387  -6.736  0.00  0.00    +0.280 C 
ATOM      6  C   LIG    1       -1.778   0.088  -7.068  0.00  0.00    +0.030 C 
ATOM      7  C   LIG    1       -2.068   0.940  -5.830  0.00  0.00    +0.180 C 
BRANCH   5   8
ATOM      8  N   LIG    1       -1.690  -2.212  -7.900  0.00  0.00    -0.630 N 
ATOM      9  C   LIG    1       -2.623  -3.103  -8.607  0.00  0.00    +0.250 C 
ATOM     10  C   LIG    1       -1.767  -3.715  -9.733  0.00  0.00    +0.250 C 
ATOM     11  N   LIG    1       -0.441  -3.110  -9.536  0.00  0.00    -0.750 N 
ATOM     12  H   LIG    1        0.343  -3.284 -10.080  0.00  0.00    +0.430 HD
ATOM     13  C   LIG    1       -0.488  -2.280  -8.486  0.00  0.00    +0.700 C 
ATOM     14  O   LIG    1        0.474  -1.645  -8.099  0.00  0.00    -0.570 OA
ENDBRANCH   5   8
ENDBRANCH   1   2
BRANCH   1  17
ATOM     15  N   LIG    1       -0.992   3.791  -3.038  0.00  0.00    -0.730 N 
ATOM     16  H   LIG    1       -1.433   3.637  -2.188  0.00  0.00    +0.400 HD
ATOM     17  C   LIG    1       -0.837   2.776  -3.910  0.00  0.00    +0.510 C 
ATOM     18  O   LIG    1       -0.285   2.968  -4.973  0.00  0.00    -0.510 OA
BRANCH  15  20
ATOM     19  C   LIG    1       -1.544   5.871  -4.199  0.00  0.00    +0.040 C 
ATOM     20  C   LIG    1       -0.493   5.128  -3.373  0.00  0.00    +0.290 C 
BRANCH  20  21
ATOM     21  C   LIG    1       -0.217   5.893  -2.105  0.00  0.00    -0.100 A 
ATOM     22  C   LIG    1       -1.087   5.794  -1.034  0.00  0.00    +0.040 A 
ATOM     23  C   LIG    1       -0.832   6.492   0.131  0.00  0.00    -0.010 A 
ATOM     24  C   LIG    1        0.289   7.299   0.222  0.00  0.00    +0.100 A 
ATOM     25  C   LIG    1        1.157   7.402  -0.852  0.00  0.00    -0.010 A 
ATOM     26  F   LIG    1        0.537   7.986   1.359  0.00  0.00    -0.140 F 
ATOM     27  C   LIG    1        0.903   6.699  -2.014  0.00  0.00    +0.060 A 
ENDBRANCH  20  21
ENDBRANCH  15  20
ENDBRANCH   1  17
TORSDOF 5
