REMARK  Name = ZINCnE000001TDNg.0
REMARK                            x       y       z     vdW  Elec       q    Type
REMARK                         _______ _______ _______ _____ _____    ______ ____
ROOT
ATOM      1  C   LIG    1        0.027   1.293   0.093  0.00  0.00    +0.620 C 
ATOM      2  N   LIG    1        1.167   1.933  -0.232  0.00  0.00    -0.600 N 
ATOM      3  O   LIG    1        0.038   0.092   0.288  0.00  0.00    -0.510 OA
ENDROOT
BRANCH   1   7
ATOM      4  C   LIG    1       -3.378   2.583   0.451  0.00  0.00    -0.240 A 
ATOM      5  C   LIG    1       -2.634   3.732   0.271  0.00  0.00    +0.230 A 
ATOM      6  O   LIG    1       -1.354   3.384   0.132  0.00  0.00    -0.160 OA
ATOM      7  C   LIG    1       -1.230   2.043   0.205  0.00  0.00    -0.130 A 
ATOM      8  C   LIG    1       -2.461   1.501   0.406  0.00  0.00    +0.100 A 
BRANCH   4  10
ATOM      9  O   LIG    1       -5.367   1.406   0.796  0.00  0.00    -0.680 OA
ATOM     10  C   LIG    1       -4.833   2.497   0.648  0.00  0.00    +0.550 C 
ATOM     11  O   LIG    1       -5.510   3.516   0.665  0.00  0.00    -0.690 OA
ENDBRANCH   4  10
ENDBRANCH   1   7
BRANCH   2  12
ATOM     12  C   LIG    1        2.440   1.208  -0.234  0.00  0.00    +0.390 C 
BRANCH  12  13
ATOM     13  C   LIG    1        2.679   0.617  -1.599  0.00  0.00    -0.200 A 
ATOM     14  C   LIG    1        3.320   1.224  -2.599  0.00  0.00    +0.010 A 
ATOM     15  C   LIG    1        3.420   0.483  -3.764  0.00  0.00    +0.000 A 
ATOM     16  C   LIG    1        2.860  -0.726  -3.710  0.00  0.00    -0.060 A 
ATOM     17  S   LIG    1        2.164  -0.984  -2.115  0.00  0.00    +0.150 S 
ENDBRANCH  12  13
ENDBRANCH   2  12
BRANCH   2  18
ATOM     18  C   LIG    1        1.134   3.355  -0.585  0.00  0.00    +0.410 C 
BRANCH  18  19
ATOM     19  C   LIG    1        1.330   4.185   0.658  0.00  0.00    -0.020 A 
ATOM     20  C   LIG    1        2.511   4.604   1.146  0.00  0.00    -0.060 A 
ATOM     21  C   LIG    1        2.231   5.347   2.316  0.00  0.00    -0.080 A 
ATOM     22  C   LIG    1        0.895   5.337   2.473  0.00  0.00    +0.170 A 
ATOM     23  O   LIG    1        0.354   4.637   1.462  0.00  0.00    -0.150 OA
ENDBRANCH  18  19
ENDBRANCH   2  18
TORSDOF 6
