REMARK  Name = ZINCnE000001SIH0.0
REMARK                            x       y       z     vdW  Elec       q    Type
REMARK                         _______ _______ _______ _____ _____    ______ ____
ROOT
ATOM      1  O   LIG    1       -4.485  -4.599   0.018  0.00  0.00    -0.540 OA
ATOM      2  C   LIG    1       -4.617  -3.391   0.026  0.00  0.00    +0.560 C 
ATOM      3  N   LIG    1       -5.851  -2.848   0.040  0.00  0.00    -0.730 N 
ATOM      4  H   LIG    1       -5.956  -1.884   0.046  0.00  0.00    +0.400 HD
ENDROOT
BRANCH   2   5
ATOM      5  C   LIG    1       -3.426  -2.518   0.020  0.00  0.00    -0.140 A 
ATOM      6  C   LIG    1       -2.147  -3.080   0.005  0.00  0.00    +0.080 A 
ATOM      7  C   LIG    1       -1.037  -2.267  -0.001  0.00  0.00    +0.060 A 
ATOM      8  C   LIG    1       -1.189  -0.878   0.008  0.00  0.00    +0.040 A 
ATOM      9  C   LIG    1       -2.468  -0.315   0.029  0.00  0.00    +0.040 A 
ATOM     10  C   LIG    1       -3.578  -1.128   0.029  0.00  0.00    +0.050 A 
BRANCH   8  11
ATOM     11  C   LIG    1        0.002  -0.004   0.002  0.00  0.00    +0.160 A 
ATOM     12  N   LIG    1        1.239  -0.413  -0.012  0.00  0.00    -0.290 NA
ATOM     13  N   LIG    1        2.064   0.722  -0.014  0.00  0.00    -0.370 NA
ATOM     14  C   LIG    1        1.250   1.798  -0.000  0.00  0.00    +0.350 A 
ATOM     15  S   LIG    1        1.740   3.439   0.004  0.00  0.00    -0.690 S 
ATOM     16  O   LIG    1       -0.016   1.347   0.009  0.00  0.00    -0.260 OA
ENDBRANCH   8  11
ENDBRANCH   2   5
BRANCH   3  17
ATOM     17  C   LIG    1       -7.032  -3.714   0.046  0.00  0.00    +0.260 C 
BRANCH  17  18
ATOM     18  C   LIG    1       -8.296  -2.853   0.062  0.00  0.00    +0.030 C 
BRANCH  18  19
ATOM     19  C   LIG    1       -9.530  -3.757   0.068  0.00  0.00    +0.040 C 
BRANCH  19  20
ATOM     20  C   LIG    1      -10.794  -2.896   0.084  0.00  0.00    +0.050 C 
BRANCH  20  21
ATOM     21  C   LIG    1      -12.028  -3.800   0.090  0.00  0.00    +0.450 C 
ATOM     22  F   LIG    1      -12.024  -4.601  -1.057  0.00  0.00    -0.180 F 
ATOM     23  F   LIG    1      -13.184  -3.012   0.105  0.00  0.00    -0.190 F 
ATOM     24  F   LIG    1      -12.004  -4.614   1.228  0.00  0.00    -0.180 F 
ENDBRANCH  20  21
ENDBRANCH  19  20
ENDBRANCH  18  19
ENDBRANCH  17  18
ENDBRANCH   3  17
TORSDOF 7
