REMARK  Name = ZINCqH0000051ALs.0
REMARK                            x       y       z     vdW  Elec       q    Type
REMARK                         _______ _______ _______ _____ _____    ______ ____
ROOT
ATOM      1  O   LIG    1       -5.092   0.519  -1.086  0.00  0.00    -0.530 OA
ATOM      2  C   LIG    1       -4.207  -0.103  -1.635  0.00  0.00    +0.550 C 
ATOM      3  N   LIG    1       -4.498  -0.917  -2.669  0.00  0.00    -0.600 N 
ENDROOT
BRANCH   2   4
ATOM      4  C   LIG    1       -2.784   0.033  -1.160  0.00  0.00    -0.050 C 
ATOM      5  C   LIG    1       -2.439  -0.543   0.216  0.00  0.00    +0.090 C 
ATOM      6  C   LIG    1       -2.519   0.972   0.019  0.00  0.00    +0.050 C 
BRANCH   6   7
ATOM      7  C   LIG    1       -1.223   1.743   0.017  0.00  0.00    -0.110 A 
ATOM      8  C   LIG    1       -1.231   3.129   0.030  0.00  0.00    +0.070 A 
ATOM      9  C   LIG    1       -0.015   3.796   0.022  0.00  0.00    -0.030 A 
ATOM     10  C   LIG    1        1.155   3.062   0.007  0.00  0.00    +0.250 A 
ATOM     11  N   LIG    1        1.125   1.743   0.001  0.00  0.00    -0.480 NA
ATOM     12  C   LIG    1       -0.013   1.076   0.008  0.00  0.00    +0.260 A 
ENDBRANCH   6   7
ENDBRANCH   2   4
BRANCH   3  13
ATOM     13  C   LIG    1       -5.882  -1.049  -3.131  0.00  0.00    +0.340 C 
BRANCH  13  14
ATOM     14  C   LIG    1       -6.158  -0.016  -4.193  0.00  0.00    -0.140 A 
ATOM     15  C   LIG    1       -6.834   1.144  -3.869  0.00  0.00    +0.050 A 
ATOM     16  C   LIG    1       -7.083   2.095  -4.842  0.00  0.00    +0.000 A 
ATOM     17  C   LIG    1       -6.667   1.881  -6.143  0.00  0.00    +0.030 A 
ATOM     18  C   LIG    1       -5.995   0.720  -6.473  0.00  0.00    -0.020 A 
ATOM     19  C   LIG    1       -5.739  -0.233  -5.497  0.00  0.00    +0.120 A 
BRANCH  19  20
ATOM     20  O   LIG    1       -5.079  -1.376  -5.819  0.00  0.00    -0.500 OA
ATOM     21  H   LIG    1       -5.657  -2.100  -6.095  0.00  0.00    +0.390 HD
ENDBRANCH  19  20
ENDBRANCH  13  14
ENDBRANCH   3  13
BRANCH   3  22
ATOM     22  C   LIG    1       -3.429  -1.669  -3.332  0.00  0.00    +0.400 C 
BRANCH  22  23
ATOM     23  C   LIG    1       -3.261  -3.005  -2.655  0.00  0.00    -0.040 A 
ATOM     24  C   LIG    1       -3.904  -4.139  -2.984  0.00  0.00    -0.040 A 
ATOM     25  C   LIG    1       -3.448  -5.141  -2.097  0.00  0.00    -0.070 A 
ATOM     26  C   LIG    1       -2.553  -4.559  -1.279  0.00  0.00    +0.170 A 
ATOM     27  O   LIG    1       -2.440  -3.266  -1.625  0.00  0.00    -0.170 OA
ENDBRANCH  22  23
ENDBRANCH   3  22
TORSDOF 7
