REMARK  Name = ZINCpe000000SWcY.0
REMARK                            x       y       z     vdW  Elec       q    Type
REMARK                         _______ _______ _______ _____ _____    ______ ____
ROOT
ATOM      1  N   LIG    1       -2.350   1.475  -0.080  0.00  0.00    -0.620 N 
ATOM      2  C   LIG    1       -1.192   2.142   0.088  0.00  0.00    +0.710 C 
ATOM      3  N   LIG    1       -0.061   1.467   0.373  0.00  0.00    -0.640 N 
ATOM      4  C   LIG    1        1.259   2.078   0.155  0.00  0.00    +0.320 C 
ATOM      5  C   LIG    1        2.082   1.931   1.439  0.00  0.00    +0.210 C 
ATOM      6  N   LIG    1        2.111   0.517   1.839  0.00  0.00    -0.470 N 
ATOM      7  C   LIG    1        0.764   0.027   2.159  0.00  0.00    +0.210 C 
ATOM      8  C   LIG    1       -0.113   0.096   0.905  0.00  0.00    +0.280 C 
ATOM      9  O   LIG    1       -1.166   3.353  -0.017  0.00  0.00    -0.580 OA
ATOM     10  C   LIG    1       -2.358   0.010  -0.089  0.00  0.00    +0.280 C 
ENDROOT
BRANCH   6  11
ATOM     11  C   LIG    1        2.978   0.320   2.902  0.00  0.00    +0.370 A 
ATOM     12  C   LIG    1        4.309   0.714   2.811  0.00  0.00    -0.110 A 
ATOM     13  C   LIG    1        5.139   0.493   3.906  0.00  0.00    +0.370 A 
ATOM     14  N   LIG    1        4.632  -0.083   4.995  0.00  0.00    -0.570 NA
ATOM     15  C   LIG    1        3.365  -0.441   5.043  0.00  0.00    +0.550 A 
ATOM     16  N   LIG    1        2.547  -0.245   4.029  0.00  0.00    -0.570 NA
BRANCH  13  17
ATOM     17  N   LIG    1        6.473   0.868   3.865  0.00  0.00    -0.470 N 
ATOM     18  C   LIG    1        7.160   0.243   2.726  0.00  0.00    +0.180 C 
ATOM     19  C   LIG    1        8.611   0.729   2.683  0.00  0.00    +0.240 C 
ATOM     20  O   LIG    1        9.246   0.430   3.929  0.00  0.00    -0.380 OA
ATOM     21  C   LIG    1        8.603   1.023   5.060  0.00  0.00    +0.230 C 
ATOM     22  C   LIG    1        7.151   0.540   5.127  0.00  0.00    +0.190 C 
ENDBRANCH  13  17
ENDBRANCH   6  11
BRANCH   1  24
ATOM     23  C   LIG    1       -4.223   1.856  -1.607  0.00  0.00    +0.030 C 
ATOM     24  C   LIG    1       -3.603   2.215  -0.256  0.00  0.00    +0.250 C 
ATOM     25  C   LIG    1       -4.575   1.844   0.866  0.00  0.00    +0.030 C 
ENDBRANCH   1  24
TORSDOF 3
