REMARK  Name = ZINCtV000002Mx0W.0
REMARK                            x       y       z     vdW  Elec       q    Type
REMARK                         _______ _______ _______ _____ _____    ______ ____
ROOT
ATOM      1  O   LIG    1        8.443  -1.658  -0.194  0.00  0.00    -0.460 OA
ATOM      2  C   LIG    1        7.875  -2.725  -0.198  0.00  0.00    +0.460 C 
ENDROOT
BRANCH   2   3
ATOM      3  O   LIG    1        6.539  -2.774  -0.080  0.00  0.00    -0.290 OA
BRANCH   3   4
ATOM      4  C   LIG    1        5.875  -1.587  -0.082  0.00  0.00    +0.070 A 
ATOM      5  C   LIG    1        5.814  -0.831  -1.239  0.00  0.00    +0.070 A 
ATOM      6  C   LIG    1        5.133   0.382  -1.234  0.00  0.00    -0.100 A 
ATOM      7  C   LIG    1        4.510   0.839  -0.065  0.00  0.00    +0.090 A 
ATOM      8  O   LIG    1        3.926   2.030  -0.327  0.00  0.00    -0.200 OA
ATOM      9  C   LIG    1        4.119   2.405  -1.611  0.00  0.00    +0.080 A 
ATOM     10  C   LIG    1        3.718   3.525  -2.329  0.00  0.00    +0.030 A 
ATOM     11  C   LIG    1        4.063   3.655  -3.658  0.00  0.00    +0.060 A 
ATOM     12  C   LIG    1        4.810   2.674  -4.292  0.00  0.00    +0.000 A 
ATOM     13  C   LIG    1        5.217   1.556  -3.595  0.00  0.00    +0.070 A 
ATOM     14  C   LIG    1        4.581   0.067   1.089  0.00  0.00    +0.050 A 
ATOM     15  C   LIG    1        4.875   1.415  -2.255  0.00  0.00    -0.120 A 
ATOM     16  C   LIG    1        5.257  -1.135   1.078  0.00  0.00    +0.070 A 
ENDBRANCH   3   4
ENDBRANCH   2   3
BRANCH   2  17
ATOM     17  C   LIG    1        8.667  -3.999  -0.334  0.00  0.00    +0.230 C 
BRANCH  17  18
ATOM     18  C   LIG    1       10.133  -3.670  -0.449  0.00  0.00    +0.070 A 
ATOM     19  C   LIG    1       11.046  -4.196   0.375  0.00  0.00    -0.050 A 
ATOM     20  S   LIG    1       12.628  -3.568  -0.083  0.00  0.00    +0.110 S 
ATOM     21  C   LIG    1       11.879  -2.635  -1.375  0.00  0.00    +0.120 A 
ATOM     22  N   LIG    1       10.595  -2.854  -1.368  0.00  0.00    -0.440 NA
BRANCH  21  23
ATOM     23  C   LIG    1       12.593  -1.750  -2.320  0.00  0.00    -0.020 A 
ATOM     24  C   LIG    1       13.978  -1.601  -2.230  0.00  0.00    +0.040 A 
ATOM     25  C   LIG    1       14.639  -0.774  -3.114  0.00  0.00    +0.040 A 
ATOM     26  C   LIG    1       13.933  -0.092  -4.089  0.00  0.00    +0.050 A 
ATOM     27  C   LIG    1       12.559  -0.235  -4.184  0.00  0.00    -0.040 A 
ATOM     28 CL   LIG    1       11.681   0.624  -5.412  0.00  0.00    -0.060 Cl
ATOM     29  C   LIG    1       11.886  -1.064  -3.309  0.00  0.00    +0.090 A 
ENDBRANCH  21  23
ENDBRANCH  17  18
ENDBRANCH   2  17
TORSDOF 5
