REMARK  Name = ZINCrH000004qOlN.0
REMARK                            x       y       z     vdW  Elec       q    Type
REMARK                         _______ _______ _______ _____ _____    ______ ____
ROOT
ATOM      1  N   LIG    1        4.935   3.997  -0.453  0.00  0.00    -0.660 N 
ATOM      2  H   LIG    1        4.993   4.958  -0.574  0.00  0.00    +0.420 HD
ATOM      3  C   LIG    1        6.045   3.285  -0.173  0.00  0.00    +0.610 C 
ATOM      4  O   LIG    1        5.989   2.072  -0.112  0.00  0.00    -0.510 OA
ENDROOT
BRANCH   1   8
ATOM      5  C   LIG    1        1.898   0.394   0.947  0.00  0.00    +0.100 C 
ATOM      6  C   LIG    1        2.200   1.601   0.098  0.00  0.00    -0.090 A 
ATOM      7  C   LIG    1        3.422   2.234   0.208  0.00  0.00    +0.060 A 
ATOM      8  C   LIG    1        3.699   3.351  -0.570  0.00  0.00    +0.110 A 
ATOM      9  C   LIG    1        2.748   3.825  -1.464  0.00  0.00    +0.020 A 
ATOM     10  C   LIG    1        1.529   3.187  -1.578  0.00  0.00    -0.060 A 
ATOM     11  C   LIG    1        1.253   2.073  -0.800  0.00  0.00    +0.120 A 
BRANCH  11  12
ATOM     12  O   LIG    1        0.052   1.445  -0.913  0.00  0.00    -0.300 OA
BRANCH  12  13
ATOM     13  C   LIG    1       -0.878   1.988  -1.852  0.00  0.00    +0.210 C 
BRANCH  13  14
ATOM     14  C   LIG    1       -2.161   1.155  -1.838  0.00  0.00    +0.210 C 
BRANCH  14  15
ATOM     15  O   LIG    1       -2.796   1.279  -0.564  0.00  0.00    -0.570 OA
ATOM     16  H   LIG    1       -3.618   0.776  -0.483  0.00  0.00    +0.380 HD
ENDBRANCH  14  15
ENDBRANCH  13  14
ENDBRANCH  12  13
ENDBRANCH  11  12
ENDBRANCH   1   8
BRANCH   3  17
ATOM     17  C   LIG    1        7.327   3.978   0.061  0.00  0.00    -0.010 A 
ATOM     18  N   LIG    1        7.533   5.280   0.021  0.00  0.00    -0.240 NA
ATOM     19  N   LIG    1        8.765   5.540   0.276  0.00  0.00    -0.240 N 
ATOM     20  C   LIG    1        9.451   4.388   0.492  0.00  0.00    +0.020 A 
ATOM     21  C   LIG    1       10.918   4.266   0.813  0.00  0.00    +0.150 C 
ATOM     22  C   LIG    1        8.569   3.369   0.363  0.00  0.00    +0.000 A 
BRANCH  19  23
ATOM     23  C   LIG    1        9.321   6.826   0.319  0.00  0.00    +0.130 A 
ATOM     24  C   LIG    1       10.502   7.096  -0.359  0.00  0.00    +0.040 A 
ATOM     25  C   LIG    1       11.045   8.366  -0.319  0.00  0.00    +0.040 A 
ATOM     26  C   LIG    1       10.420   9.364   0.405  0.00  0.00    +0.050 A 
ATOM     27  C   LIG    1        9.247   9.098   1.087  0.00  0.00    +0.050 A 
ATOM     28  C   LIG    1        8.695   7.832   1.046  0.00  0.00    -0.020 A 
ATOM     29 CL   LIG    1        7.223   7.497   1.903  0.00  0.00    -0.040 Cl
ENDBRANCH  19  23
ENDBRANCH   3  17
TORSDOF 7
