REMARK  Name = ZINCrg00000fRbpQ.0
REMARK                            x       y       z     vdW  Elec       q    Type
REMARK                         _______ _______ _______ _____ _____    ______ ____
ROOT
ATOM      1  C   LIG    1        6.323   7.017  -2.785  0.00  0.00    +0.490 C 
ATOM      2  O   LIG    1        5.627   6.790  -3.747  0.00  0.00    -0.480 OA
ENDROOT
BRANCH   1   3
ATOM      3  O   LIG    1        7.337   7.891  -2.882  0.00  0.00    -0.330 OA
BRANCH   3   4
ATOM      4  C   LIG    1        7.540   8.525  -4.172  0.00  0.00    +0.270 C 
BRANCH   4  10
ATOM      5  N   LIG    1       10.517  11.716  -6.189  0.00  0.00    -0.730 N 
ATOM      6  H   LIG    1       10.032  11.617  -7.023  0.00  0.00    +0.400 HD
ATOM      7  C   LIG    1       10.141  11.012  -5.103  0.00  0.00    +0.700 C 
ATOM      8  N   LIG    1        9.091  10.170  -5.176  0.00  0.00    -0.690 N 
ATOM      9  H   LIG    1        8.606  10.071  -6.011  0.00  0.00    +0.410 HD
ATOM     10  C   LIG    1        8.714   9.466  -4.090  0.00  0.00    +0.520 C 
ATOM     11  O   LIG    1        9.320   9.590  -3.048  0.00  0.00    -0.440 OA
ATOM     12  O   LIG    1       10.748  11.136  -4.058  0.00  0.00    -0.530 OA
BRANCH   5  13
ATOM     13  C   LIG    1       11.659  12.631  -6.109  0.00  0.00    +0.280 C 
BRANCH  13  15
ATOM     14  C   LIG    1       10.667  14.183  -7.797  0.00  0.00    +0.020 C 
ATOM     15  C   LIG    1       11.872  13.300  -7.469  0.00  0.00    -0.030 C 
ATOM     16  C   LIG    1       13.137  14.159  -7.421  0.00  0.00    +0.030 C 
ENDBRANCH  13  15
ENDBRANCH   5  13
ENDBRANCH   4  10
ENDBRANCH   3   4
ENDBRANCH   1   3
BRANCH   1  17
ATOM     17  C   LIG    1        6.052   6.319  -1.478  0.00  0.00    +0.150 C 
BRANCH  17  18
ATOM     18  S   LIG    1        4.628   5.211  -1.667  0.00  0.00    -0.140 S 
BRANCH  18  19
ATOM     19  C   LIG    1        4.461   4.476  -0.018  0.00  0.00    +0.170 C 
BRANCH  19  20
ATOM     20  C   LIG    1        3.300   3.514  -0.011  0.00  0.00    +0.220 A 
ATOM     21  C   LIG    1        3.521   2.153  -0.021  0.00  0.00    -0.110 A 
ATOM     22  C   LIG    1        2.429   1.284  -0.014  0.00  0.00    +0.530 A 
ATOM     23  N   LIG    1        1.161   1.788   0.001  0.00  0.00    -0.470 N 
ATOM     24  C   LIG    1       -0.013   1.076   0.008  0.00  0.00    +0.240 A 
ATOM     25  C   LIG    1       -1.160   1.731   0.017  0.00  0.00    +0.020 A 
ATOM     26  S   LIG    1       -0.725   3.449   0.026  0.00  0.00    +0.190 S 
ATOM     27  C   LIG    1        1.021   3.143   0.009  0.00  0.00    +0.320 A 
ATOM     28  O   LIG    1        2.608   0.076  -0.022  0.00  0.00    -0.520 OA
ATOM     29  N   LIG    1        2.052   3.967   0.003  0.00  0.00    -0.490 NA
ENDBRANCH  19  20
ENDBRANCH  18  19
ENDBRANCH  17  18
ENDBRANCH   1  17
TORSDOF 9
