REMARK  Name = ZINCrD000000AkYC.0
REMARK                            x       y       z     vdW  Elec       q    Type
REMARK                         _______ _______ _______ _____ _____    ______ ____
ROOT
ATOM      1  N   LIG    1        0.527   4.157   2.397  0.00  0.00    -0.560 N 
ATOM      2  C   LIG    1       -0.285   4.306   3.452  0.00  0.00    +0.710 C 
ATOM      3  N   LIG    1        0.351   4.827   4.521  0.00  0.00    -0.710 N 
ATOM      4  H   LIG    1       -0.032   5.020   5.391  0.00  0.00    +0.440 HD
ATOM      5  C   LIG    1        1.736   5.049   4.103  0.00  0.00    +0.170 C 
ATOM      6  C   LIG    1        2.124   6.529   4.213  0.00  0.00    +0.080 C 
ATOM      7  C   LIG    1        3.625   6.447   4.569  0.00  0.00    +0.100 C 
ATOM      8  C   LIG    1        3.801   5.100   5.241  0.00  0.00    -0.070 A 
ATOM      9  C   LIG    1        4.834   4.618   6.026  0.00  0.00    +0.020 A 
ATOM     10  C   LIG    1        4.782   3.335   6.535  0.00  0.00    +0.030 A 
ATOM     11  C   LIG    1        3.694   2.529   6.260  0.00  0.00    +0.010 A 
ATOM     12  C   LIG    1        2.661   3.007   5.478  0.00  0.00    +0.050 A 
ATOM     13  C   LIG    1        2.709   4.293   4.966  0.00  0.00    -0.120 A 
ATOM     14  O   LIG    1       -1.462   4.003   3.448  0.00  0.00    -0.530 OA
ATOM     15  C   LIG    1        1.780   4.578   2.672  0.00  0.00    +0.550 C 
ATOM     16  O   LIG    1        2.737   4.578   1.927  0.00  0.00    -0.450 OA
ENDROOT
BRANCH   1  17
ATOM     17  C   LIG    1        0.106   3.611   1.105  0.00  0.00    +0.360 C 
BRANCH  17  19
ATOM     18  O   LIG    1        0.753   1.563   2.084  0.00  0.00    -0.500 OA
ATOM     19  C   LIG    1        0.304   2.117   1.102  0.00  0.00    +0.510 C 
ATOM     20  N   LIG    1       -0.017   1.396   0.010  0.00  0.00    -0.680 N 
ATOM     21  H   LIG    1       -0.303   1.846  -0.801  0.00  0.00    +0.420 HD
BRANCH  20  22
ATOM     22  C   LIG    1        0.067  -0.001   0.043  0.00  0.00    +0.150 A 
ATOM     23  C   LIG    1        1.242  -0.637  -0.338  0.00  0.00    -0.020 A 
ATOM     24  C   LIG    1        1.324  -2.017  -0.298  0.00  0.00    +0.050 A 
ATOM     25  C   LIG    1        0.234  -2.764   0.109  0.00  0.00    +0.060 A 
ATOM     26  C   LIG    1       -0.939  -2.135   0.483  0.00  0.00    +0.050 A 
ATOM     27 CL   LIG    1        2.609   0.299  -0.856  0.00  0.00    -0.040 Cl
ATOM     28  C   LIG    1       -1.026  -0.755   0.451  0.00  0.00    -0.020 A 
ATOM     29 CL   LIG    1       -2.499   0.034   0.922  0.00  0.00    -0.040 Cl
ENDBRANCH  20  22
ENDBRANCH  17  19
ENDBRANCH   1  17
TORSDOF 3
