REMARK  Name = ZINCtV00000L6kD6.0
REMARK                            x       y       z     vdW  Elec       q    Type
REMARK                         _______ _______ _______ _____ _____    ______ ____
ROOT
ATOM      1  C   LIG    1        9.841   1.634  -0.140  0.00  0.00    +0.200 A 
ATOM      2  C   LIG    1        8.860   0.673  -0.033  0.00  0.00    -0.030 A 
ATOM      3  C   LIG    1        7.508   1.052  -0.038  0.00  0.00    +0.220 A 
ATOM      4  N   LIG    1        6.543   0.133   0.064  0.00  0.00    -0.470 NA
ATOM      5  C   LIG    1        5.268   0.468   0.067  0.00  0.00    +0.270 A 
ATOM      6  C   LIG    1        4.864   1.818  -0.049  0.00  0.00    -0.110 A 
ATOM      7  C   LIG    1        5.828   2.812  -0.158  0.00  0.00    +0.170 A 
ATOM      8  C   LIG    1        7.178   2.428  -0.153  0.00  0.00    -0.160 A 
ATOM      9  C   LIG    1        8.206   3.388  -0.260  0.00  0.00    +0.210 A 
ATOM     10  C   LIG    1        9.511   2.986  -0.252  0.00  0.00    -0.160 A 
ENDROOT
BRANCH   6  11
ATOM     11  C   LIG    1        3.430   2.169  -0.049  0.00  0.00    +0.160 A 
ATOM     12  N   LIG    1        2.564   1.734   0.806  0.00  0.00    -0.430 NA
ATOM     13  C   LIG    1        1.291   2.144   0.675  0.00  0.00    +0.080 A 
ATOM     14  C   LIG    1        0.171   1.817   1.471  0.00  0.00    +0.080 A 
ATOM     15  C   LIG    1       -1.057   2.329   1.181  0.00  0.00    +0.030 A 
ATOM     16  C   LIG    1       -1.232   3.189   0.106  0.00  0.00    +0.040 A 
ATOM     17  C   LIG    1       -0.158   3.527  -0.687  0.00  0.00    +0.050 A 
ATOM     18  C   LIG    1        1.105   3.009  -0.410  0.00  0.00    -0.170 A 
ATOM     19  S   LIG    1        2.657   3.236  -1.212  0.00  0.00    +0.060 S 
ENDBRANCH   6  11
BRANCH   5  20
ATOM     20  C   LIG    1        4.239  -0.591   0.190  0.00  0.00    -0.040 A 
ATOM     21  C   LIG    1        4.396  -1.615   1.124  0.00  0.00    +0.060 A 
ATOM     22  C   LIG    1        3.432  -2.596   1.237  0.00  0.00    +0.010 A 
ATOM     23  C   LIG    1        2.317  -2.571   0.419  0.00  0.00    +0.020 A 
ATOM     24  C   LIG    1        2.158  -1.561  -0.514  0.00  0.00    +0.000 A 
ATOM     25  C   LIG    1        3.113  -0.572  -0.632  0.00  0.00    +0.030 A 
ENDBRANCH   5  20
BRANCH   1  27
ATOM     26  C   LIG    1       12.120   2.303  -0.248  0.00  0.00    +0.250 C 
ATOM     27  O   LIG    1       11.147   1.261  -0.135  0.00  0.00    -0.310 OA
ENDBRANCH   1  27
BRANCH   9  28
ATOM     28  O   LIG    1        7.899   4.706  -0.370  0.00  0.00    -0.310 OA
ATOM     29  C   LIG    1        8.992   5.620  -0.474  0.00  0.00    +0.250 C 
ENDBRANCH   9  28
TORSDOF 4
