REMARK  Name = ZINCqH0000004Zzo.0
REMARK                            x       y       z     vdW  Elec       q    Type
REMARK                         _______ _______ _______ _____ _____    ______ ____
ROOT
ATOM      1  C   LIG    1        7.747   0.388   3.190  0.00  0.00    -0.120 A 
ATOM      2  C   LIG    1        8.224   0.919   1.990  0.00  0.00    +0.030 A 
ATOM      3  C   LIG    1        7.422   0.914   0.867  0.00  0.00    +0.020 A 
ATOM      4  C   LIG    1        6.148   0.380   0.923  0.00  0.00    +0.010 A 
ATOM      5  C   LIG    1        5.662  -0.145   2.115  0.00  0.00    +0.150 A 
ATOM      6  C   LIG    1        6.459  -0.145   3.248  0.00  0.00    +0.090 A 
ENDROOT
BRANCH   5   7
ATOM      7  N   LIG    1        4.370  -0.680   2.168  0.00  0.00    -0.690 N 
ATOM      8  H   LIG    1        4.007  -1.151   1.401  0.00  0.00    +0.410 HD
ATOM      9  C   LIG    1        3.628  -0.541   3.285  0.00  0.00    +0.710 C 
ATOM     10  N   LIG    1        2.351  -0.971   3.304  0.00  0.00    -0.710 N 
ATOM     11  H   LIG    1        1.966  -1.381   2.514  0.00  0.00    +0.400 HD
ATOM     12  O   LIG    1        4.112  -0.027   4.276  0.00  0.00    -0.560 OA
BRANCH  10  13
ATOM     13  C   LIG    1        1.546  -0.820   4.519  0.00  0.00    +0.240 C 
ATOM     14  C   LIG    1        0.378  -1.788   4.717  0.00  0.00    +0.020 C 
ATOM     15  C   LIG    1        0.106  -0.327   4.355  0.00  0.00    +0.010 C 
ENDBRANCH  10  13
ENDBRANCH   5   7
BRANCH   1  18
ATOM     16  C   LIG    1       10.557   0.339   2.939  0.00  0.00    +0.280 C 
ATOM     17  N   LIG    1        9.945   0.423   4.268  0.00  0.00    -0.600 N 
ATOM     18  C   LIG    1        8.604   0.392   4.395  0.00  0.00    +0.560 C 
ATOM     19  O   LIG    1        8.099   0.366   5.500  0.00  0.00    -0.520 OA
BRANCH  17  20
ATOM     20  C   LIG    1       10.791   0.542   5.458  0.00  0.00    +0.300 C 
ATOM     21  C   LIG    1       11.778  -0.643   5.534  0.00  0.00    +0.030 C 
ATOM     22  C   LIG    1       13.034   0.011   6.147  0.00  0.00    +0.090 C 
ATOM     23  C   LIG    1       12.951   1.472   5.759  0.00  0.00    -0.090 A 
ATOM     24  C   LIG    1       13.925   2.456   5.753  0.00  0.00    +0.010 A 
ATOM     25  C   LIG    1       13.613   3.740   5.351  0.00  0.00    +0.010 A 
ATOM     26  C   LIG    1       12.324   4.045   4.955  0.00  0.00    +0.000 A 
ATOM     27  C   LIG    1       11.351   3.065   4.961  0.00  0.00    +0.030 A 
ATOM     28  C   LIG    1       11.662   1.777   5.362  0.00  0.00    -0.110 A 
ENDBRANCH  17  20
ENDBRANCH   1  18
TORSDOF 4
