REMARK  Name = ZINCqH0000003Q31.0
REMARK                            x       y       z     vdW  Elec       q    Type
REMARK                         _______ _______ _______ _____ _____    ______ ____
ROOT
ATOM      1  C   LIG    1        6.190  -0.716  -0.020  0.00  0.00    +0.250 C 
ENDROOT
BRANCH   1   3
ATOM      2  C   LIG    1        3.897  -1.114   0.703  0.00  0.00    +0.570 C 
ATOM      3  N   LIG    1        4.912  -0.245   0.520  0.00  0.00    -0.710 N 
ATOM      4  H   LIG    1        4.795   0.691   0.746  0.00  0.00    +0.410 HD
ATOM      5  O   LIG    1        4.043  -2.287   0.420  0.00  0.00    -0.510 OA
BRANCH   2  11
ATOM      6  C   LIG    1        1.552  -1.540   1.438  0.00  0.00    +0.190 A 
ATOM      7  C   LIG    1        0.347  -1.084   1.950  0.00  0.00    -0.080 A 
ATOM      8  C   LIG    1        0.191   0.251   2.269  0.00  0.00    +0.080 A 
ATOM      9  C   LIG    1        1.234   1.143   2.081  0.00  0.00    -0.040 A 
ATOM     10  C   LIG    1        2.438   0.707   1.573  0.00  0.00    +0.080 A 
ATOM     11  C   LIG    1        2.610  -0.640   1.246  0.00  0.00    -0.180 A 
BRANCH   6  12
ATOM     12  O   LIG    1        1.707  -2.850   1.125  0.00  0.00    -0.280 OA
BRANCH  12  14
ATOM     13  C   LIG    1        0.947  -5.137   0.940  0.00  0.00    +0.070 C 
ATOM     14  C   LIG    1        0.586  -3.708   1.348  0.00  0.00    +0.170 C 
ENDBRANCH  12  14
ENDBRANCH   6  12
ENDBRANCH   2  11
ENDBRANCH   1   3
BRANCH   1  15
ATOM     15  C   LIG    1        7.294   0.209   0.424  0.00  0.00    +0.520 C 
ATOM     16  N   LIG    1        8.579  -0.186   0.340  0.00  0.00    -0.670 N 
ATOM     17  H   LIG    1        8.791  -1.089   0.058  0.00  0.00    +0.410 HD
ATOM     18  O   LIG    1        7.025   1.310   0.858  0.00  0.00    -0.510 OA
BRANCH  16  19
ATOM     19  C   LIG    1        9.608   0.707   0.658  0.00  0.00    +0.130 A 
ATOM     20  C   LIG    1       10.802   0.675  -0.050  0.00  0.00    -0.010 A 
ATOM     21  C   LIG    1       11.814   1.561   0.264  0.00  0.00    +0.030 A 
ATOM     22  C   LIG    1       11.643   2.473   1.289  0.00  0.00    -0.100 A 
ATOM     23  C   LIG    1       10.458   2.504   2.000  0.00  0.00    +0.030 A 
ATOM     24  C   LIG    1       12.752   3.434   1.633  0.00  0.00    +0.090 C 
ATOM     25  C   LIG    1        9.440   1.625   1.687  0.00  0.00    +0.030 A 
ENDBRANCH  16  19
ENDBRANCH   1  15
BRANCH   1  26
ATOM     26  C   LIG    1        6.123  -0.733  -1.548  0.00  0.00    -0.020 C 
ATOM     27  C   LIG    1        5.740   0.658  -2.057  0.00  0.00    +0.020 C 
ATOM     28  C   LIG    1        5.072  -1.748  -2.001  0.00  0.00    +0.040 C 
ENDBRANCH   1  26
TORSDOF 7
