REMARK  Name = ZINCpe000000Uv3l.0
REMARK                            x       y       z     vdW  Elec       q    Type
REMARK                         _______ _______ _______ _____ _____    ______ ____
ROOT
ATOM      1  C   LIG    1        0.680  -2.686  -0.018  0.00  0.00    -0.670 A 
ATOM      2  C   LIG    1       -0.650  -2.308  -0.004  0.00  0.00    +0.160 A 
ATOM      3  C   LIG    1       -0.992  -0.969   0.007  0.00  0.00    +0.020 A 
ATOM      4  C   LIG    1        0.002  -0.004   0.002  0.00  0.00    +0.130 A 
ATOM      5  C   LIG    1        1.344  -0.384  -0.013  0.00  0.00    +0.020 A 
ATOM      6  O   LIG    1        2.084   0.751  -0.014  0.00  0.00    -0.230 OA
ATOM      7  C   LIG    1        1.263   1.813  -0.000  0.00  0.00    +0.650 A 
ATOM      8  O   LIG    1        1.618   2.976   0.002  0.00  0.00    -0.470 OA
ATOM      9  N   LIG    1       -0.017   1.390   0.010  0.00  0.00    -0.530 N 
ATOM     10  C   LIG    1        1.677  -1.729  -0.023  0.00  0.00    +0.190 A 
ENDROOT
BRANCH   1  11
ATOM     11  S   LIG    1        1.106  -4.396  -0.031  0.00  0.00    +2.700 S 
ATOM     12  O   LIG    1        2.410  -4.481  -0.588  0.00  0.00    -0.950 OA
ATOM     13  O   LIG    1       -0.015  -5.085  -0.568  0.00  0.00    -0.950 OA
BRANCH  11  15
ATOM     14  C   LIG    1        0.068  -5.400   2.256  0.00  0.00    +0.300 C 
ATOM     15  N   LIG    1        1.240  -4.880   1.547  0.00  0.00    -1.000 NA
ATOM     16  C   LIG    1        2.530  -4.787   2.235  0.00  0.00    +0.310 C 
ENDBRANCH  11  15
ENDBRANCH   1  11
BRANCH   9  17
ATOM     17  C   LIG    1       -1.210   2.241   0.020  0.00  0.00    +0.370 C 
BRANCH  17  18
ATOM     18  C   LIG    1       -1.612   2.524   1.445  0.00  0.00    +0.500 C 
ATOM     19  N   LIG    1       -2.690   3.292   1.700  0.00  0.00    -0.610 N 
ATOM     20  C   LIG    1       -3.479   3.864   0.601  0.00  0.00    +0.260 C 
ATOM     21  C   LIG    1       -4.951   3.473   0.801  0.00  0.00    +0.010 C 
ATOM     22  C   LIG    1       -5.405   3.912   2.195  0.00  0.00    +0.020 C 
ATOM     23  C   LIG    1       -4.567   3.194   3.256  0.00  0.00    +0.020 C 
ATOM     24  C   LIG    1       -3.094   3.578   3.084  0.00  0.00    +0.270 C 
ATOM     25  O   LIG    1       -0.966   2.062   2.361  0.00  0.00    -0.520 OA
ENDBRANCH  17  18
ENDBRANCH   9  17
TORSDOF 4
