REMARK  Name = ZINCpe000000YYJ6.0
REMARK                            x       y       z     vdW  Elec       q    Type
REMARK                         _______ _______ _______ _____ _____    ______ ____
ROOT
ATOM      1  O   LIG    1        0.214   7.456   0.242  0.00  0.00    -0.490 OA
ATOM      2  C   LIG    1        0.451   6.266   0.158  0.00  0.00    +0.570 A 
ATOM      3  N   LIG    1        0.611   5.511   1.267  0.00  0.00    -0.660 N 
ATOM      4  H   LIG    1        0.536   5.927   2.140  0.00  0.00    +0.430 HD
ATOM      5  C   LIG    1        0.873   4.198   1.184  0.00  0.00    +0.710 A 
ATOM      6  N   LIG    1        0.991   3.551   0.011  0.00  0.00    -0.520 N 
ATOM      7  C   LIG    1        0.850   4.233  -1.189  0.00  0.00    +0.210 A 
ATOM      8  C   LIG    1        0.963   3.585  -2.409  0.00  0.00    -0.040 A 
ATOM      9  C   LIG    1        0.810   4.299  -3.581  0.00  0.00    +0.100 A 
ATOM     10  C   LIG    1        0.539   5.658  -3.550  0.00  0.00    -0.010 A 
ATOM     11  C   LIG    1        0.418   6.319  -2.345  0.00  0.00    +0.140 A 
ATOM     12  O   LIG    1        1.008   3.565   2.213  0.00  0.00    -0.540 OA
ATOM     13  C   LIG    1        0.570   5.610  -1.156  0.00  0.00    -0.200 A 
ENDROOT
BRANCH   6  14
ATOM     14  C   LIG    1        1.278   2.115   0.001  0.00  0.00    +0.350 C 
BRANCH  14  15
ATOM     15  C   LIG    1       -0.016   1.344   0.009  0.00  0.00    +0.510 C 
ATOM     16  N   LIG    1        0.002  -0.004   0.002  0.00  0.00    -0.610 N 
ATOM     17  C   LIG    1        1.264  -0.753  -0.130  0.00  0.00    +0.250 C 
ATOM     18  C   LIG    1        1.327  -1.810   0.984  0.00  0.00    +0.220 C 
ATOM     19  O   LIG    1        0.119  -2.579   0.990  0.00  0.00    -0.370 OA
ATOM     20  C   LIG    1       -1.048  -1.802   1.252  0.00  0.00    +0.140 C 
ATOM     21  C   LIG    1       -2.296  -2.675   1.347  0.00  0.00    +0.040 C 
ATOM     22  C   LIG    1       -3.507  -1.790   1.658  0.00  0.00    +0.010 C 
ATOM     23  C   LIG    1       -3.685  -0.742   0.558  0.00  0.00    +0.000 C 
ATOM     24  C   LIG    1       -2.422   0.118   0.446  0.00  0.00    +0.060 C 
ATOM     25  C   LIG    1       -1.235  -0.786   0.119  0.00  0.00    +0.200 C 
ATOM     26  O   LIG    1       -1.075   1.936   0.018  0.00  0.00    -0.510 OA
ENDBRANCH  14  15
ENDBRANCH   6  14
TORSDOF 2
