REMARK  Name = ZINCrH000004tQcm.0
REMARK                            x       y       z     vdW  Elec       q    Type
REMARK                         _______ _______ _______ _____ _____    ______ ____
ROOT
ATOM      1  O   LIG    1        1.239   8.126  -0.677  0.00  0.00    -0.510 OA
ATOM      2  C   LIG    1        1.086   7.355  -1.601  0.00  0.00    +0.520 C 
ATOM      3  N   LIG    1        0.847   6.051  -1.358  0.00  0.00    -0.730 N 
ATOM      4  H   LIG    1        0.725   5.435  -2.097  0.00  0.00    +0.400 HD
ENDROOT
BRANCH   3   5
ATOM      5  C   LIG    1        0.771   5.565   0.022  0.00  0.00    +0.340 C 
BRANCH   5   6
ATOM      6  C   LIG    1        0.496   4.083   0.018  0.00  0.00    -0.100 A 
ATOM      7  C   LIG    1       -0.808   3.624   0.028  0.00  0.00    +0.050 A 
ATOM      8  C   LIG    1       -1.065   2.265   0.019  0.00  0.00    +0.040 A 
ATOM      9  C   LIG    1       -0.016   1.361   0.009  0.00  0.00    +0.040 A 
ATOM     10  O   LIG    1        0.002  -0.004   0.002  0.00  0.00    -0.310 OA
ATOM     11  C   LIG    1        1.336  -0.373   0.399  0.00  0.00    +0.440 C 
ATOM     12  O   LIG    1        2.139   0.749  -0.014  0.00  0.00    -0.310 OA
ATOM     13  C   LIG    1        1.297   1.824  -0.001  0.00  0.00    +0.030 A 
ATOM     14  C   LIG    1        1.548   3.186   0.004  0.00  0.00    +0.060 A 
ENDBRANCH   5   6
ENDBRANCH   3   5
BRANCH   2  15
ATOM     15  C   LIG    1        1.164   7.855  -3.020  0.00  0.00    +0.220 C 
BRANCH  15  16
ATOM     16  O   LIG    1        1.425   9.260  -3.016  0.00  0.00    -0.280 OA
BRANCH  16  17
ATOM     17  C   LIG    1        1.526   9.872  -4.225  0.00  0.00    +0.140 A 
ATOM     18  C   LIG    1        1.383   9.137  -5.390  0.00  0.00    -0.080 A 
ATOM     19  C   LIG    1        1.480   9.762  -6.620  0.00  0.00    +0.050 A 
ATOM     20  C   LIG    1        1.732  11.120  -6.694  0.00  0.00    -0.020 A 
ATOM     21  C   LIG    1        1.882  11.864  -5.541  0.00  0.00    +0.060 A 
ATOM     22  C   LIG    1        1.780  11.245  -4.297  0.00  0.00    -0.070 A 
BRANCH  22  23
ATOM     23  C   LIG    1        1.941  12.040  -3.055  0.00  0.00    -0.040 A 
ATOM     24  C   LIG    1        0.992  11.948  -2.038  0.00  0.00    +0.040 A 
ATOM     25  C   LIG    1        1.149  12.686  -0.883  0.00  0.00    +0.000 A 
ATOM     26  C   LIG    1        2.241  13.523  -0.737  0.00  0.00    +0.000 A 
ATOM     27  C   LIG    1        3.183  13.621  -1.744  0.00  0.00    +0.000 A 
ATOM     28  C   LIG    1        3.039  12.884  -2.902  0.00  0.00    +0.010 A 
ENDBRANCH  22  23
ENDBRANCH  16  17
ENDBRANCH  15  16
ENDBRANCH   2  15
TORSDOF 6
