REMARK  Name = ZINCqH0000032rIq.0
REMARK                            x       y       z     vdW  Elec       q    Type
REMARK                         _______ _______ _______ _____ _____    ______ ____
ROOT
ATOM      1  C   LIG    1        0.796  -2.287  -0.035  0.00  0.00    +0.060 C 
ATOM      2  C   LIG    1        1.503  -0.933   0.143  0.00  0.00    +0.260 C 
ATOM      3  N   LIG    1        0.424   0.055   0.228  0.00  0.00    -0.560 N 
ATOM      4  C   LIG    1       -0.817  -0.580   0.123  0.00  0.00    +0.160 A 
ATOM      5  C   LIG    1       -2.099  -0.028   0.147  0.00  0.00    +0.010 A 
ATOM      6  C   LIG    1       -3.208  -0.837   0.021  0.00  0.00    +0.040 A 
ATOM      7  C   LIG    1       -3.058  -2.203  -0.135  0.00  0.00    -0.010 A 
ATOM      8  C   LIG    1       -1.792  -2.757  -0.164  0.00  0.00    +0.050 A 
ATOM      9  C   LIG    1        0.602   1.381   0.389  0.00  0.00    +0.720 C 
ATOM     10  N   LIG    1        1.841   1.876   0.579  0.00  0.00    -0.670 N 
ATOM     11  H   LIG    1        2.612   1.290   0.523  0.00  0.00    +0.410 HD
ATOM     12  O   LIG    1       -0.355   2.130   0.367  0.00  0.00    -0.550 OA
ATOM     13  C   LIG    1       -0.678  -1.950  -0.038  0.00  0.00    -0.130 A 
ENDROOT
BRANCH  10  14
ATOM     14  C   LIG    1        2.016   3.237   0.855  0.00  0.00    +0.160 A 
ATOM     15  C   LIG    1        0.953   3.994   1.335  0.00  0.00    +0.050 A 
ATOM     16  C   LIG    1        1.121   5.337   1.616  0.00  0.00    +0.030 A 
ATOM     17  C   LIG    1        2.345   5.943   1.411  0.00  0.00    +0.070 A 
ATOM     18  C   LIG    1        3.414   5.194   0.925  0.00  0.00    -0.120 A 
ATOM     19  C   LIG    1        4.738   5.810   0.693  0.00  0.00    +0.570 C 
ATOM     20  O   LIG    1        5.021   6.875   1.207  0.00  0.00    -0.530 OA
ATOM     21  N   LIG    1        5.628   5.175  -0.096  0.00  0.00    -0.730 N 
ATOM     22  H   LIG    1        6.511   5.555  -0.220  0.00  0.00    +0.410 HD
ATOM     23  C   LIG    1        5.285   3.925  -0.769  0.00  0.00    +0.280 C 
ATOM     24  C   LIG    1        4.415   3.043   0.124  0.00  0.00    +0.080 C 
ATOM     25  C   LIG    1        3.247   3.836   0.647  0.00  0.00    -0.090 A 
ENDBRANCH  10  14
BRANCH   1  27
ATOM     26  C   LIG    1        2.720  -3.111  -1.400  0.00  0.00    +0.020 C 
ATOM     27  C   LIG    1        1.201  -2.930  -1.364  0.00  0.00    -0.010 C 
ATOM     28  C   LIG    1        0.522  -4.294  -1.498  0.00  0.00    +0.030 C 
ENDBRANCH   1  27
TORSDOF 2
