REMARK  Name = ZINCrD00000lEigP.0
REMARK                            x       y       z     vdW  Elec       q    Type
REMARK                         _______ _______ _______ _____ _____    ______ ____
ROOT
ATOM      1  C   LIG    1        3.758   2.195   0.579  0.00  0.00    +0.530 C 
ATOM      2  N   LIG    1        2.584   2.114   1.237  0.00  0.00    -0.600 N 
ATOM      3  C   LIG    1        1.346   2.483   0.524  0.00  0.00    +0.270 C 
ATOM      4  C   LIG    1        0.193   1.506   0.819  0.00  0.00    +0.010 C 
ATOM      5  C   LIG    1        0.710   0.088   0.849  0.00  0.00    +0.010 C 
ATOM      6  C   LIG    1        1.096  -0.279   2.278  0.00  0.00    +0.010 C 
ATOM      7  C   LIG    1        2.457   0.128   2.662  0.00  0.00    +0.030 C 
ATOM      8  C   LIG    1        2.591   1.670   2.613  0.00  0.00    +0.350 C 
ATOM      9  O   LIG    1        4.776   1.798   1.104  0.00  0.00    -0.500 OA
ENDROOT
BRANCH   8  10
ATOM     10  C   LIG    1        3.884   2.082   3.268  0.00  0.00    +0.190 A 
ATOM     11  N   LIG    1        4.566   1.387   4.128  0.00  0.00    -0.370 NA
ATOM     12  O   LIG    1        5.561   1.994   4.463  0.00  0.00    +0.080 OA
ATOM     13  C   LIG    1        5.605   3.174   3.837  0.00  0.00    +0.180 A 
ATOM     14  N   LIG    1        4.541   3.240   3.074  0.00  0.00    -0.440 NA
BRANCH  13  15
ATOM     15  C   LIG    1        6.673   4.228   3.981  0.00  0.00    +0.350 C 
BRANCH  15  16
ATOM     16  O   LIG    1        6.319   5.123   5.037  0.00  0.00    -0.390 OA
ATOM     17  C   LIG    1        7.271   6.166   5.258  0.00  0.00    +0.220 C 
ENDBRANCH  15  16
ENDBRANCH  13  15
ENDBRANCH   8  10
BRANCH   1  18
ATOM     18  C   LIG    1        3.804   2.780  -0.809  0.00  0.00    +0.010 C 
BRANCH  18  19
ATOM     19  C   LIG    1        5.245   2.755  -1.325  0.00  0.00    +0.160 C 
ATOM     20  C   LIG    1        5.321   3.500  -2.659  0.00  0.00    +0.000 C 
ATOM     21  C   LIG    1        6.761   3.475  -3.175  0.00  0.00    +0.010 C 
ATOM     22  C   LIG    1        7.207   2.025  -3.374  0.00  0.00    +0.000 C 
ATOM     23  C   LIG    1        7.130   1.280  -2.039  0.00  0.00    +0.000 C 
ATOM     24  C   LIG    1        5.690   1.305  -1.524  0.00  0.00    -0.010 C 
BRANCH  19  25
ATOM     25  O   LIG    1        6.102   3.391  -0.374  0.00  0.00    -0.530 OA
ATOM     26  H   LIG    1        7.032   3.411  -0.636  0.00  0.00    +0.360 HD
ENDBRANCH  19  25
ENDBRANCH  18  19
BRANCH  18  28
ATOM     27  C   LIG    1        4.101   5.016   0.266  0.00  0.00    +0.030 C 
ATOM     28  C   LIG    1        3.301   4.224  -0.771  0.00  0.00    +0.020 C 
ENDBRANCH  18  28
ENDBRANCH   1  18
TORSDOF 7
