REMARK  Name = ZINCtV00001bB3e5.0
REMARK                            x       y       z     vdW  Elec       q    Type
REMARK                         _______ _______ _______ _____ _____    ______ ____
ROOT
ATOM      1  C   LIG    1        4.243   1.875  -0.123  0.00  0.00    -0.180 A 
ATOM      2  C   LIG    1        3.683   3.137  -0.123  0.00  0.00    +0.300 A 
ATOM      3  N   LIG    1        4.662   4.066  -0.226  0.00  0.00    -0.460 N 
ATOM      4  C   LIG    1        5.900   3.459  -0.307  0.00  0.00    +0.110 A 
ATOM      5  C   LIG    1        7.194   3.958  -0.427  0.00  0.00    +0.020 A 
ATOM      6  C   LIG    1        8.263   3.090  -0.487  0.00  0.00    +0.070 A 
ATOM      7  C   LIG    1        8.063   1.718  -0.427  0.00  0.00    -0.100 A 
ATOM      8  C   LIG    1        6.789   1.205  -0.308  0.00  0.00    +0.100 A 
ATOM      9 BR   LIG    1        9.546   0.547  -0.510  0.00  0.00    -0.050 Br
ATOM     10  C   LIG    1        5.701   2.071  -0.247  0.00  0.00    -0.070 A 
ENDROOT
BRANCH   1  22
ATOM     11  O   LIG    1        1.582  -1.628   0.296  0.00  0.00    -0.510 OA
ATOM     12  C   LIG    1        1.606  -0.641   1.009  0.00  0.00    +0.560 C 
ATOM     13  N   LIG    1        0.780  -0.391   2.039  0.00  0.00    -0.660 N 
ATOM     14  H   LIG    1        0.067  -0.984   2.325  0.00  0.00    +0.420 HD
ATOM     15  C   LIG    1        1.076   0.825   2.643  0.00  0.00    +0.140 A 
ATOM     16  C   LIG    1        0.506   1.484   3.726  0.00  0.00    -0.010 A 
ATOM     17  C   LIG    1        1.000   2.708   4.130  0.00  0.00    +0.050 A 
ATOM     18  C   LIG    1        2.069   3.290   3.470  0.00  0.00    -0.010 A 
ATOM     19  C   LIG    1        2.651   2.648   2.395  0.00  0.00    +0.050 A 
ATOM     20  C   LIG    1        2.159   1.416   1.978  0.00  0.00    -0.090 A 
ATOM     21  C   LIG    1        2.541   0.485   0.893  0.00  0.00    -0.190 C 
ATOM     22  C   LIG    1        3.556   0.641  -0.029  0.00  0.00    +0.220 C 
ENDBRANCH   1  22
BRANCH   3  23
ATOM     23  C   LIG    1        4.440   5.513  -0.253  0.00  0.00    +0.370 C 
BRANCH  23  24
ATOM     24  C   LIG    1        4.370   5.984  -1.683  0.00  0.00    -0.130 A 
ATOM     25  C   LIG    1        5.521   6.387  -2.334  0.00  0.00    +0.060 A 
ATOM     26  C   LIG    1        5.460   6.813  -3.647  0.00  0.00    -0.010 A 
ATOM     27  C   LIG    1        4.243   6.847  -4.308  0.00  0.00    +0.110 A 
ATOM     28  C   LIG    1        3.090   6.449  -3.653  0.00  0.00    -0.010 A 
ATOM     29  F   LIG    1        4.181   7.270  -5.589  0.00  0.00    -0.130 F 
ATOM     30  C   LIG    1        3.155   6.017  -2.341  0.00  0.00    +0.060 A 
ENDBRANCH  23  24
ENDBRANCH   3  23
TORSDOF 3
