REMARK  Name = ZINCrg000000sYJd.0
REMARK                            x       y       z     vdW  Elec       q    Type
REMARK                         _______ _______ _______ _____ _____    ______ ____
ROOT
ATOM      1  N   LIG    1       -3.709   3.240   0.154  0.00  0.00    -0.460 N 
ATOM      2  C   LIG    1       -3.559   1.784   0.411  0.00  0.00    +0.180 C 
ATOM      3  C   LIG    1       -4.949   1.376   0.958  0.00  0.00    +0.030 C 
ATOM      4  C   LIG    1       -5.354   2.594   1.819  0.00  0.00    +0.240 C 
ATOM      5  C   LIG    1       -4.515   3.766   1.276  0.00  0.00    +0.190 C 
ENDROOT
BRANCH   1  11
ATOM      6  C   LIG    1       -2.131   4.652  -1.018  0.00  0.00    -0.120 A 
ATOM      7  C   LIG    1       -0.880   5.271  -1.068  0.00  0.00    +0.050 A 
ATOM      8  C   LIG    1        0.006   5.116  -0.025  0.00  0.00    +0.000 A 
ATOM      9  C   LIG    1       -0.332   4.339   1.072  0.00  0.00    +0.050 A 
ATOM     10  C   LIG    1       -1.562   3.716   1.134  0.00  0.00    -0.030 A 
ATOM     11  C   LIG    1       -2.471   3.865   0.094  0.00  0.00    +0.140 A 
BRANCH   6  15
ATOM     12  N   LIG    1       -2.797   5.654  -3.146  0.00  0.00    -0.860 N 
ATOM     13  H   LIG    1       -1.964   6.151  -3.144  0.00  0.00    +0.400 HD
ATOM     14  H   LIG    1       -3.426   5.764  -3.877  0.00  0.00    +0.400 HD
ATOM     15  C   LIG    1       -3.085   4.817  -2.130  0.00  0.00    +0.560 C 
ATOM     16  O   LIG    1       -4.132   4.199  -2.129  0.00  0.00    -0.500 OA
ENDBRANCH   6  15
ENDBRANCH   1  11
BRANCH   4  17
ATOM     17  N   LIG    1       -6.783   2.876   1.662  0.00  0.00    -0.720 N 
ATOM     18  H   LIG    1       -7.083   3.489   0.973  0.00  0.00    +0.400 HD
ATOM     19  C   LIG    1       -7.680   2.283   2.475  0.00  0.00    +0.610 C 
ATOM     20  O   LIG    1       -7.303   1.514   3.340  0.00  0.00    -0.560 OA
BRANCH  19  21
ATOM     21  C   LIG    1       -9.108   2.565   2.317  0.00  0.00    -0.350 A 
ATOM     22  C   LIG    1      -10.161   2.022   3.082  0.00  0.00    +0.210 A 
ATOM     23  C   LIG    1      -10.192   1.127   4.155  0.00  0.00    -0.060 A 
ATOM     24  C   LIG    1      -11.412   0.785   4.711  0.00  0.00    +0.260 A 
ATOM     25  C   LIG    1      -12.588   1.353   4.183  0.00  0.00    -0.050 A 
ATOM     26  C   LIG    1      -12.520   2.218   3.150  0.00  0.00    +0.340 A 
ATOM     27  N   LIG    1      -11.321   2.559   2.598  0.00  0.00    -0.290 N 
ATOM     28  N   LIG    1      -10.989   3.416   1.541  0.00  0.00    -0.330 NA
ATOM     29  C   LIG    1       -9.694   3.424   1.371  0.00  0.00    +0.320 A 
BRANCH  24  30
ATOM     30  N   LIG    1      -11.476  -0.107   5.775  0.00  0.00    -0.850 N 
ATOM     31  H   LIG    1      -10.662  -0.494   6.133  0.00  0.00    +0.410 HD
ATOM     32  H   LIG    1      -12.335  -0.342   6.160  0.00  0.00    +0.410 HD
ENDBRANCH  24  30
ENDBRANCH  19  21
ENDBRANCH   4  17
TORSDOF 5
