REMARK  Name = ZINCkj000005h7t3.0
REMARK                            x       y       z     vdW  Elec       q    Type
REMARK                         _______ _______ _______ _____ _____    ______ ____
ROOT
ATOM      1  N   LIG    1       -2.829   0.687  -1.414  0.00  0.00    -1.110 NA
ATOM      2  H   LIG    1       -3.522   0.906  -2.055  0.00  0.00    +0.420 HD
ENDROOT
BRANCH   1   3
ATOM      3  S   LIG    1       -2.743   1.505   0.024  0.00  0.00    +2.690 S 
ATOM      4  O   LIG    1       -3.785   2.470  -0.001  0.00  0.00    -0.940 OA
ATOM      5  O   LIG    1       -2.620   0.519   1.040  0.00  0.00    -0.930 OA
BRANCH   3   6
ATOM      6  C   LIG    1       -1.229   2.407   0.021  0.00  0.00    -0.690 A 
ATOM      7  C   LIG    1       -1.249   3.789   0.033  0.00  0.00    +0.190 A 
ATOM      8  C   LIG    1       -0.062   4.498   0.026  0.00  0.00    -0.010 A 
ATOM      9  C   LIG    1        1.147   3.824   0.011  0.00  0.00    +0.170 A 
ATOM     10  C   LIG    1        1.167   2.439   0.004  0.00  0.00    -0.010 A 
ATOM     11  F   LIG    1        2.307   4.516   0.004  0.00  0.00    -0.120 F 
ATOM     12  C   LIG    1       -0.021   1.732   0.012  0.00  0.00    +0.070 A 
ATOM     13 CL   LIG    1        0.002  -0.004   0.002  0.00  0.00    -0.030 Cl
ENDBRANCH   3   6
ENDBRANCH   1   3
BRANCH   1  14
ATOM     14  C   LIG    1       -1.857  -0.367  -1.716  0.00  0.00    +0.300 C 
BRANCH  14  15
ATOM     15  C   LIG    1       -2.361  -1.202  -2.894  0.00  0.00    +0.210 C 
BRANCH  15  16
ATOM     16  O   LIG    1       -2.413  -0.388  -4.067  0.00  0.00    -0.400 OA
BRANCH  16  17
ATOM     17  C   LIG    1       -2.873  -1.076  -5.232  0.00  0.00    +0.210 C 
BRANCH  17  18
ATOM     18  C   LIG    1       -2.888  -0.113  -6.421  0.00  0.00    +0.280 C 
BRANCH  18  20
ATOM     19  C   LIG    1       -0.742  -0.864  -7.186  0.00  0.00    +0.320 C 
ATOM     20  N   LIG    1       -1.514   0.301  -6.732  0.00  0.00    -0.390 N 
ATOM     21  C   LIG    1       -1.537   1.316  -7.794  0.00  0.00    +0.310 C 
ATOM     22  H   LIG    1       -1.084   0.689  -5.906  0.00  0.00    +0.430 HD
ENDBRANCH  18  20
ENDBRANCH  17  18
ENDBRANCH  16  17
ENDBRANCH  15  16
ENDBRANCH  14  15
ENDBRANCH   1  14
TORSDOF 8
