REMARK  Name = ZINCrD000000BgDD.1
REMARK                            x       y       z     vdW  Elec       q    Type
REMARK                         _______ _______ _______ _____ _____    ______ ____
ROOT
ATOM      1  O   LIG    1        3.253   3.677   0.459  0.00  0.00    -0.590 OA
ATOM      2  C   LIG    1        2.974   2.869   1.323  0.00  0.00    +0.720 C 
ATOM      3  N   LIG    1        3.718   2.797   2.445  0.00  0.00    -0.640 N 
ATOM      4  C   LIG    1        3.490   1.876   3.567  0.00  0.00    +0.240 C 
ATOM      5  C   LIG    1        4.602   2.135   4.606  0.00  0.00    +0.030 C 
ATOM      6  C   LIG    1        5.720   2.802   3.762  0.00  0.00    +0.240 C 
ATOM      7  C   LIG    1        4.892   3.635   2.751  0.00  0.00    +0.260 C 
ATOM      8  N   LIG    1        1.920   2.044   1.160  0.00  0.00    -0.730 N 
ATOM      9  H   LIG    1        1.698   1.399   1.850  0.00  0.00    +0.400 HD
ENDROOT
BRANCH   6  10
ATOM     10  N   LIG    1        6.559   3.668   4.593  0.00  0.00    -0.740 N 
ATOM     11  H   LIG    1        6.235   3.976   5.454  0.00  0.00    +0.400 HD
BRANCH  10  12
ATOM     12  C   LIG    1        7.826   4.050   4.147  0.00  0.00    +0.210 A 
ATOM     13  C   LIG    1        8.294   3.605   2.917  0.00  0.00    -0.080 A 
ATOM     14  C   LIG    1        9.546   3.988   2.476  0.00  0.00    +0.050 A 
ATOM     15  C   LIG    1       10.337   4.806   3.262  0.00  0.00    -0.060 A 
ATOM     16  C   LIG    1        9.876   5.247   4.489  0.00  0.00    +0.050 A 
ATOM     17  C   LIG    1        8.623   4.871   4.934  0.00  0.00    -0.070 A 
ENDBRANCH  10  12
ENDBRANCH   6  10
BRANCH   8  18
ATOM     18  C   LIG    1        1.111   2.122  -0.059  0.00  0.00    +0.300 C 
BRANCH  18  19
ATOM     19  C   LIG    1       -0.013   1.086   0.008  0.00  0.00    +0.270 C 
BRANCH  19  20
ATOM     20  N   LIG    1       -0.789   1.284   1.240  0.00  0.00    -0.510 NA
ATOM     21  C   LIG    1       -1.235   2.695   1.366  0.00  0.00    +0.180 C 
ATOM     22  C   LIG    1       -2.418   2.604   2.362  0.00  0.00    +0.020 C 
ATOM     23  C   LIG    1       -3.107   1.279   1.962  0.00  0.00    +0.010 C 
ATOM     24  C   LIG    1       -2.023   0.470   1.225  0.00  0.00    +0.160 C 
ENDBRANCH  19  20
BRANCH  19  25
ATOM     25  C   LIG    1       -0.917   1.248  -1.187  0.00  0.00    -0.040 A 
ATOM     26  C   LIG    1       -0.982   0.416  -2.242  0.00  0.00    -0.040 A 
ATOM     27  C   LIG    1       -1.955   0.945  -3.121  0.00  0.00    -0.060 A 
ATOM     28  C   LIG    1       -2.427   2.068  -2.550  0.00  0.00    +0.160 A 
ATOM     29  O   LIG    1       -1.798   2.243  -1.376  0.00  0.00    -0.170 OA
ENDBRANCH  19  25
ENDBRANCH  18  19
ENDBRANCH   8  18
TORSDOF 6
