REMARK  Name = ZINCkj00000GeRyO.1
REMARK                            x       y       z     vdW  Elec       q    Type
REMARK                         _______ _______ _______ _____ _____    ______ ____
ROOT
ATOM      1  C   LIG    1        3.596   4.361   0.694  0.00  0.00    +0.340 A 
ATOM      2  N   LIG    1        4.870   4.565   0.430  0.00  0.00    -0.330 NA
ATOM      3  N   LIG    1        5.151   4.074  -0.850  0.00  0.00    -0.290 N 
ATOM      4  C   LIG    1        6.295   4.041  -1.594  0.00  0.00    +0.420 A 
ATOM      5  C   LIG    1        6.261   3.488  -2.832  0.00  0.00    -0.210 A 
ATOM      6  C   LIG    1        5.056   2.964  -3.321  0.00  0.00    +0.440 A 
ATOM      7  N   LIG    1        3.969   3.008  -2.585  0.00  0.00    -0.470 NA
ATOM      8 BR   LIG    1        7.827   3.425  -3.891  0.00  0.00    +0.040 Br
ATOM      9  C   LIG    1        3.990   3.551  -1.361  0.00  0.00    +0.320 A 
ATOM     10  C   LIG    1        3.008   3.724  -0.395  0.00  0.00    -0.320 A 
ENDROOT
BRANCH   1  12
ATOM     11  C   LIG    1        3.744   5.359   2.846  0.00  0.00    +0.280 C 
ATOM     12  O   LIG    1        2.960   4.711   1.843  0.00  0.00    -0.280 OA
ENDBRANCH   1  12
BRANCH  10  13
ATOM     13  C   LIG    1        1.565   3.304  -0.507  0.00  0.00    +0.390 C 
BRANCH  13  14
ATOM     14  N   LIG    1        1.413   1.933  -0.001  0.00  0.00    -0.390 N 
ATOM     15  C   LIG    1        2.051   0.963  -0.928  0.00  0.00    +0.260 C 
ATOM     16  C   LIG    1        1.364  -0.383  -0.615  0.00  0.00    +0.070 C 
ATOM     17  C   LIG    1        0.002  -0.004   0.002  0.00  0.00    +0.000 C 
ATOM     18  C   LIG    1       -0.019   1.540   0.011  0.00  0.00    +0.280 C 
ATOM     19  H   LIG    1        1.810   1.851   0.923  0.00  0.00    +0.430 HD
BRANCH  17  20
ATOM     20  C   LIG    1       -1.141  -0.546  -0.859  0.00  0.00    +0.200 C 
BRANCH  20  21
ATOM     21  O   LIG    1       -1.176  -1.972  -0.761  0.00  0.00    -0.570 OA
ATOM     22  H   LIG    1       -1.878  -2.384  -1.282  0.00  0.00    +0.400 HD
ENDBRANCH  20  21
ENDBRANCH  17  20
ENDBRANCH  13  14
ENDBRANCH  10  13
TORSDOF 5
