REMARK  Name = ZINCkj00000GeRyO.2
REMARK                            x       y       z     vdW  Elec       q    Type
REMARK                         _______ _______ _______ _____ _____    ______ ____
ROOT
ATOM      1  C   LIG    1        3.269  -1.141  -3.148  0.00  0.00    +0.340 A 
ATOM      2  N   LIG    1        4.335  -1.895  -3.325  0.00  0.00    -0.330 NA
ATOM      3  N   LIG    1        4.211  -3.043  -2.535  0.00  0.00    -0.290 N 
ATOM      4  C   LIG    1        5.019  -4.128  -2.354  0.00  0.00    +0.420 A 
ATOM      5  C   LIG    1        4.627  -5.109  -1.503  0.00  0.00    -0.210 A 
ATOM      6  C   LIG    1        3.403  -4.987  -0.828  0.00  0.00    +0.440 A 
ATOM      7  N   LIG    1        2.645  -3.934  -1.019  0.00  0.00    -0.470 NA
ATOM      8 BR   LIG    1        5.721  -6.627  -1.228  0.00  0.00    +0.040 Br
ATOM      9  C   LIG    1        3.022  -2.959  -1.857  0.00  0.00    +0.320 A 
ATOM     10  C   LIG    1        2.424  -1.764  -2.235  0.00  0.00    -0.320 A 
ENDROOT
BRANCH   1  12
ATOM     11  C   LIG    1        4.030   0.524  -4.665  0.00  0.00    +0.280 C 
ATOM     12  O   LIG    1        3.035   0.052  -3.755  0.00  0.00    -0.280 OA
ENDBRANCH   1  12
BRANCH  10  13
ATOM     13  C   LIG    1        1.098  -1.239  -1.748  0.00  0.00    +0.380 C 
BRANCH  13  14
ATOM     14  N   LIG    1        1.306  -0.420  -0.547  0.00  0.00    -0.390 N 
ATOM     15  C   LIG    1        2.077   0.791  -0.898  0.00  0.00    +0.250 C 
ATOM     16  C   LIG    1        1.488   1.909  -0.002  0.00  0.00    +0.090 C 
ATOM     17  C   LIG    1       -0.019   1.539   0.011  0.00  0.00    +0.010 C 
ATOM     18  C   LIG    1        0.002  -0.004   0.002  0.00  0.00    +0.260 C 
ATOM     19  H   LIG    1        1.810  -0.955   0.144  0.00  0.00    +0.420 HD
BRANCH  17  20
ATOM     20  C   LIG    1       -0.694   2.064   1.279  0.00  0.00    +0.200 C 
BRANCH  20  21
ATOM     21  O   LIG    1       -0.804   3.487   1.206  0.00  0.00    -0.570 OA
ATOM     22  H   LIG    1       -1.224   3.889   1.979  0.00  0.00    +0.400 HD
ENDBRANCH  20  21
ENDBRANCH  17  20
ENDBRANCH  13  14
ENDBRANCH  10  13
TORSDOF 5
