REMARK  Name = ZINCtV000002G05x.0
REMARK                            x       y       z     vdW  Elec       q    Type
REMARK                         _______ _______ _______ _____ _____    ______ ____
ROOT
ATOM      1  N   LIG    1        2.434   0.748  -1.220  0.00  0.00    -0.980 NA
ENDROOT
BRANCH   1   2
ATOM      2  S   LIG    1        3.625   1.791  -1.704  0.00  0.00    +2.690 S 
ATOM      3  O   LIG    1        3.919   2.613  -0.583  0.00  0.00    -0.950 OA
ATOM      4  O   LIG    1        3.216   2.310  -2.962  0.00  0.00    -0.950 OA
BRANCH   2   9
ATOM      5  C   LIG    1        8.570  -1.505  -2.746  0.00  0.00    +0.090 C 
ATOM      6  C   LIG    1        7.335  -0.681  -2.486  0.00  0.00    -0.020 A 
ATOM      7  C   LIG    1        6.535  -0.283  -3.540  0.00  0.00    -0.020 A 
ATOM      8  C   LIG    1        5.402   0.472  -3.302  0.00  0.00    +0.030 A 
ATOM      9  C   LIG    1        5.069   0.829  -2.009  0.00  0.00    -0.690 A 
ATOM     10  C   LIG    1        5.872   0.435  -0.954  0.00  0.00    +0.040 A 
ATOM     11  C   LIG    1        5.513   0.830   0.455  0.00  0.00    +0.100 C 
ATOM     12  C   LIG    1        4.530   0.905  -4.452  0.00  0.00    +0.110 C 
ATOM     13  C   LIG    1        7.003  -0.323  -1.193  0.00  0.00    -0.020 A 
ENDBRANCH   2   9
ENDBRANCH   1   2
BRANCH   1  14
ATOM     14  C   LIG    1        2.130   0.594   0.205  0.00  0.00    +0.360 C 
BRANCH  14  15
ATOM     15  C   LIG    1        1.004   1.522   0.582  0.00  0.00    -0.100 A 
ATOM     16  C   LIG    1        1.250   2.869   0.764  0.00  0.00    +0.070 A 
ATOM     17  C   LIG    1        0.218   3.721   1.109  0.00  0.00    +0.040 A 
ATOM     18  C   LIG    1       -1.063   3.225   1.273  0.00  0.00    -0.020 A 
ATOM     19  C   LIG    1       -1.312   1.877   1.086  0.00  0.00    +0.050 A 
ATOM     20 CL   LIG    1       -2.360   4.295   1.706  0.00  0.00    -0.050 Cl
ATOM     21  C   LIG    1       -0.277   1.024   0.746  0.00  0.00    -0.010 A 
ATOM     22 CL   LIG    1       -0.586  -0.669   0.517  0.00  0.00    -0.050 Cl
ENDBRANCH  14  15
ENDBRANCH   1  14
BRANCH   1  23
ATOM     23  C   LIG    1        1.684  -0.021  -2.216  0.00  0.00    +0.340 C 
BRANCH  23  24
ATOM     24  C   LIG    1        2.171  -1.447  -2.221  0.00  0.00    -0.110 A 
ATOM     25  C   LIG    1        3.128  -1.847  -3.135  0.00  0.00    +0.010 A 
ATOM     26  C   LIG    1        3.579  -3.154  -3.136  0.00  0.00    +0.000 A 
ATOM     27  C   LIG    1        3.065  -4.063  -2.231  0.00  0.00    +0.010 A 
ATOM     28  C   LIG    1        2.104  -3.664  -1.320  0.00  0.00    +0.000 A 
ATOM     29  C   LIG    1        1.657  -2.356  -1.315  0.00  0.00    +0.010 A 
ENDBRANCH  23  24
ENDBRANCH   1  23
TORSDOF 6
