REMARK  Name = ZINCkj000005lh0g.1
REMARK                            x       y       z     vdW  Elec       q    Type
REMARK                         _______ _______ _______ _____ _____    ______ ____
ROOT
ATOM      1  C   LIG    1        1.360   1.531  -0.003  0.00  0.00    +0.270 C 
ENDROOT
BRANCH   1   5
ATOM      2  C   LIG    1       -2.201   1.727   0.769  0.00  0.00    +0.010 C 
ATOM      3  C   LIG    1       -2.244   1.364  -0.734  0.00  0.00    +0.090 C 
ATOM      4  C   LIG    1       -0.764   1.513  -1.168  0.00  0.00    +0.280 C 
ATOM      5  N   LIG    1       -0.012   1.005   0.008  0.00  0.00    -0.390 N 
ATOM      6  H   LIG    1        0.002  -0.004   0.002  0.00  0.00    +0.430 HD
ATOM      7  C   LIG    1       -0.738   1.498   1.198  0.00  0.00    +0.290 C 
BRANCH   2  11
ATOM      8  N   LIG    1       -4.446   0.829   1.290  0.00  0.00    -0.840 N 
ATOM      9  H   LIG    1       -5.040   0.250   1.793  0.00  0.00    +0.420 HD
ATOM     10  H   LIG    1       -4.804   1.408   0.599  0.00  0.00    +0.410 HD
ATOM     11  C   LIG    1       -3.124   0.828   1.550  0.00  0.00    +0.520 C 
ATOM     12  O   LIG    1       -2.677   0.103   2.414  0.00  0.00    -0.530 OA
ENDBRANCH   2  11
ENDBRANCH   1   5
BRANCH   1  13
ATOM     13  C   LIG    1        2.127   0.932  -1.183  0.00  0.00    -0.010 C 
ATOM     14  C   LIG    1        2.324  -0.590  -0.992  0.00  0.00    +0.030 C 
ATOM     15  C   LIG    1        3.753  -0.876  -1.490  0.00  0.00    +0.190 C 
ATOM     16  N   LIG    1        4.313   0.408  -1.962  0.00  0.00    -0.470 N 
ATOM     17  C   LIG    1        3.580   1.467  -1.221  0.00  0.00    +0.210 C 
BRANCH  16  18
ATOM     18  C   LIG    1        5.685   0.479  -1.710  0.00  0.00    +0.090 A 
ATOM     19  C   LIG    1        6.194   1.493  -0.908  0.00  0.00    -0.050 A 
ATOM     20  C   LIG    1        7.551   1.557  -0.656  0.00  0.00    +0.030 A 
ATOM     21  C   LIG    1        8.403   0.620  -1.210  0.00  0.00    +0.000 A 
ATOM     22  C   LIG    1        7.900  -0.388  -2.013  0.00  0.00    +0.040 A 
ATOM     23  C   LIG    1        6.544  -0.461  -2.264  0.00  0.00    +0.000 A 
ENDBRANCH  16  18
ENDBRANCH   1  13
TORSDOF 4
