REMARK  Name = ZINCkj000005lh0g.0
REMARK                            x       y       z     vdW  Elec       q    Type
REMARK                         _______ _______ _______ _____ _____    ______ ____
ROOT
ATOM      1  C   LIG    1       -2.399   5.492  -0.643  0.00  0.00    +0.270 C 
ENDROOT
BRANCH   1   5
ATOM      2  C   LIG    1       -2.499   7.745  -3.476  0.00  0.00    +0.010 C 
ATOM      3  C   LIG    1       -3.081   8.495  -2.248  0.00  0.00    +0.100 C 
ATOM      4  C   LIG    1       -3.708   7.359  -1.412  0.00  0.00    +0.270 C 
ATOM      5  N   LIG    1       -3.043   6.104  -1.812  0.00  0.00    -0.390 N 
ATOM      6  H   LIG    1       -3.724   5.468  -2.198  0.00  0.00    +0.430 HD
ATOM      7  C   LIG    1       -2.023   6.418  -2.835  0.00  0.00    +0.300 C 
BRANCH   2  11
ATOM      8  N   LIG    1       -1.530   9.743  -4.565  0.00  0.00    -0.840 N 
ATOM      9  H   LIG    1       -0.785  10.231  -4.949  0.00  0.00    +0.420 HD
ATOM     10  H   LIG    1       -2.411  10.148  -4.536  0.00  0.00    +0.410 HD
ATOM     11  C   LIG    1       -1.341   8.503  -4.072  0.00  0.00    +0.530 C 
ATOM     12  O   LIG    1       -0.240   7.997  -4.108  0.00  0.00    -0.530 OA
ENDBRANCH   2  11
ENDBRANCH   1   5
BRANCH   1  13
ATOM     13  C   LIG    1       -1.806   4.138  -1.039  0.00  0.00    -0.040 C 
ATOM     14  C   LIG    1       -2.928   3.099  -1.303  0.00  0.00    +0.040 C 
ATOM     15  C   LIG    1       -2.196   1.766  -1.008  0.00  0.00    +0.210 C 
ATOM     16  N   LIG    1       -1.306   2.069   0.133  0.00  0.00    -0.470 N 
ATOM     17  C   LIG    1       -1.029   3.517   0.141  0.00  0.00    +0.220 C 
BRANCH  16  18
ATOM     18  C   LIG    1       -0.122   1.333   0.052  0.00  0.00    +0.090 A 
ATOM     19  C   LIG    1       -0.085   0.150  -0.675  0.00  0.00    -0.030 A 
ATOM     20  C   LIG    1        1.086  -0.579  -0.748  0.00  0.00    +0.040 A 
ATOM     21  C   LIG    1        2.221  -0.131  -0.098  0.00  0.00    -0.010 A 
ATOM     22  C   LIG    1        2.189   1.046   0.627  0.00  0.00    +0.040 A 
ATOM     23  C   LIG    1        1.021   1.779   0.704  0.00  0.00    -0.040 A 
ENDBRANCH  16  18
ENDBRANCH   1  13
TORSDOF 4
