REMARK  Name = ZINCrD00000F5LCV.0
REMARK                            x       y       z     vdW  Elec       q    Type
REMARK                         _______ _______ _______ _____ _____    ______ ____
ROOT
ATOM      1  C   LIG    1       -3.506   2.603  -4.966  0.00  0.00    -0.080 A 
ATOM      2  C   LIG    1       -2.227   2.062  -4.923  0.00  0.00    +0.140 A 
ATOM      3  N   LIG    1       -1.732   2.306  -3.700  0.00  0.00    -0.450 NA
ATOM      4  C   LIG    1       -2.617   2.949  -2.987  0.00  0.00    +0.250 A 
ATOM      5  N   LIG    1       -3.725   3.160  -3.721  0.00  0.00    -0.550 N 
ATOM      6  H   LIG    1       -4.529   3.619  -3.429  0.00  0.00    +0.420 HD
ENDROOT
BRANCH   2   7
ATOM      7  C   LIG    1       -1.537   1.353  -6.025  0.00  0.00    -0.000 A 
ATOM      8  C   LIG    1       -0.834   0.175  -5.768  0.00  0.00    +0.050 A 
ATOM      9  C   LIG    1       -0.197  -0.484  -6.799  0.00  0.00    +0.030 A 
ATOM     10  C   LIG    1       -0.246   0.027  -8.085  0.00  0.00    -0.080 A 
ATOM     11  C   LIG    1       -0.936   1.198  -8.345  0.00  0.00    +0.030 A 
ATOM     12 BR   LIG    1        0.636  -0.879  -9.492  0.00  0.00    -0.050 Br
ATOM     13  C   LIG    1       -1.581   1.863  -7.323  0.00  0.00    +0.080 A 
ENDBRANCH   2   7
BRANCH   1  15
ATOM     14  O   LIG    1       -4.148   1.970  -7.110  0.00  0.00    -0.510 OA
ATOM     15  C   LIG    1       -4.433   2.587  -6.100  0.00  0.00    +0.590 C 
ATOM     16  N   LIG    1       -5.601   3.255  -6.025  0.00  0.00    -0.730 N 
ATOM     17  H   LIG    1       -5.828   3.746  -5.220  0.00  0.00    +0.390 HD
BRANCH  16  18
ATOM     18  C   LIG    1       -6.528   3.238  -7.159  0.00  0.00    +0.290 C 
BRANCH  18  19
ATOM     19  C   LIG    1       -7.768   4.067  -6.817  0.00  0.00    -0.050 C 
ATOM     20  C   LIG    1       -8.705   4.170  -8.040  0.00  0.00    +0.010 C 
ATOM     21  C   LIG    1      -10.015   3.501  -7.567  0.00  0.00    +0.200 C 
ATOM     22  O   LIG    1       -9.989   3.617  -6.128  0.00  0.00    -0.370 OA
ATOM     23  C   LIG    1       -8.622   3.348  -5.749  0.00  0.00    +0.200 C 
ENDBRANCH  18  19
ENDBRANCH  16  18
ENDBRANCH   1  15
BRANCH   4  24
ATOM     24  C   LIG    1       -2.424   3.394  -1.560  0.00  0.00    +0.170 C 
BRANCH  24  25
ATOM     25  C   LIG    1       -2.047   2.188  -0.697  0.00  0.00    +0.160 C 
ATOM     26  C   LIG    1       -1.897   2.611   0.786  0.00  0.00    +0.010 C 
ATOM     27  C   LIG    1       -0.937   1.508   1.314  0.00  0.00    +0.000 C 
ATOM     28  C   LIG    1       -0.045   1.238   0.083  0.00  0.00    +0.190 C 
ATOM     29  O   LIG    1       -0.755   1.688  -1.076  0.00  0.00    -0.350 OA
ENDBRANCH  24  25
ENDBRANCH   4  24
TORSDOF 6
