REMARK  Name = ZINCpk00000y5Cbv.0
REMARK                            x       y       z     vdW  Elec       q    Type
REMARK                         _______ _______ _______ _____ _____    ______ ____
ROOT
ATOM      1  S   LIG    1        1.169   8.466  -0.301  0.00  0.00    -0.640 S 
ATOM      2  C   LIG    1        1.086   7.355  -1.601  0.00  0.00    +0.570 C 
ENDROOT
BRANCH   2   3
ATOM      3  N   LIG    1        1.256   7.785  -2.867  0.00  0.00    -0.570 N 
ATOM      4  C   LIG    1        1.083   6.869  -4.004  0.00  0.00    +0.290 C 
ATOM      5  C   LIG    1        0.122   7.524  -5.009  0.00  0.00    +0.220 C 
ATOM      6  N   LIG    1        0.624   8.860  -5.358  0.00  0.00    -0.460 N 
ATOM      7  C   LIG    1        0.650   9.743  -4.185  0.00  0.00    +0.230 C 
ATOM      8  C   LIG    1        1.626   9.180  -3.147  0.00  0.00    +0.340 C 
BRANCH   6   9
ATOM      9  C   LIG    1       -0.121   9.418  -6.383  0.00  0.00    +0.490 A 
ATOM     10  N   LIG    1       -0.691  10.599  -6.199  0.00  0.00    -0.550 NA
ATOM     11  C   LIG    1       -1.405  11.163  -7.159  0.00  0.00    +0.350 A 
ATOM     12  C   LIG    1       -1.563  10.496  -8.364  0.00  0.00    -0.110 A 
ATOM     13  C   LIG    1       -0.958   9.259  -8.521  0.00  0.00    +0.350 A 
ATOM     14  N   LIG    1       -0.252   8.754  -7.522  0.00  0.00    -0.530 NA
ENDBRANCH   6   9
ENDBRANCH   2   3
BRANCH   2  15
ATOM     15  N   LIG    1        0.851   6.050  -1.358  0.00  0.00    -0.680 N 
ATOM     16  H   LIG    1        0.732   5.433  -2.096  0.00  0.00    +0.400 HD
BRANCH  15  17
ATOM     17  C   LIG    1        0.775   5.564   0.022  0.00  0.00    +0.370 C 
BRANCH  17  18
ATOM     18  C   LIG    1        0.504   4.082   0.019  0.00  0.00    -0.110 A 
ATOM     19  C   LIG    1       -0.797   3.618   0.027  0.00  0.00    +0.060 A 
ATOM     20  C   LIG    1       -1.050   2.259   0.019  0.00  0.00    +0.040 A 
ATOM     21  C   LIG    1        0.002   1.358   0.011  0.00  0.00    +0.050 A 
ATOM     22  O   LIG    1        0.025  -0.007   0.004  0.00  0.00    -0.310 OA
ATOM     23  C   LIG    1        1.359  -0.371   0.404  0.00  0.00    +0.440 C 
ATOM     24  O   LIG    1        2.159   0.753  -0.010  0.00  0.00    -0.310 OA
ATOM     25  C   LIG    1        1.314   1.825   0.003  0.00  0.00    +0.030 A 
ATOM     26  C   LIG    1        1.560   3.188   0.006  0.00  0.00    +0.060 A 
ENDBRANCH  17  18
ENDBRANCH  15  17
ENDBRANCH   2  15
TORSDOF 5
