REMARK  Name = ZINCqH0000038PJX.0
REMARK                            x       y       z     vdW  Elec       q    Type
REMARK                         _______ _______ _______ _____ _____    ______ ____
ROOT
ATOM      1  C   LIG    1       -4.734  -1.226   0.016  0.00  0.00    +0.150 A 
ATOM      2  C   LIG    1       -5.002   0.128  -0.142  0.00  0.00    +0.000 A 
ATOM      3  C   LIG    1       -6.305   0.565  -0.282  0.00  0.00    +0.050 A 
ATOM      4  C   LIG    1       -7.347  -0.341  -0.255  0.00  0.00    +0.010 A 
ATOM      5  C   LIG    1       -7.087  -1.697  -0.091  0.00  0.00    +0.140 A 
ATOM      6  C   LIG    1       -5.778  -2.139   0.044  0.00  0.00    +0.040 A 
ENDROOT
BRANCH   1   8
ATOM      7  C   LIG    1       -3.041  -2.849  -0.377  0.00  0.00    +0.600 C 
ATOM      8  N   LIG    1       -3.414  -1.667   0.152  0.00  0.00    -0.670 N 
ATOM      9  H   LIG    1       -2.767  -1.123   0.628  0.00  0.00    +0.410 HD
ATOM     10  O   LIG    1       -3.869  -3.571  -0.898  0.00  0.00    -0.510 OA
BRANCH   7  13
ATOM     11  C   LIG    1       -1.763  -5.552  -1.507  0.00  0.00    +0.210 C 
ATOM     12  C   LIG    1       -1.058  -4.422  -0.802  0.00  0.00    +0.070 A 
ATOM     13  C   LIG    1       -1.629  -3.267  -0.324  0.00  0.00    -0.280 A 
ATOM     14  C   LIG    1       -0.481  -2.552   0.256  0.00  0.00    +0.230 A 
ATOM     15  N   LIG    1        0.545  -3.323   0.051  0.00  0.00    -0.350 NA
ATOM     16  O   LIG    1        0.244  -4.341  -0.523  0.00  0.00    +0.100 OA
ENDBRANCH   7  13
ENDBRANCH   1   8
BRANCH   5  17
ATOM     17  N   LIG    1       -8.141  -2.613  -0.064  0.00  0.00    -1.060 N 
ATOM     18  H   LIG    1       -8.596  -2.853  -0.886  0.00  0.00    +0.430 HD
BRANCH  17  19
ATOM     19  S   LIG    1       -8.613  -3.289   1.372  0.00  0.00    +2.690 S 
ATOM     20  O   LIG    1       -7.433  -3.785   1.990  0.00  0.00    -0.940 OA
ATOM     21  O   LIG    1       -9.739  -4.105   1.080  0.00  0.00    -0.950 OA
BRANCH  19  22
ATOM     22  C   LIG    1       -9.199  -1.980   2.397  0.00  0.00    -0.670 A 
ATOM     23  C   LIG    1       -8.309  -1.253   3.164  0.00  0.00    +0.150 A 
ATOM     24  C   LIG    1       -8.767  -0.223   3.965  0.00  0.00    +0.010 A 
ATOM     25  C   LIG    1      -10.117   0.073   4.006  0.00  0.00    +0.110 A 
ATOM     26  C   LIG    1      -11.008  -0.659   3.242  0.00  0.00    -0.110 A 
ATOM     27 BR   LIG    1      -12.855  -0.255   3.297  0.00  0.00    -0.030 Br
ATOM     28  C   LIG    1      -10.549  -1.686   2.437  0.00  0.00    +0.160 A 
ENDBRANCH  19  22
ENDBRANCH  17  19
ENDBRANCH   5  17
TORSDOF 5
