REMARK  Name = ZINCqH0000033UEx.0
REMARK                            x       y       z     vdW  Elec       q    Type
REMARK                         _______ _______ _______ _____ _____    ______ ____
ROOT
ATOM      1  N   LIG    1        4.707  -3.975   2.447  0.00  0.00    -0.740 N 
ATOM      2  H   LIG    1        4.235  -3.662   3.235  0.00  0.00    +0.390 HD
ATOM      3  C   LIG    1        4.198  -3.746   1.220  0.00  0.00    +0.700 C 
ATOM      4  N   LIG    1        3.032  -3.082   1.088  0.00  0.00    -0.740 N 
ATOM      5  H   LIG    1        2.560  -2.769   1.875  0.00  0.00    +0.400 HD
ATOM      6  O   LIG    1        4.790  -4.139   0.234  0.00  0.00    -0.580 OA
ENDROOT
BRANCH   1   7
ATOM      7  C   LIG    1        5.974  -4.696   2.591  0.00  0.00    +0.260 C 
BRANCH   7   8
ATOM      8  C   LIG    1        6.637  -4.304   3.913  0.00  0.00    +0.000 C 
ATOM      9  C   LIG    1        5.660  -4.492   5.093  0.00  0.00    +0.080 C 
ATOM     10  C   LIG    1        5.975  -3.363   6.051  0.00  0.00    -0.100 A 
ATOM     11  C   LIG    1        5.654  -3.205   7.389  0.00  0.00    +0.010 A 
ATOM     12  C   LIG    1        6.054  -2.072   8.071  0.00  0.00    +0.000 A 
ATOM     13  C   LIG    1        6.779  -1.093   7.418  0.00  0.00    +0.000 A 
ATOM     14  C   LIG    1        7.101  -1.249   6.083  0.00  0.00    +0.010 A 
ATOM     15  C   LIG    1        6.700  -2.383   5.398  0.00  0.00    -0.090 A 
ATOM     16  C   LIG    1        6.921  -2.788   3.956  0.00  0.00    +0.080 C 
ENDBRANCH   7   8
BRANCH   7  18
ATOM     17  C   LIG    1        5.160  -6.615   1.214  0.00  0.00    +0.020 C 
ATOM     18  C   LIG    1        5.707  -6.203   2.582  0.00  0.00    +0.000 C 
ENDBRANCH   7  18
ENDBRANCH   1   7
BRANCH   4  19
ATOM     19  C   LIG    1        2.478  -2.834  -0.245  0.00  0.00    +0.330 C 
BRANCH  19  20
ATOM     20  C   LIG    1        1.180  -2.080  -0.117  0.00  0.00    -0.060 A 
ATOM     21  C   LIG    1       -0.012  -2.771  -0.004  0.00  0.00    -0.040 A 
ATOM     22  C   LIG    1       -1.206  -2.083   0.114  0.00  0.00    +0.050 A 
ATOM     23  C   LIG    1       -1.210  -0.702   0.124  0.00  0.00    -0.070 A 
ATOM     24  C   LIG    1       -0.015  -0.004   0.005  0.00  0.00    +0.210 A 
ATOM     25  C   LIG    1        1.182  -0.698  -0.113  0.00  0.00    -0.050 A 
BRANCH  24  26
ATOM     26  N   LIG    1       -0.017   1.393   0.010  0.00  0.00    -0.640 N 
ATOM     27  C   LIG    1       -1.286   2.124   0.002  0.00  0.00    +0.280 C 
ATOM     28  C   LIG    1        1.251   2.127   0.017  0.00  0.00    +0.280 C 
ENDBRANCH  24  26
ENDBRANCH  19  20
ENDBRANCH   4  19
TORSDOF 6
