REMARK  Name = ZINCpk000000o5Sz.0
REMARK                            x       y       z     vdW  Elec       q    Type
REMARK                         _______ _______ _______ _____ _____    ______ ____
ROOT
ATOM      1  C   LIG    1        0.620  -4.627  -0.028  0.00  0.00    +0.030 C 
ATOM      2  C   LIG    1        1.390  -3.305  -0.029  0.00  0.00    -0.020 C 
ATOM      3  C   LIG    1        1.036  -2.509   1.229  0.00  0.00    +0.040 C 
ATOM      4  C   LIG    1        1.816  -1.192   1.233  0.00  0.00    +0.060 C 
ATOM      5  C   LIG    1        1.464  -0.388  -0.014  0.00  0.00    +0.140 C 
ATOM      6  N   LIG    1        2.171   0.899  -0.014  0.00  0.00    -0.710 N 
ATOM      7  H   LIG    1        3.131   1.035  -0.022  0.00  0.00    +0.440 HD
ATOM      8  C   LIG    1        1.222   1.855   0.000  0.00  0.00    +0.710 C 
ATOM      9  N   LIG    1       -0.016   1.345   0.009  0.00  0.00    -0.380 N 
ATOM     10  O   LIG    1        1.462   3.046   0.004  0.00  0.00    -0.520 OA
ATOM     11  C   LIG    1        1.792  -1.178  -1.276  0.00  0.00    +0.060 C 
ATOM     12  C   LIG    1        0.002  -0.004   0.002  0.00  0.00    +0.530 C 
ATOM     13  O   LIG    1       -0.953  -0.751   0.007  0.00  0.00    -0.440 OA
ATOM     14  C   LIG    1        1.013  -2.496  -1.271  0.00  0.00    +0.040 C 
ENDROOT
BRANCH   9  15
ATOM     15  N   LIG    1       -1.186   2.116   0.019  0.00  0.00    -0.510 N 
ATOM     16  H   LIG    1       -1.714   2.206  -0.789  0.00  0.00    +0.430 HD
ATOM     17  C   LIG    1       -1.576   2.733   1.152  0.00  0.00    +0.520 C 
ATOM     18  O   LIG    1       -0.915   2.621   2.163  0.00  0.00    -0.490 OA
BRANCH  17  19
ATOM     19  C   LIG    1       -2.834   3.563   1.163  0.00  0.00    +0.240 C 
BRANCH  19  20
ATOM     20  N   LIG    1       -3.039   4.125   2.505  0.00  0.00    -0.520 NA
ATOM     21  C   LIG    1       -3.306   3.064   3.484  0.00  0.00    +0.170 C 
ATOM     22  C   LIG    1       -3.369   3.668   4.889  0.00  0.00    -0.010 C 
ATOM     23  C   LIG    1       -4.478   4.723   4.936  0.00  0.00    +0.020 C 
ATOM     24  C   LIG    1       -4.202   5.791   3.873  0.00  0.00    -0.020 C 
ATOM     25  C   LIG    1       -2.879   6.493   4.186  0.00  0.00    +0.030 C 
ATOM     26  C   LIG    1       -3.668   2.567   5.907  0.00  0.00    +0.020 C 
ATOM     27  C   LIG    1       -4.114   5.125   2.498  0.00  0.00    +0.180 C 
ENDBRANCH  19  20
ENDBRANCH  17  19
ENDBRANCH   9  15
TORSDOF 3
