REMARK  Name = ZINCkj00000y7EPJ.0
REMARK                            x       y       z     vdW  Elec       q    Type
REMARK                         _______ _______ _______ _____ _____    ______ ____
ROOT
ATOM      1  C   LIG    1       -3.283   3.618   2.847  0.00  0.00    +0.310 C 
ATOM      2  C   LIG    1       -2.942   3.407   1.355  0.00  0.00    +0.180 C 
ATOM      3  C   LIG    1       -2.650   4.853   0.891  0.00  0.00    +0.100 C 
ATOM      4  C   LIG    1       -3.419   5.718   1.864  0.00  0.00    +0.520 C 
ATOM      5  O   LIG    1       -3.685   6.889   1.693  0.00  0.00    -0.480 OA
ATOM      6  N   LIG    1       -3.765   5.000   2.947  0.00  0.00    -0.600 N 
ATOM      7  C   LIG    1       -4.527   5.530   4.081  0.00  0.00    +0.340 C 
ENDROOT
BRANCH   1  13
ATOM      8  C   LIG    1       -2.876   0.884   4.249  0.00  0.00    +0.350 C 
ATOM      9  N   LIG    1       -4.169   1.469   3.887  0.00  0.00    -0.370 N 
ATOM     10  N   LIG    1       -5.426   0.893   4.114  0.00  0.00    -0.260 NA
ATOM     11  C   LIG    1       -6.339   1.711   3.654  0.00  0.00    +0.250 A 
ATOM     12  C   LIG    1       -5.694   2.833   3.126  0.00  0.00    -0.060 A 
ATOM     13  C   LIG    1       -4.360   2.657   3.277  0.00  0.00    +0.020 A 
ENDBRANCH   1  13
BRANCH   2  14
ATOM     14  N   LIG    1       -1.756   2.555   1.201  0.00  0.00    -0.500 N 
ATOM     15  H   LIG    1       -0.950   3.029   1.582  0.00  0.00    +0.430 HD
ATOM     16  H   LIG    1       -1.899   1.687   1.694  0.00  0.00    +0.420 HD
BRANCH  14  17
ATOM     17  C   LIG    1       -1.533   2.278  -0.224  0.00  0.00    +0.330 C 
BRANCH  17  18
ATOM     18  C   LIG    1       -0.315   1.404  -0.382  0.00  0.00    -0.230 C 
ATOM     19  C   LIG    1       -0.348   0.103  -0.479  0.00  0.00    +0.070 C 
ATOM     20  C   LIG    1        1.043  -0.466  -0.633  0.00  0.00    +0.070 C 
ATOM     21  C   LIG    1        1.986   0.677  -0.193  0.00  0.00    +0.040 C 
ATOM     22  C   LIG    1        1.103   1.920  -0.454  0.00  0.00    +0.070 C 
ENDBRANCH  17  18
ENDBRANCH  14  17
ENDBRANCH   2  14
TORSDOF 4
