REMARK  Name = ZINCnE000004RdxQ.0
REMARK                            x       y       z     vdW  Elec       q    Type
REMARK                         _______ _______ _______ _____ _____    ______ ____
ROOT
ATOM      1  C   LIG    1        0.167   2.502   4.803  0.00  0.00    +0.100 C 
ATOM      2  C   LIG    1       -0.632   2.252   3.550  0.00  0.00    -0.100 A 
ATOM      3  C   LIG    1        0.001   1.805   2.403  0.00  0.00    +0.040 A 
ATOM      4  C   LIG    1       -0.718   1.572   1.248  0.00  0.00    -0.100 A 
ATOM      5  C   LIG    1       -2.091   1.790   1.225  0.00  0.00    +0.130 A 
ATOM      6  N   LIG    1       -3.035   1.632   0.217  0.00  0.00    -0.640 N 
ATOM      7  H   LIG    1       -2.830   1.328  -0.681  0.00  0.00    +0.420 HD
ATOM      8  C   LIG    1       -4.267   1.958   0.643  0.00  0.00    +0.550 C 
ATOM      9  C   LIG    1       -4.166   2.368   2.054  0.00  0.00    -0.070 C 
ATOM     10  N   LIG    1       -5.138   2.762   2.844  0.00  0.00    -0.090 NA
ATOM     11  O   LIG    1       -5.287   1.922  -0.021  0.00  0.00    -0.530 OA
ATOM     12  C   LIG    1       -2.729   2.238   2.389  0.00  0.00    -0.050 A 
ATOM     13  C   LIG    1       -0.013   1.086   0.008  0.00  0.00    +0.090 C 
ATOM     14  C   LIG    1       -1.996   2.470   3.547  0.00  0.00    +0.070 A 
ENDROOT
BRANCH  10  15
ATOM     15  N   LIG    1       -6.348   2.821   2.399  0.00  0.00    -0.460 N 
ATOM     16  H   LIG    1       -6.539   2.575   1.480  0.00  0.00    +0.410 HD
BRANCH  15  17
ATOM     17  C   LIG    1       -7.377   3.239   3.235  0.00  0.00    +0.130 A 
ATOM     18  C   LIG    1       -7.101   3.587   4.555  0.00  0.00    -0.010 A 
ATOM     19  C   LIG    1       -8.113   4.005   5.380  0.00  0.00    +0.080 A 
ATOM     20  C   LIG    1       -9.425   4.070   4.899  0.00  0.00    -0.140 A 
ATOM     21  C   LIG    1       -9.699   3.713   3.574  0.00  0.00    +0.080 A 
ATOM     22  C   LIG    1       -8.682   3.302   2.752  0.00  0.00    -0.040 A 
BRANCH  20  23
ATOM     23  C   LIG    1      -10.516   4.511   5.784  0.00  0.00    +0.520 C 
ATOM     24  O   LIG    1      -10.275   4.822   6.943  0.00  0.00    -0.690 OA
ATOM     25  O   LIG    1      -11.663   4.567   5.362  0.00  0.00    -0.690 OA
ENDBRANCH  20  23
ENDBRANCH  15  17
ENDBRANCH  10  15
TORSDOF 3
