REMARK  Name = ZINCpk00000y6yjX.0
REMARK                            x       y       z     vdW  Elec       q    Type
REMARK                         _______ _______ _______ _____ _____    ______ ____
ROOT
ATOM      1  N   LIG    1        0.946   5.253   1.399  0.00  0.00    -0.620 N 
ATOM      2  H   LIG    1        1.861   5.565   1.331  0.00  0.00    +0.420 HD
ATOM      3  C   LIG    1        0.618   4.024   0.953  0.00  0.00    +0.520 C 
ATOM      4  O   LIG    1       -0.528   3.633   1.039  0.00  0.00    -0.480 OA
ENDROOT
BRANCH   3   5
ATOM      5  C   LIG    1        1.664   3.144   0.352  0.00  0.00    +0.530 C 
ATOM      6  N   LIG    1        1.336   1.915  -0.094  0.00  0.00    -0.580 N 
ATOM      7  C   LIG    1       -0.026   1.353  -0.140  0.00  0.00    +0.280 C 
ATOM      8  C   LIG    1        0.177  -0.182  -0.116  0.00  0.00    +0.040 C 
ATOM      9  C   LIG    1        1.456  -0.341  -0.981  0.00  0.00    +0.040 C 
ATOM     10  C   LIG    1        2.277   0.914  -0.617  0.00  0.00    +0.210 C 
ATOM     11  O   LIG    1        2.809   3.535   0.266  0.00  0.00    -0.510 OA
BRANCH  10  12
ATOM     12  C   LIG    1        2.976   1.458  -1.864  0.00  0.00    +0.300 C 
BRANCH  12  13
ATOM     13  N   LIG    1        3.966   0.486  -2.333  0.00  0.00    -0.460 N 
ATOM     14  C   LIG    1        5.256   0.362  -1.889  0.00  0.00    +0.120 A 
ATOM     15  C   LIG    1        5.809  -0.653  -2.580  0.00  0.00    +0.140 A 
ATOM     16  N   LIG    1        4.886  -1.130  -3.429  0.00  0.00    -0.490 NA
ATOM     17  C   LIG    1        3.780  -0.453  -3.286  0.00  0.00    +0.380 A 
ENDBRANCH  12  13
ENDBRANCH  10  12
ENDBRANCH   3   5
BRANCH   1  22
ATOM     18  N   LIG    1        0.158   7.327   2.447  0.00  0.00    -0.370 N 
ATOM     19  N   LIG    1       -1.077   7.794   2.915  0.00  0.00    -0.280 NA
ATOM     20  C   LIG    1       -1.973   6.861   2.718  0.00  0.00    +0.250 A 
ATOM     21  C   LIG    1       -1.348   5.768   2.113  0.00  0.00    -0.100 A 
ATOM     22  C   LIG    1       -0.030   6.073   1.959  0.00  0.00    +0.300 A 
BRANCH  18  24
ATOM     23  C   LIG    1        1.952   8.231   1.051  0.00  0.00    +0.060 C 
ATOM     24  C   LIG    1        1.426   8.060   2.478  0.00  0.00    +0.170 C 
ATOM     25  C   LIG    1        2.447   7.279   3.308  0.00  0.00    +0.060 C 
ATOM     26  C   LIG    1        1.204   9.437   3.108  0.00  0.00    +0.070 C 
ENDBRANCH  18  24
ENDBRANCH   1  22
TORSDOF 5
