REMARK  Name = ZINC550000002Dw4.1
REMARK                            x       y       z     vdW  Elec       q    Type
REMARK                         _______ _______ _______ _____ _____    ______ ____
ROOT
ATOM      1  C   LIG    1       -0.795   1.527  -1.120  0.00  0.00    +0.180 C 
ENDROOT
BRANCH   1   2
ATOM      2  N   LIG    1       -0.012   1.005   0.008  0.00  0.00    -0.850 NA
ATOM      3  H   LIG    1        0.925   1.379   0.001  0.00  0.00    +0.340 HD
ATOM      4  H   LIG    1        0.002  -0.004   0.002  0.00  0.00    +0.350 HD
ENDBRANCH   1   2
BRANCH   1   5
ATOM      5  C   LIG    1       -0.793   3.056  -1.078  0.00  0.00    +0.200 C 
BRANCH   5   7
ATOM      6  N   LIG    1       -2.185   3.983  -3.079  0.00  0.00    -0.430 NA
ATOM      7  C   LIG    1       -1.579   3.579  -2.207  0.00  0.00    +0.200 C 
ENDBRANCH   5   7
ENDBRANCH   1   5
TORSDOF 3
