REMARK  Name = ZINCrD00000719nQ.0
REMARK                            x       y       z     vdW  Elec       q    Type
REMARK                         _______ _______ _______ _____ _____    ______ ____
ROOT
ATOM      1  C   LIG    1        3.527   0.814   0.202  0.00  0.00    +0.370 A 
ATOM      2  N   LIG    1        4.023   1.836  -0.486  0.00  0.00    -0.540 NA
ATOM      3  C   LIG    1        5.303   1.859  -0.830  0.00  0.00    +0.380 A 
ATOM      4  N   LIG    1        6.126   0.870  -0.516  0.00  0.00    -0.520 NA
ATOM      5  C   LIG    1        5.697  -0.184   0.164  0.00  0.00    +0.180 A 
ATOM      6  C   LIG    1        6.423  -1.424   0.639  0.00  0.00    +0.120 C 
ATOM      7  C   LIG    1        5.508  -2.037   1.721  0.00  0.00    +0.050 C 
ATOM      8  C   LIG    1        4.112  -1.524   1.306  0.00  0.00    +0.100 C 
ATOM      9  C   LIG    1        4.373  -0.243   0.547  0.00  0.00    -0.210 A 
ENDROOT
BRANCH   3  10
ATOM     10  C   LIG    1        5.826   3.020  -1.593  0.00  0.00    +0.000 A 
ATOM     11  C   LIG    1        4.989   4.081  -1.948  0.00  0.00    +0.010 A 
ATOM     12  C   LIG    1        5.517   5.143  -2.655  0.00  0.00    +0.250 A 
ATOM     13  N   LIG    1        6.790   5.159  -3.002  0.00  0.00    -0.470 NA
ATOM     14  C   LIG    1        7.612   4.176  -2.690  0.00  0.00    +0.250 A 
ATOM     15  C   LIG    1        7.167   3.078  -1.981  0.00  0.00    +0.020 A 
ENDBRANCH   3  10
BRANCH   1  20
ATOM     16  C   LIG    1        1.466   1.960  -0.001  0.00  0.00    +0.190 C 
ATOM     17  C   LIG    1       -0.019   1.538   0.011  0.00  0.00    +0.050 C 
ATOM     18  C   LIG    1        0.002  -0.004   0.002  0.00  0.00    +0.050 C 
ATOM     19  C   LIG    1        1.498  -0.385  -0.014  0.00  0.00    +0.200 C 
ATOM     20  N   LIG    1        2.191   0.794   0.567  0.00  0.00    -0.430 N 
BRANCH  16  21
ATOM     21  C   LIG    1        1.674   3.179   0.860  0.00  0.00    +0.480 C 
ATOM     22  O   LIG    1        2.404   3.122   1.821  0.00  0.00    -0.480 OA
BRANCH  21  23
ATOM     23  O   LIG    1        1.048   4.327   0.560  0.00  0.00    -0.350 OA
BRANCH  23  25
ATOM     24  C   LIG    1        2.788   5.793   1.429  0.00  0.00    +0.030 C 
ATOM     25  C   LIG    1        1.294   5.460   1.434  0.00  0.00    +0.120 C 
ATOM     26  C   LIG    1        0.854   5.112   2.858  0.00  0.00    +0.030 C 
ATOM     27  C   LIG    1        0.501   6.670   0.937  0.00  0.00    +0.080 C 
ENDBRANCH  23  25
ENDBRANCH  21  23
ENDBRANCH  16  21
ENDBRANCH   1  20
TORSDOF 5
