REMARK  Name = ZINC650000002pA6.1
REMARK                            x       y       z     vdW  Elec       q    Type
REMARK                         _______ _______ _______ _____ _____    ______ ____
ROOT
ATOM      1  C   LIG    1        0.000   1.080   2.488  0.00  0.00    +0.350 C 
ATOM      2  O   LIG    1        0.990   0.400   2.364  0.00  0.00    -0.440 OA
ENDROOT
BRANCH   1   4
ATOM      3  C   LIG    1       -0.013   1.086   0.008  0.00  0.00    +0.030 C 
ATOM      4  C   LIG    1       -0.729   1.579   1.267  0.00  0.00    +0.030 C 
ENDBRANCH   1   4
BRANCH   1   5
ATOM      5  C   LIG    1       -0.507   1.430   3.863  0.00  0.00    +0.180 C 
BRANCH   5   6
ATOM      6  N   LIG    1        0.371   0.828   4.876  0.00  0.00    -0.840 NA
ATOM      7  H   LIG    1        0.443  -0.170   4.745  0.00  0.00    +0.350 HD
ATOM      8  H   LIG    1        0.052   1.048   5.808  0.00  0.00    +0.350 HD
ENDBRANCH   5   6
ENDBRANCH   1   5
TORSDOF 3
