REMARK  Name = ZINC650000002pA6.0
REMARK                            x       y       z     vdW  Elec       q    Type
REMARK                         _______ _______ _______ _____ _____    ______ ____
ROOT
ATOM      1  C   LIG    1       -0.507   1.430   3.863  0.00  0.00    +0.280 C 
ENDROOT
BRANCH   1   2
ATOM      2  N   LIG    1        0.371   0.828   4.876  0.00  0.00    -0.630 N 
ATOM      3  H   LIG    1        0.032   1.062   5.797  0.00  0.00    +0.440 HD
ATOM      4  H   LIG    1        1.309   1.183   4.762  0.00  0.00    +0.440 HD
ATOM      5  H   LIG    1        0.376  -0.175   4.764  0.00  0.00    +0.440 HD
ENDBRANCH   1   2
BRANCH   1   6
ATOM      6  C   LIG    1        0.000   1.080   2.488  0.00  0.00    +0.340 C 
ATOM      7  O   LIG    1        0.990   0.400   2.364  0.00  0.00    -0.430 OA
BRANCH   6   9
ATOM      8  C   LIG    1       -0.013   1.086   0.008  0.00  0.00    +0.070 C 
ATOM      9  C   LIG    1       -0.729   1.579   1.267  0.00  0.00    +0.050 C 
ENDBRANCH   6   9
ENDBRANCH   1   6
TORSDOF 3
