REMARK  Name = ZINCqH0000000twX.0
REMARK                            x       y       z     vdW  Elec       q    Type
REMARK                         _______ _______ _______ _____ _____    ______ ____
ROOT
ATOM      1  O   LIG    1        6.699   2.509   1.828  0.00  0.00    -0.290 OA
ENDROOT
BRANCH   1   5
ATOM      2  C   LIG    1        3.775  -0.360   1.291  0.00  0.00    +0.100 A 
ATOM      3  C   LIG    1        3.746   0.810   0.547  0.00  0.00    +0.100 A 
ATOM      4  C   LIG    1        4.724   1.769   0.728  0.00  0.00    -0.020 A 
ATOM      5  C   LIG    1        5.737   1.564   1.652  0.00  0.00    +0.120 A 
ATOM      6  C   LIG    1        5.768   0.393   2.399  0.00  0.00    +0.050 A 
ATOM      7  F   LIG    1        6.755   0.193   3.300  0.00  0.00    -0.120 F 
ATOM      8  C   LIG    1        4.786  -0.566   2.223  0.00  0.00    +0.080 A 
ATOM      9  F   LIG    1        4.813  -1.703   2.953  0.00  0.00    -0.120 F 
BRANCH   2  12
ATOM     10  C   LIG    1        1.262  -2.648  -0.334  0.00  0.00    +0.110 C 
ATOM     11  C   LIG    1        2.252  -1.534  -0.115  0.00  0.00    +0.510 C 
ATOM     12  N   LIG    1        2.781  -1.333   1.108  0.00  0.00    -0.670 N 
ATOM     13  H   LIG    1        2.472  -1.858   1.863  0.00  0.00    +0.420 HD
ATOM     14  O   LIG    1        2.573  -0.817  -1.040  0.00  0.00    -0.520 OA
ENDBRANCH   2  12
ENDBRANCH   1   5
BRANCH   1  15
ATOM     15  C   LIG    1        6.604   3.688   1.026  0.00  0.00    +0.210 C 
BRANCH  15  16
ATOM     16  C   LIG    1        7.765   4.627   1.362  0.00  0.00    +0.260 C 
ATOM     17  C   LIG    1        9.119   3.901   1.167  0.00  0.00    +0.050 C 
ATOM     18  C   LIG    1       10.047   4.714   2.108  0.00  0.00    +0.040 C 
ATOM     19  C   LIG    1        9.116   5.072   3.286  0.00  0.00    +0.250 C 
ATOM     20  N   LIG    1        7.734   4.991   2.790  0.00  0.00    -0.600 N 
ATOM     21  C   LIG    1        6.623   5.213   3.520  0.00  0.00    +0.680 C 
ATOM     22  O   LIG    1        5.533   5.211   2.983  0.00  0.00    -0.570 OA
BRANCH  21  23
ATOM     23  O   LIG    1        6.721   5.438   4.844  0.00  0.00    -0.360 OA
BRANCH  23  24
ATOM     24  C   LIG    1        5.484   5.670   5.567  0.00  0.00    +0.140 C 
ATOM     25  C   LIG    1        4.780   6.901   4.992  0.00  0.00    +0.040 C 
ATOM     26  C   LIG    1        5.794   5.905   7.047  0.00  0.00    +0.080 C 
ATOM     27  C   LIG    1        4.573   4.449   5.424  0.00  0.00    +0.040 C 
ENDBRANCH  23  24
ENDBRANCH  21  23
ENDBRANCH  15  16
ENDBRANCH   1  15
TORSDOF 6
