REMARK  Name = ZINCrD000000AfFv.0
REMARK                            x       y       z     vdW  Elec       q    Type
REMARK                         _______ _______ _______ _____ _____    ______ ____
ROOT
ATOM      1  O   LIG    1        4.363   0.105  -0.039  0.00  0.00    -0.460 OA
ATOM      2  C   LIG    1        3.858  -0.998  -0.041  0.00  0.00    +0.510 C 
ATOM      3  N   LIG    1        2.516  -1.124  -0.028  0.00  0.00    -0.640 N 
ATOM      4  H   LIG    1        2.112  -2.006  -0.030  0.00  0.00    +0.420 HD
ENDROOT
BRANCH   3   5
ATOM      5  C   LIG    1        1.712   0.009  -0.014  0.00  0.00    +0.270 A 
ATOM      6  N   LIG    1        2.148   1.230  -0.012  0.00  0.00    -0.470 NA
ATOM      7  C   LIG    1        1.241   2.188   0.002  0.00  0.00    +0.260 A 
ATOM      8  C   LIG    1       -0.022   1.758   0.012  0.00  0.00    -0.240 A 
ATOM      9  S   LIG    1        0.002  -0.004   0.002  0.00  0.00    +0.130 S 
BRANCH   8  10
ATOM     10  C   LIG    1       -1.253   2.626   0.022  0.00  0.00    +0.200 C 
BRANCH  10  11
ATOM     11  C   LIG    1       -1.671   2.923  -1.395  0.00  0.00    -0.060 A 
ATOM     12  C   LIG    1       -1.177   4.040  -2.041  0.00  0.00    +0.050 A 
ATOM     13  C   LIG    1       -1.555   4.312  -3.342  0.00  0.00    +0.030 A 
ATOM     14  C   LIG    1       -2.438   3.470  -3.996  0.00  0.00    +0.070 A 
ATOM     15  C   LIG    1       -2.938   2.352  -3.346  0.00  0.00    +0.070 A 
ATOM     16  F   LIG    1       -3.800   1.529  -3.983  0.00  0.00    -0.130 F 
ATOM     17  F   LIG    1       -2.811   3.738  -5.267  0.00  0.00    -0.130 F 
ATOM     18  C   LIG    1       -2.553   2.080  -2.045  0.00  0.00    +0.020 A 
ENDBRANCH  10  11
ENDBRANCH   8  10
ENDBRANCH   3   5
BRANCH   2  19
ATOM     19  C   LIG    1        4.731  -2.226  -0.056  0.00  0.00    +0.070 C 
BRANCH  19  20
ATOM     20  C   LIG    1        6.202  -1.807  -0.068  0.00  0.00    +0.290 C 
BRANCH  20  21
ATOM     21  N   LIG    1        7.050  -3.001  -0.083  0.00  0.00    -0.720 N 
ATOM     22  H   LIG    1        6.646  -3.883  -0.084  0.00  0.00    +0.410 HD
ATOM     23  C   LIG    1        8.392  -2.875  -0.095  0.00  0.00    +0.610 C 
ATOM     24  O   LIG    1        8.899  -1.768  -0.093  0.00  0.00    -0.510 OA
BRANCH  23  25
ATOM     25  C   LIG    1        9.241  -4.071  -0.110  0.00  0.00    -0.090 A 
ATOM     26  C   LIG    1       10.606  -4.085  -0.128  0.00  0.00    +0.050 A 
ATOM     27  C   LIG    1       10.996  -5.433  -0.135  0.00  0.00    -0.060 A 
ATOM     28  C   LIG    1        9.865  -6.174  -0.129  0.00  0.00    +0.210 A 
ATOM     29  O   LIG    1        8.810  -5.349  -0.113  0.00  0.00    -0.170 OA
ENDBRANCH  23  25
ENDBRANCH  20  21
ENDBRANCH  19  20
ENDBRANCH   2  19
TORSDOF 7
