REMARK  Name = ZINCvU0000000Cpa.0
REMARK                            x       y       z     vdW  Elec       q    Type
REMARK                         _______ _______ _______ _____ _____    ______ ____
ROOT
ATOM      1  O   LIG    1       -3.806   2.236   0.488  0.00  0.00    -0.460 OA
ATOM      2  C   LIG    1       -3.775   3.435   0.311  0.00  0.00    +0.490 C 
ATOM      3  N   LIG    1       -2.598   4.052   0.084  0.00  0.00    -0.660 N 
ATOM      4  H   LIG    1       -2.562   5.020   0.024  0.00  0.00    +0.420 HD
ENDROOT
BRANCH   3   5
ATOM      5  C   LIG    1       -1.428   3.296  -0.066  0.00  0.00    +0.140 A 
ATOM      6  C   LIG    1       -0.218   3.788   0.406  0.00  0.00    +0.020 A 
ATOM      7  C   LIG    1        0.935   3.045   0.253  0.00  0.00    +0.020 A 
ATOM      8  C   LIG    1        0.884   1.802  -0.362  0.00  0.00    +0.080 A 
ATOM      9  C   LIG    1       -0.325   1.308  -0.829  0.00  0.00    +0.040 A 
ATOM     10  C   LIG    1       -1.479   2.053  -0.681  0.00  0.00    +0.040 A 
BRANCH   8  11
ATOM     11  O   LIG    1        2.019   1.069  -0.507  0.00  0.00    -0.260 OA
BRANCH  11  12
ATOM     12  C   LIG    1        2.625   0.601   0.616  0.00  0.00    +0.120 A 
ATOM     13  C   LIG    1        2.026   0.781   1.855  0.00  0.00    -0.060 A 
ATOM     14  C   LIG    1        2.642   0.301   2.994  0.00  0.00    +0.050 A 
ATOM     15  C   LIG    1        3.858  -0.351   2.902  0.00  0.00    -0.020 A 
ATOM     16  C   LIG    1        4.459  -0.527   1.669  0.00  0.00    +0.050 A 
ATOM     17  C   LIG    1        3.845  -0.053   0.526  0.00  0.00    -0.010 A 
ENDBRANCH  11  12
ENDBRANCH   8  11
ENDBRANCH   3   5
BRANCH   2  18
ATOM     18  C   LIG    1       -5.051   4.236   0.346  0.00  0.00    +0.210 C 
ATOM     19  F   LIG    1       -5.476   4.378   1.671  0.00  0.00    -0.160 F 
BRANCH  18  20
ATOM     20  C   LIG    1       -6.114   3.521  -0.448  0.00  0.00    +0.500 C 
ATOM     21  N   LIG    1       -6.890   4.209  -1.308  0.00  0.00    -0.660 N 
ATOM     22  H   LIG    1       -6.807   5.174  -1.370  0.00  0.00    +0.420 HD
ATOM     23  O   LIG    1       -6.271   2.326  -0.312  0.00  0.00    -0.450 OA
BRANCH  21  24
ATOM     24  C   LIG    1       -7.814   3.533  -2.112  0.00  0.00    +0.170 A 
ATOM     25  C   LIG    1       -8.075   3.981  -3.400  0.00  0.00    +0.000 A 
ATOM     26  C   LIG    1       -8.985   3.309  -4.193  0.00  0.00    +0.090 A 
ATOM     27  C   LIG    1       -9.643   2.196  -3.701  0.00  0.00    -0.190 A 
ATOM     28  C   LIG    1       -9.388   1.750  -2.417  0.00  0.00    +0.090 A 
ATOM     29  C   LIG    1       -8.476   2.415  -1.621  0.00  0.00    +0.030 A 
BRANCH  27  30
ATOM     30  C   LIG    1      -10.638   1.468  -4.567  0.00  0.00    +0.510 C 
ATOM     31  F   LIG    1      -10.656   0.113  -4.218  0.00  0.00    -0.180 F 
ATOM     32  F   LIG    1      -10.272   1.599  -5.910  0.00  0.00    -0.180 F 
ATOM     33  F   LIG    1      -11.911   2.016  -4.375  0.00  0.00    -0.180 F 
ENDBRANCH  27  30
ENDBRANCH  21  24
ENDBRANCH  18  20
ENDBRANCH   2  18
TORSDOF 7
