REMARK  Name = ZINCpk00000eb0x8.1
REMARK                            x       y       z     vdW  Elec       q    Type
REMARK                         _______ _______ _______ _____ _____    ______ ____
ROOT
ATOM      1  C   LIG    1       -0.739   1.585   1.260  0.00  0.00    +0.160 C 
ATOM      2  C   LIG    1       -0.013   1.086   0.008  0.00  0.00    +0.030 C 
ATOM      3  C   LIG    1       -0.764   1.599  -1.226  0.00  0.00    +0.030 C 
ATOM      4  C   LIG    1       -0.616   3.119  -1.293  0.00  0.00    +0.260 C 
ATOM      5  N   LIG    1       -0.969   3.723  -0.014  0.00  0.00    -0.600 N 
ATOM      6  C   LIG    1       -1.008   3.057   1.141  0.00  0.00    +0.530 C 
ATOM      7  O   LIG    1       -1.276   3.675   2.150  0.00  0.00    -0.530 OA
ENDROOT
BRANCH   1   8
ATOM      8  N   LIG    1        0.097   1.334   2.441  0.00  0.00    -0.660 NA
ATOM      9  H   LIG    1        0.663   0.509   2.315  0.00  0.00    +0.350 HD
BRANCH   8  10
ATOM     10  C   LIG    1       -0.725   1.228   3.654  0.00  0.00    +0.270 C 
BRANCH  10  16
ATOM     11  C   LIG    1        1.514  -1.977   6.575  0.00  0.00    +0.140 C 
ATOM     12  C   LIG    1        1.222  -0.541   6.223  0.00  0.00    +0.120 A 
ATOM     13  C   LIG    1        1.769   0.473   6.987  0.00  0.00    -0.010 A 
ATOM     14  C   LIG    1        1.497   1.791   6.657  0.00  0.00    +0.040 A 
ATOM     15  C   LIG    1        0.677   2.042   5.561  0.00  0.00    +0.080 A 
ATOM     16  C   LIG    1        0.165   0.971   4.843  0.00  0.00    +0.110 A 
ATOM     17  N   LIG    1        0.444  -0.269   5.193  0.00  0.00    -0.470 NA
BRANCH  15  18
ATOM     18  O   LIG    1        0.382   3.319   5.199  0.00  0.00    -0.480 OA
ATOM     19  H   LIG    1       -0.412   3.674   5.621  0.00  0.00    +0.390 HD
ENDBRANCH  15  18
ENDBRANCH  10  16
ENDBRANCH   8  10
ENDBRANCH   1   8
BRANCH   5  20
ATOM     20  C   LIG    1       -1.300   5.150   0.004  0.00  0.00    +0.370 C 
BRANCH  20  21
ATOM     21  C   LIG    1       -2.780   5.325  -0.218  0.00  0.00    +0.160 A 
ATOM     22  C   LIG    1       -3.642   5.446   0.860  0.00  0.00    -0.060 A 
ATOM     23  C   LIG    1       -4.995   5.610   0.607  0.00  0.00    +0.320 A 
ATOM     24  N   LIG    1       -5.417   5.634  -0.647  0.00  0.00    -0.520 NA
ATOM     25  C   LIG    1       -4.568   5.511  -1.648  0.00  0.00    +0.310 A 
ATOM     26  C   LIG    1       -5.090   5.544  -3.061  0.00  0.00    +0.180 C 
ATOM     27  N   LIG    1       -3.275   5.359  -1.445  0.00  0.00    -0.510 NA
ENDBRANCH  20  21
ENDBRANCH   5  20
TORSDOF 6
