REMARK  Name = ZINCkj000005h5VU.0
REMARK                            x       y       z     vdW  Elec       q    Type
REMARK                         _______ _______ _______ _____ _____    ______ ____
ROOT
ATOM      1  C   LIG    1        9.752  -0.552  -2.593  0.00  0.00    -0.120 A 
ATOM      2  C   LIG    1       10.553   0.589  -2.525  0.00  0.00    +0.090 A 
ATOM      3  C   LIG    1        9.970   1.827  -2.345  0.00  0.00    +0.030 A 
ATOM      4  C   LIG    1        8.595   1.938  -2.237  0.00  0.00    +0.070 A 
ATOM      5  C   LIG    1        7.796   0.810  -2.298  0.00  0.00    -0.170 A 
ATOM      6  C   LIG    1        8.366  -0.433  -2.478  0.00  0.00    +0.100 A 
ENDROOT
BRANCH   1   9
ATOM      7  C   LIG    1       11.962  -3.356  -3.894  0.00  0.00    +0.300 C 
ATOM      8  N   LIG    1       11.418  -2.023  -3.621  0.00  0.00    -0.610 N 
ATOM      9  C   LIG    1       10.370  -1.882  -2.785  0.00  0.00    +0.550 C 
ATOM     10  O   LIG    1        9.934  -2.847  -2.189  0.00  0.00    -0.530 OA
ATOM     11  C   LIG    1       12.012  -0.845  -4.258  0.00  0.00    +0.300 C 
ENDBRANCH   1   9
BRANCH   5  12
ATOM     12  C   LIG    1        6.300   0.940  -2.175  0.00  0.00    +0.330 C 
BRANCH  12  13
ATOM     13  N   LIG    1        5.914   0.830  -0.762  0.00  0.00    -0.510 N 
ATOM     14  H   LIG    1        6.204  -0.068  -0.403  0.00  0.00    +0.430 HD
ATOM     15  H   LIG    1        6.360   1.564  -0.233  0.00  0.00    +0.430 HD
BRANCH  13  16
ATOM     16  C   LIG    1        4.455   0.957  -0.641  0.00  0.00    +0.250 C 
BRANCH  16  17
ATOM     17  C   LIG    1        4.053   0.842   0.830  0.00  0.00    +0.320 C 
BRANCH  17  18
ATOM     18  N   LIG    1        2.599   0.969   0.951  0.00  0.00    -0.470 N 
ATOM     19  C   LIG    1        1.897   2.130   1.130  0.00  0.00    +0.120 A 
ATOM     20  C   LIG    1        0.594   1.793   1.187  0.00  0.00    +0.170 A 
ATOM     21  N   LIG    1        0.503   0.462   1.046  0.00  0.00    -0.480 NA
ATOM     22  C   LIG    1        1.700  -0.038   0.904  0.00  0.00    +0.400 A 
ENDBRANCH  17  18
ENDBRANCH  16  17
ENDBRANCH  13  16
ENDBRANCH  12  13
ENDBRANCH   5  12
TORSDOF 6
