REMARK  Name = ZINCbu0000000Gx7.0
REMARK                            x       y       z     vdW  Elec       q    Type
REMARK                         _______ _______ _______ _____ _____    ______ ____
ROOT
ATOM      1  C   LIG    1        1.417   2.055  -0.000  0.00  0.00    -0.020 C 
ATOM      2  C   LIG    1        1.400   3.581   0.134  0.00  0.00    +0.030 C 
ATOM      3  C   LIG    1        2.835   4.107   0.043  0.00  0.00    +0.050 C 
ATOM      4  C   LIG    1        3.459   3.648  -1.277  0.00  0.00    +0.250 C 
ATOM      5  N   LIG    1        3.470   2.181  -1.333  0.00  0.00    -0.500 N 
ATOM      6  H   LIG    1        3.969   1.819  -0.534  0.00  0.00    +0.430 HD
ATOM      7  H   LIG    1        3.929   1.881  -2.179  0.00  0.00    +0.430 HD
ATOM      8  C   LIG    1        2.093   1.672  -1.319  0.00  0.00    +0.250 C 
ENDROOT
BRANCH   1   9
ATOM      9  C   LIG    1       -0.019   1.526   0.010  0.00  0.00    +0.040 C 
BRANCH   9  10
ATOM     10  C   LIG    1        0.002  -0.004   0.002  0.00  0.00    +0.010 C 
BRANCH  10  12
ATOM     11  C   LIG    1       -2.135  -0.131  -1.286  0.00  0.00    +0.010 C 
ATOM     12  C   LIG    1       -1.433  -0.534   0.013  0.00  0.00    -0.030 C 
ATOM     13  C   LIG    1       -1.413  -2.059   0.130  0.00  0.00    +0.020 C 
ENDBRANCH  10  12
ENDBRANCH   9  10
ENDBRANCH   1   9
TORSDOF 3
