REMARK  Name = ZINCrD0000072ktw.0
REMARK                            x       y       z     vdW  Elec       q    Type
REMARK                         _______ _______ _______ _____ _____    ______ ____
ROOT
ATOM      1  C   LIG    1       -5.989   1.621  -0.667  0.00  0.00    +0.520 C 
ATOM      2  N   LIG    1       -7.210   1.065  -0.790  0.00  0.00    -0.660 N 
ATOM      3  H   LIG    1       -7.362   0.154  -0.493  0.00  0.00    +0.420 HD
ATOM      4  O   LIG    1       -5.773   2.721  -1.129  0.00  0.00    -0.490 OA
ENDROOT
BRANCH   2   5
ATOM      5  C   LIG    1       -8.263   1.804  -1.348  0.00  0.00    +0.130 A 
ATOM      6  C   LIG    1       -8.240   3.190  -1.302  0.00  0.00    +0.140 A 
ATOM      7  C   LIG    1       -9.277   3.916  -1.857  0.00  0.00    -0.060 A 
ATOM      8  C   LIG    1      -10.342   3.264  -2.450  0.00  0.00    +0.130 A 
ATOM      9  C   LIG    1      -10.374   1.883  -2.494  0.00  0.00    -0.030 A 
ATOM     10  C   LIG    1       -9.337   1.147  -1.945  0.00  0.00    +0.150 A 
BRANCH   7  11
ATOM     11  N   LIG    1       -9.249   5.395  -1.813  0.00  0.00    +0.030 N 
ATOM     12  O   LIG    1       -8.310   5.971  -1.291  0.00  0.00    -0.150 OA
ATOM     13  O   LIG    1      -10.164   6.037  -2.297  0.00  0.00    -0.160 OA
ENDBRANCH   7  11
BRANCH  10  14
ATOM     14  O   LIG    1       -9.367  -0.211  -1.988  0.00  0.00    -0.310 OA
ATOM     15  C   LIG    1      -10.500  -0.816  -2.615  0.00  0.00    +0.270 C 
ENDBRANCH  10  14
ENDBRANCH   2   5
BRANCH   1  16
ATOM     16  C   LIG    1       -4.890   0.874   0.045  0.00  0.00    +0.200 C 
ATOM     17  C   LIG    1       -5.316   0.593   1.488  0.00  0.00    +0.070 C 
BRANCH  16  18
ATOM     18  O   LIG    1       -3.680   1.677   0.045  0.00  0.00    -0.320 OA
BRANCH  18  19
ATOM     19  C   LIG    1       -2.507   1.015   0.046  0.00  0.00    +0.510 C 
ATOM     20  O   LIG    1       -2.495  -0.199   0.048  0.00  0.00    -0.500 OA
BRANCH  19  24
ATOM     21  C   LIG    1        1.149   3.176   0.042  0.00  0.00    -0.040 A 
ATOM     22  C   LIG    1        1.167   1.792   0.043  0.00  0.00    +0.000 A 
ATOM     23  C   LIG    1       -0.017   1.084   0.048  0.00  0.00    +0.090 A 
ATOM     24  C   LIG    1       -1.235   1.767   0.047  0.00  0.00    -0.140 A 
ATOM     25  C   LIG    1       -1.246   3.163   0.050  0.00  0.00    +0.090 A 
ATOM     26  C   LIG    1       -0.054   3.859   0.045  0.00  0.00    +0.000 A 
BRANCH  21  28
ATOM     27  C   LIG    1        2.880   4.200  -1.408  0.00  0.00    +0.030 C 
ATOM     28  C   LIG    1        2.446   3.942   0.036  0.00  0.00    +0.070 C 
ENDBRANCH  21  28
ENDBRANCH  19  24
ENDBRANCH  18  19
ENDBRANCH  16  18
ENDBRANCH   1  16
TORSDOF 8
