REMARK  Name = ZINCrg00000fRhSz.0
REMARK                            x       y       z     vdW  Elec       q    Type
REMARK                         _______ _______ _______ _____ _____    ______ ____
ROOT
ATOM      1  O   LIG    1       -1.039   8.680   0.054  0.00  0.00    -0.330 OA
ENDROOT
BRANCH   1   2
ATOM      2  C   LIG    1       -0.012   7.805   0.041  0.00  0.00    +0.510 C 
ATOM      3  O   LIG    1        1.134   8.212   0.032  0.00  0.00    -0.510 OA
BRANCH   2   4
ATOM      4  C   LIG    1       -0.269   6.410   0.036  0.00  0.00    -0.060 C 
ATOM      5  C   LIG    1        0.759   5.534   0.022  0.00  0.00    +0.160 C 
BRANCH   5   6
ATOM      6  C   LIG    1        0.493   4.089   0.018  0.00  0.00    -0.080 A 
ATOM      7  C   LIG    1       -0.825   3.618   0.028  0.00  0.00    +0.070 A 
ATOM      8  C   LIG    1       -1.071   2.263   0.019  0.00  0.00    +0.040 A 
ATOM      9  C   LIG    1       -0.016   1.360   0.009  0.00  0.00    +0.050 A 
ATOM     10  O   LIG    1        0.002  -0.004   0.002  0.00  0.00    -0.300 OA
ATOM     11  C   LIG    1        1.335  -0.374   0.401  0.00  0.00    +0.440 C 
ATOM     12  O   LIG    1        2.140   0.745  -0.014  0.00  0.00    -0.310 OA
ATOM     13  C   LIG    1        1.301   1.822  -0.001  0.00  0.00    +0.030 A 
ATOM     14  C   LIG    1        1.556   3.179   0.004  0.00  0.00    +0.070 A 
ENDBRANCH   5   6
ENDBRANCH   2   4
ENDBRANCH   1   2
BRANCH   1  15
ATOM     15  C   LIG    1       -0.707  10.070   0.058  0.00  0.00    +0.250 C 
BRANCH  15  17
ATOM     16  N   LIG    1       -1.904  12.234   0.080  0.00  0.00    -0.600 N 
ATOM     17  C   LIG    1       -1.972  10.888   0.074  0.00  0.00    +0.520 C 
ATOM     18  O   LIG    1       -3.052  10.336   0.081  0.00  0.00    -0.500 OA
BRANCH  16  19
ATOM     19  C   LIG    1       -3.134  13.030   0.095  0.00  0.00    +0.280 C 
ATOM     20  C   LIG    1       -3.986  12.688  -1.140  0.00  0.00    +0.070 C 
ATOM     21  C   LIG    1       -5.388  13.302  -0.895  0.00  0.00    -0.300 C 
ATOM     22  S   LIG    1       -5.699  12.891   0.864  0.00  0.00    +2.390 S 
ATOM     23  O   LIG    1       -6.255  14.021   1.521  0.00  0.00    -0.940 OA
ATOM     24  O   LIG    1       -6.350  11.630   0.946  0.00  0.00    -0.920 OA
ATOM     25  C   LIG    1       -3.949  12.701   1.361  0.00  0.00    -0.330 C 
ENDBRANCH  16  19
BRANCH  16  27
ATOM     26  C   LIG    1       -0.159  13.141  -1.374  0.00  0.00    +0.020 C 
ATOM     27  C   LIG    1       -0.600  12.902   0.071  0.00  0.00    +0.280 C 
ENDBRANCH  16  27
ENDBRANCH  15  17
ENDBRANCH   1  15
TORSDOF 7
