REMARK  Name = ZINCpk000000mJZl.0
REMARK                            x       y       z     vdW  Elec       q    Type
REMARK                         _______ _______ _______ _____ _____    ______ ____
ROOT
ATOM      1  C   LIG    1       -2.557   0.990   1.141  0.00  0.00    +0.220 A 
ATOM      2  C   LIG    1       -2.203  -0.353   1.085  0.00  0.00    -0.040 A 
ATOM      3  C   LIG    1       -2.551  -1.208   2.115  0.00  0.00    +0.060 A 
ATOM      4  C   LIG    1       -3.261  -0.735   3.200  0.00  0.00    -0.020 A 
ATOM      5  C   LIG    1       -3.626   0.611   3.263  0.00  0.00    -0.080 A 
ATOM      6  C   LIG    1       -3.270   1.474   2.227  0.00  0.00    -0.010 A 
ENDROOT
BRANCH   5   7
ATOM      7  C   LIG    1       -4.387   1.119   4.424  0.00  0.00    +0.560 C 
ATOM      8  N   LIG    1       -5.506   0.485   4.826  0.00  0.00    -0.600 N 
ATOM      9  C   LIG    1       -5.937  -0.759   4.174  0.00  0.00    +0.260 C 
ATOM     10  C   LIG    1       -7.389  -0.597   3.713  0.00  0.00    +0.030 C 
ATOM     11  C   LIG    1       -8.254  -0.179   4.904  0.00  0.00    +0.020 C 
ATOM     12  C   LIG    1       -7.766   1.167   5.444  0.00  0.00    +0.150 C 
ATOM     13  C   LIG    1       -6.316   1.022   5.929  0.00  0.00    +0.250 C 
ATOM     14  O   LIG    1       -4.003   2.109   5.016  0.00  0.00    -0.530 OA
BRANCH  12  15
ATOM     15  O   LIG    1       -8.594   1.571   6.537  0.00  0.00    -0.560 OA
ATOM     16  H   LIG    1       -8.342   2.418   6.929  0.00  0.00    +0.380 HD
ENDBRANCH  12  15
ENDBRANCH   5   7
BRANCH   1  17
ATOM     17  N   LIG    1       -2.198   1.850   0.100  0.00  0.00    -0.730 N 
ATOM     18  H   LIG    1       -2.448   2.787   0.137  0.00  0.00    +0.410 HD
BRANCH  17  22
ATOM     19  N   LIG    1       -1.996   1.249  -3.323  0.00  0.00    -0.620 N 
ATOM     20  C   LIG    1       -0.786   2.076  -3.232  0.00  0.00    +0.260 C 
ATOM     21  C   LIG    1       -0.678   2.485  -1.746  0.00  0.00    +0.050 C 
ATOM     22  C   LIG    1       -1.444   1.338  -1.047  0.00  0.00    +0.240 C 
ATOM     23  C   LIG    1       -2.384   0.816  -2.111  0.00  0.00    +0.500 C 
ATOM     24  O   LIG    1       -3.348   0.110  -1.902  0.00  0.00    -0.510 OA
BRANCH  19  25
ATOM     25  C   LIG    1       -2.690   0.935  -4.575  0.00  0.00    +0.330 C 
BRANCH  25  27
ATOM     26  C   LIG    1       -2.916  -1.337  -5.441  0.00  0.00    +0.040 C 
ATOM     27  C   LIG    1       -2.123  -0.333  -5.159  0.00  0.00    -0.080 C 
ENDBRANCH  25  27
ENDBRANCH  19  25
ENDBRANCH  17  22
ENDBRANCH   1  17
TORSDOF 6
