REMARK  Name = ZINCrg000000mWs2.0
REMARK                            x       y       z     vdW  Elec       q    Type
REMARK                         _______ _______ _______ _____ _____    ______ ____
ROOT
ATOM      1  C   LIG    1       -0.061   5.452   1.224  0.00  0.00    +0.590 C 
ATOM      2  N   LIG    1       -0.107   4.309   0.511  0.00  0.00    -0.610 N 
ATOM      3  C   LIG    1        1.051   3.875  -0.282  0.00  0.00    +0.260 C 
ATOM      4  C   LIG    1        0.600   3.662  -1.732  0.00  0.00    +0.300 C 
ATOM      5  N   LIG    1       -0.610   2.828  -1.730  0.00  0.00    -1.010 NA
ATOM      6  C   LIG    1       -1.770   3.265  -0.942  0.00  0.00    +0.300 C 
ATOM      7  C   LIG    1       -1.317   3.475   0.513  0.00  0.00    +0.290 C 
ATOM      8  O   LIG    1       -1.061   5.862   1.782  0.00  0.00    -0.510 OA
ENDROOT
BRANCH   1  12
ATOM      9  C   LIG    1        3.551   7.079   1.477  0.00  0.00    -0.270 A 
ATOM     10  C   LIG    1        2.577   8.041   1.522  0.00  0.00    +0.090 A 
ATOM     11  C   LIG    1        1.299   7.564   1.440  0.00  0.00    +0.090 A 
ATOM     12  C   LIG    1        1.201   6.205   1.327  0.00  0.00    -0.240 A 
ATOM     13  S   LIG    1        2.808   5.492   1.330  0.00  0.00    +0.220 S 
BRANCH   9  15
ATOM     14  C   LIG    1        5.962   6.182   1.485  0.00  0.00    +0.080 C 
ATOM     15  C   LIG    1        4.990   7.332   1.546  0.00  0.00    +0.420 C 
ATOM     16  O   LIG    1        5.402   8.469   1.652  0.00  0.00    -0.440 OA
ENDBRANCH   9  15
ENDBRANCH   1  12
BRANCH   5  17
ATOM     17  S   LIG    1       -0.668   1.424  -2.607  0.00  0.00    +2.780 S 
ATOM     18  O   LIG    1        0.298   1.558  -3.641  0.00  0.00    -0.970 OA
ATOM     19  O   LIG    1       -2.042   1.162  -2.855  0.00  0.00    -0.970 OA
BRANCH  17  20
ATOM     20  N   LIG    1       -0.130   0.208  -1.620  0.00  0.00    -1.010 NA
ATOM     21  C   LIG    1       -1.065  -0.548  -0.772  0.00  0.00    +0.270 C 
ATOM     22  C   LIG    1       -0.824  -2.044  -1.000  0.00  0.00    +0.140 C 
ATOM     23  O   LIG    1        0.566  -2.329  -0.824  0.00  0.00    -0.370 OA
ATOM     24  C   LIG    1        1.422  -1.665  -1.756  0.00  0.00    +0.140 C 
ATOM     25  C   LIG    1        2.871  -2.092  -1.512  0.00  0.00    +0.070 C 
ATOM     26  C   LIG    1       -1.645  -2.854   0.005  0.00  0.00    +0.070 C 
ATOM     27  C   LIG    1        1.295  -0.153  -1.570  0.00  0.00    +0.270 C 
ENDBRANCH  17  20
ENDBRANCH   5  17
TORSDOF 4
