REMARK  Name = ZINCtV000002PTkx.0
REMARK                            x       y       z     vdW  Elec       q    Type
REMARK                         _______ _______ _______ _____ _____    ______ ____
ROOT
ATOM      1  C   LIG    1        6.426  -1.036  -2.388  0.00  0.00    +0.480 A 
ATOM      2  N   LIG    1        5.370  -0.251  -2.545  0.00  0.00    -0.560 NA
ATOM      3  C   LIG    1        4.746   0.290  -1.502  0.00  0.00    +0.340 A 
ATOM      4  N   LIG    1        5.123   0.077  -0.255  0.00  0.00    -0.550 NA
ATOM      5  C   LIG    1        6.178  -0.708   0.010  0.00  0.00    +0.200 A 
ATOM      6  C   LIG    1        6.606  -0.955   1.321  0.00  0.00    +0.030 A 
ATOM      7  C   LIG    1        7.685  -1.761   1.537  0.00  0.00    +0.070 A 
ATOM      8  C   LIG    1        8.369  -2.342   0.474  0.00  0.00    +0.000 A 
ATOM      9  C   LIG    1        7.979  -2.122  -0.815  0.00  0.00    +0.060 A 
ATOM     10  C   LIG    1        6.876  -1.301  -1.070  0.00  0.00    -0.200 A 
ENDROOT
BRANCH   1  11
ATOM     11  N   LIG    1        7.066  -1.586  -3.478  0.00  0.00    -0.640 N 
ATOM     12  H   LIG    1        7.883  -2.096  -3.355  0.00  0.00    +0.420 HD
BRANCH  11  16
ATOM     13  C   LIG    1        5.498  -1.058  -7.301  0.00  0.00    -0.010 A 
ATOM     14  C   LIG    1        6.867  -1.141  -7.122  0.00  0.00    +0.030 A 
ATOM     15  C   LIG    1        7.390  -1.316  -5.856  0.00  0.00    -0.030 A 
ATOM     16  C   LIG    1        6.540  -1.409  -4.761  0.00  0.00    +0.150 A 
ATOM     17  C   LIG    1        5.165  -1.332  -4.945  0.00  0.00    +0.030 A 
ATOM     18  C   LIG    1        4.649  -1.152  -6.213  0.00  0.00    +0.030 A 
ENDBRANCH  11  16
ENDBRANCH   1  11
BRANCH   3  19
ATOM     19  S   LIG    1        3.354   1.329  -1.797  0.00  0.00    +0.020 S 
BRANCH  19  20
ATOM     20  C   LIG    1        2.917   1.760  -0.094  0.00  0.00    +0.150 C 
BRANCH  20  21
ATOM     21  C   LIG    1        1.716   2.670  -0.099  0.00  0.00    -0.070 A 
ATOM     22  C   LIG    1        0.461   2.147  -0.046  0.00  0.00    +0.040 A 
ATOM     23  C   LIG    1       -0.662   2.973  -0.055  0.00  0.00    +0.010 A 
ATOM     24  C   LIG    1       -0.536   4.327  -0.106  0.00  0.00    +0.030 A 
ATOM     25  C   LIG    1        0.744   4.904  -0.161  0.00  0.00    -0.050 A 
ATOM     26  C   LIG    1        0.915   6.297  -0.220  0.00  0.00    +0.030 A 
ATOM     27  C   LIG    1        2.170   6.821  -0.272  0.00  0.00    +0.000 A 
ATOM     28  C   LIG    1        3.292   5.995  -0.269  0.00  0.00    +0.010 A 
ATOM     29  C   LIG    1        3.166   4.641  -0.212  0.00  0.00    +0.020 A 
ATOM     30  C   LIG    1        1.886   4.064  -0.158  0.00  0.00    -0.040 A 
ENDBRANCH  20  21
ENDBRANCH  19  20
ENDBRANCH   3  19
TORSDOF 5
