REMARK  Name = ZINCrg000000nH8O.0
REMARK                            x       y       z     vdW  Elec       q    Type
REMARK                         _______ _______ _______ _____ _____    ______ ____
ROOT
ATOM      1  C   LIG    1       -1.055   3.394  -0.126  0.00  0.00    +0.260 C 
ENDROOT
BRANCH   1   4
ATOM      2  N   LIG    1        0.475   1.480   0.209  0.00  0.00    -0.720 N 
ATOM      3  H   LIG    1        1.213   2.110   0.213  0.00  0.00    +0.410 HD
ATOM      4  C   LIG    1       -0.787   1.921   0.045  0.00  0.00    +0.500 C 
ATOM      5  O   LIG    1       -1.709   1.133   0.035  0.00  0.00    -0.520 OA
BRANCH   2   6
ATOM      6  C   LIG    1        0.735   0.048   0.376  0.00  0.00    +0.300 C 
BRANCH   6   9
ATOM      7  N   LIG    1        2.693  -1.429   0.701  0.00  0.00    -0.730 N 
ATOM      8  H   LIG    1        2.082  -2.182   0.720  0.00  0.00    +0.400 HD
ATOM      9  C   LIG    1        2.217  -0.179   0.533  0.00  0.00    +0.510 C 
ATOM     10  O   LIG    1        2.980   0.763   0.508  0.00  0.00    -0.530 OA
BRANCH   7  11
ATOM     11  C   LIG    1        4.133  -1.649   0.854  0.00  0.00    +0.260 C 
BRANCH  11  13
ATOM     12  C   LIG    1        5.909  -3.375   1.187  0.00  0.00    +0.030 C 
ATOM     13  C   LIG    1        4.405  -3.145   1.027  0.00  0.00    +0.000 C 
ENDBRANCH  11  13
ENDBRANCH   7  11
ENDBRANCH   6   9
ENDBRANCH   2   6
ENDBRANCH   1   4
BRANCH   1  14
ATOM     14  N   LIG    1       -2.494   3.614  -0.286  0.00  0.00    -1.090 NA
ATOM     15  H   LIG    1       -3.066   3.669   0.496  0.00  0.00    +0.420 HD
BRANCH  14  16
ATOM     16  S   LIG    1       -3.146   3.768  -1.800  0.00  0.00    +2.700 S 
ATOM     17  O   LIG    1       -2.346   4.722  -2.486  0.00  0.00    -0.950 OA
ATOM     18  O   LIG    1       -4.548   3.915  -1.621  0.00  0.00    -0.950 OA
BRANCH  16  19
ATOM     19  C   LIG    1       -2.908   2.232  -2.629  0.00  0.00    -0.710 A 
ATOM     20  C   LIG    1       -1.762   2.019  -3.373  0.00  0.00    +0.160 A 
ATOM     21  C   LIG    1       -1.571   0.813  -4.019  0.00  0.00    -0.090 A 
ATOM     22  C   LIG    1       -2.535  -0.180  -3.931  0.00  0.00    +0.180 A 
ATOM     23  C   LIG    1       -3.687   0.038  -3.189  0.00  0.00    -0.030 A 
ATOM     24  C   LIG    1       -3.870   1.243  -2.540  0.00  0.00    +0.190 A 
BRANCH  22  25
ATOM     25  O   LIG    1       -2.352  -1.365  -4.571  0.00  0.00    -0.310 OA
ATOM     26  C   LIG    1       -1.143  -1.520  -5.317  0.00  0.00    +0.250 C 
ENDBRANCH  22  25
ENDBRANCH  16  19
ENDBRANCH  14  16
ENDBRANCH   1  14
BRANCH   1  27
ATOM     27  C   LIG    1       -0.557   4.150   1.108  0.00  0.00    +0.050 C 
BRANCH  27  28
ATOM     28  C   LIG    1       -0.727   5.654   0.888  0.00  0.00    -0.020 C 
ATOM     29  C   LIG    1        0.198   6.112  -0.242  0.00  0.00    +0.020 C 
ATOM     30  C   LIG    1       -0.369   6.401   2.174  0.00  0.00    +0.030 C 
ENDBRANCH  27  28
ENDBRANCH   1  27
TORSDOF 11
