REMARK  Name = ZINCnE00000dqudu.0
REMARK                            x       y       z     vdW  Elec       q    Type
REMARK                         _______ _______ _______ _____ _____    ______ ____
ROOT
ATOM      1  N   LIG    1       -1.191   1.867   0.018  0.00  0.00    -0.640 N 
ATOM      2  H   LIG    1       -1.204   2.837   0.023  0.00  0.00    +0.420 HD
ATOM      3  C   LIG    1       -0.014   1.209   0.009  0.00  0.00    +0.510 C 
ATOM      4  O   LIG    1        0.002  -0.004   0.002  0.00  0.00    -0.480 OA
ENDROOT
BRANCH   1   8
ATOM      5  C   LIG    1       -4.255  -0.479   0.020  0.00  0.00    -0.360 A 
ATOM      6  C   LIG    1       -4.659   0.829   0.028  0.00  0.00    +0.030 A 
ATOM      7  C   LIG    1       -3.619   1.721   0.034  0.00  0.00    -0.080 A 
ATOM      8  C   LIG    1       -2.384   1.156   0.020  0.00  0.00    +0.040 A 
ATOM      9  C   LIG    1       -6.107   1.246   0.037  0.00  0.00    +0.130 C 
ATOM     10  S   LIG    1       -2.498  -0.546   0.011  0.00  0.00    +0.370 S 
BRANCH   5  11
ATOM     11  C   LIG    1       -5.117  -1.603   0.017  0.00  0.00    +0.550 C 
ATOM     12  O   LIG    1       -6.324  -1.444   0.023  0.00  0.00    -0.510 OA
BRANCH  11  13
ATOM     13  O   LIG    1       -4.601  -2.850   0.008  0.00  0.00    -0.350 OA
BRANCH  13  15
ATOM     14  C   LIG    1       -4.764  -5.261  -0.004  0.00  0.00    +0.070 C 
ATOM     15  C   LIG    1       -5.529  -3.937   0.006  0.00  0.00    +0.200 C 
ENDBRANCH  13  15
ENDBRANCH  11  13
ENDBRANCH   5  11
ENDBRANCH   1   8
BRANCH   3  16
ATOM     16  C   LIG    1        1.280   1.980   0.001  0.00  0.00    +0.060 C 
BRANCH  16  17
ATOM     17  C   LIG    1        2.457   1.002  -0.016  0.00  0.00    -0.010 C 
ATOM     18  C   LIG    1        2.399   0.114   1.229  0.00  0.00    +0.030 C 
BRANCH  17  19
ATOM     19  C   LIG    1        2.376   0.128  -1.269  0.00  0.00    +0.050 C 
ATOM     20  C   LIG    1        2.433   1.015  -2.514  0.00  0.00    -0.030 C 
ENDBRANCH  17  19
BRANCH  17  21
ATOM     21  C   LIG    1        3.771   1.784  -0.024  0.00  0.00    -0.070 C 
BRANCH  21  22
ATOM     22  C   LIG    1        4.930   0.821  -0.041  0.00  0.00    +0.500 C 
ATOM     23  O   LIG    1        6.073   1.243  -0.049  0.00  0.00    -0.710 OA
ATOM     24  O   LIG    1        4.723  -0.381  -0.045  0.00  0.00    -0.680 OA
ENDBRANCH  21  22
ENDBRANCH  17  21
ENDBRANCH  16  17
ENDBRANCH   3  16
TORSDOF 9
