REMARK  Name = ZINCvU0000000FZm.0
REMARK                            x       y       z     vdW  Elec       q    Type
REMARK                         _______ _______ _______ _____ _____    ______ ____
ROOT
ATOM      1  C   LIG    1        2.521   1.549  -0.013  0.00  0.00    +0.560 C 
ATOM      2  O   LIG    1        2.823   0.372  -0.022  0.00  0.00    -0.500 OA
ENDROOT
BRANCH   1   3
ATOM      3  C   LIG    1        1.099   1.946   0.002  0.00  0.00    -0.000 A 
ATOM      4  N   LIG    1        0.633   3.180   0.013  0.00  0.00    -0.210 NA
ATOM      5  N   LIG    1       -0.652   3.173   0.025  0.00  0.00    -0.370 N 
ATOM      6  H   LIG    1       -1.212   3.965   0.035  0.00  0.00    +0.450 HD
ATOM      7  C   LIG    1       -1.111   1.889   0.017  0.00  0.00    +0.060 A 
ATOM      8  C   LIG    1       -0.013   1.076   0.008  0.00  0.00    +0.020 A 
BRANCH   7   9
ATOM      9  C   LIG    1       -2.527   1.459   0.020  0.00  0.00    -0.020 A 
ATOM     10  C   LIG    1       -3.533   2.409   0.035  0.00  0.00    +0.020 A 
ATOM     11  C   LIG    1       -4.874   1.994   0.033  0.00  0.00    -0.050 A 
ATOM     12  C   LIG    1       -5.924   2.929   0.043  0.00  0.00    +0.020 A 
ATOM     13  C   LIG    1       -7.213   2.494   0.046  0.00  0.00    +0.020 A 
ATOM     14  C   LIG    1       -7.510   1.132   0.040  0.00  0.00    +0.020 A 
ATOM     15  C   LIG    1       -6.519   0.198   0.030  0.00  0.00    +0.020 A 
ATOM     16  C   LIG    1       -5.176   0.608   0.027  0.00  0.00    -0.050 A 
ATOM     17  C   LIG    1       -4.130  -0.332   0.017  0.00  0.00    +0.050 A 
ATOM     18  C   LIG    1       -2.839   0.088   0.014  0.00  0.00    +0.030 A 
ENDBRANCH   7   9
ENDBRANCH   1   3
BRANCH   1  19
ATOM     19  O   LIG    1        3.484   2.492  -0.018  0.00  0.00    -0.320 OA
BRANCH  19  20
ATOM     20  C   LIG    1        4.860   2.028  -0.033  0.00  0.00    +0.250 C 
BRANCH  20  21
ATOM     21  C   LIG    1        5.789   3.215  -0.035  0.00  0.00    +0.430 C 
ATOM     22  O   LIG    1        5.336   4.340  -0.025  0.00  0.00    -0.450 OA
BRANCH  21  26
ATOM     23  N   LIG    1        9.417   3.374  -0.068  0.00  0.00    -0.430 N 
ATOM     24  C   LIG    1        9.262   2.018  -0.074  0.00  0.00    +0.010 A 
ATOM     25  C   LIG    1        7.951   1.724  -0.064  0.00  0.00    +0.000 A 
ATOM     26  C   LIG    1        7.239   3.009  -0.050  0.00  0.00    -0.270 A 
ATOM     27  C   LIG    1       10.382   1.010  -0.090  0.00  0.00    +0.120 C 
ATOM     28  C   LIG    1        8.219   3.984  -0.060  0.00  0.00    +0.120 A 
ATOM     29  C   LIG    1        7.985   5.473  -0.057  0.00  0.00    +0.150 C 
BRANCH  23  30
ATOM     30  C   LIG    1       10.708   4.067  -0.076  0.00  0.00    +0.270 C 
BRANCH  30  32
ATOM     31  C   LIG    1       12.492   5.041  -1.529  0.00  0.00    +0.030 C 
ATOM     32  C   LIG    1       11.144   4.317  -1.521  0.00  0.00    +0.000 C 
ENDBRANCH  30  32
ENDBRANCH  23  30
ENDBRANCH  21  26
ENDBRANCH  20  21
ENDBRANCH  19  20
ENDBRANCH   1  19
TORSDOF 8
