REMARK  Name = ZINCpk000000o5p6.1
REMARK                            x       y       z     vdW  Elec       q    Type
REMARK                         _______ _______ _______ _____ _____    ______ ____
ROOT
ATOM      1  C   LIG    1        2.103   7.158   8.303  0.00  0.00    +0.040 C 
ENDROOT
BRANCH   1   2
ATOM      2  C   LIG    1        2.420   6.092   7.252  0.00  0.00    +0.010 C 
BRANCH   2   3
ATOM      3  C   LIG    1        1.125   5.648   6.570  0.00  0.00    +0.280 C 
BRANCH   3   7
ATOM      4  N   LIG    1        0.715   3.146   3.906  0.00  0.00    -0.740 N 
ATOM      5  H   LIG    1        1.631   2.861   3.766  0.00  0.00    +0.400 HD
ATOM      6  C   LIG    1        0.435   4.085   4.832  0.00  0.00    +0.700 C 
ATOM      7  N   LIG    1        1.429   4.627   5.563  0.00  0.00    -0.750 N 
ATOM      8  H   LIG    1        2.345   4.341   5.424  0.00  0.00    +0.400 HD
ATOM      9  O   LIG    1       -0.713   4.443   5.007  0.00  0.00    -0.590 OA
BRANCH   4  13
ATOM     10  C   LIG    1       -0.013   1.086   0.008  0.00  0.00    +0.030 C 
ATOM     11  C   LIG    1       -0.729   1.579   1.267  0.00  0.00    -0.020 C 
ATOM     12  C   LIG    1       -0.381   3.029   1.645  0.00  0.00    +0.000 C 
ATOM     13  C   LIG    1       -0.365   2.558   3.111  0.00  0.00    +0.260 C 
ATOM     14  C   LIG    1       -0.040   1.153   2.574  0.00  0.00    +0.020 C 
ENDBRANCH   4  13
ENDBRANCH   3   7
ENDBRANCH   2   3
ENDBRANCH   1   2
BRANCH   1  15
ATOM     15  C   LIG    1        3.398   7.603   8.986  0.00  0.00    +0.180 C 
BRANCH  15  16
ATOM     16  N   LIG    1        3.093   8.626   9.995  0.00  0.00    -0.540 NA
ATOM     17  C   LIG    1        2.595   9.856   9.363  0.00  0.00    +0.190 C 
ATOM     18  C   LIG    1        2.215  10.866  10.449  0.00  0.00    +0.220 C 
ATOM     19  N   LIG    1        3.389  11.146  11.286  0.00  0.00    -0.460 N 
ATOM     20  C   LIG    1        3.888   9.916  11.917  0.00  0.00    +0.220 C 
ATOM     21  C   LIG    1        4.268   8.907  10.832  0.00  0.00    +0.180 C 
BRANCH  19  22
ATOM     22  C   LIG    1        3.102  12.110  12.237  0.00  0.00    +0.490 A 
ATOM     23  N   LIG    1        3.292  11.831  13.518  0.00  0.00    -0.550 NA
ATOM     24  C   LIG    1        3.032  12.732  14.451  0.00  0.00    +0.340 A 
ATOM     25  C   LIG    1        2.547  13.975  14.076  0.00  0.00    -0.110 A 
ATOM     26  C   LIG    1        2.356  14.231  12.727  0.00  0.00    +0.340 A 
ATOM     27  N   LIG    1        2.640  13.288  11.844  0.00  0.00    -0.530 NA
ENDBRANCH  19  22
ENDBRANCH  15  16
ENDBRANCH   1  15
TORSDOF 7
