REMARK  Name = ZINCpk00000y6ucI.0
REMARK                            x       y       z     vdW  Elec       q    Type
REMARK                         _______ _______ _______ _____ _____    ______ ____
ROOT
ATOM      1  C   LIG    1       -1.384   1.960  -0.065  0.00  0.00    +0.580 C 
ATOM      2  N   LIG    1       -0.219   1.348   0.227  0.00  0.00    -0.610 N 
ATOM      3  C   LIG    1       -0.220  -0.028   0.729  0.00  0.00    +0.280 C 
ATOM      4  O   LIG    1       -1.380   3.066  -0.569  0.00  0.00    -0.500 OA
ENDROOT
BRANCH   1   9
ATOM      5  C   LIG    1       -6.297  -0.624   1.058  0.00  0.00    +0.180 C 
ATOM      6  C   LIG    1       -4.990   0.063   0.759  0.00  0.00    +0.340 A 
ATOM      7  N   LIG    1       -4.046   0.067   1.680  0.00  0.00    -0.520 NA
ATOM      8  C   LIG    1       -2.884   0.658   1.460  0.00  0.00    +0.360 A 
ATOM      9  C   LIG    1       -2.667   1.285   0.228  0.00  0.00    -0.240 A 
ATOM     10  C   LIG    1       -3.699   1.261  -0.716  0.00  0.00    +0.270 A 
ATOM     11  N   LIG    1       -4.827   0.642  -0.414  0.00  0.00    -0.520 NA
BRANCH  10  12
ATOM     12  C   LIG    1       -3.526   1.925  -2.058  0.00  0.00    +0.010 C 
ATOM     13  C   LIG    1       -4.707   1.875  -3.029  0.00  0.00    +0.060 C 
ATOM     14  C   LIG    1       -3.464   1.022  -3.291  0.00  0.00    +0.040 C 
ENDBRANCH  10  12
ENDBRANCH   1   9
BRANCH   2  15
ATOM     15  C   LIG    1        1.048   2.058   0.037  0.00  0.00    +0.320 C 
BRANCH  15  16
ATOM     16  C   LIG    1        1.563   1.812  -1.383  0.00  0.00    +0.160 C 
ATOM     17  O   LIG    1        0.700   2.451  -2.348  0.00  0.00    -0.340 OA
ATOM     18  C   LIG    1        1.504   2.591  -3.541  0.00  0.00    +0.210 C 
ATOM     19  C   LIG    1        2.902   3.005  -3.031  0.00  0.00    +0.010 C 
ATOM     20  C   LIG    1        2.942   2.480  -1.578  0.00  0.00    +0.090 C 
BRANCH  20  21
ATOM     21  C   LIG    1        3.119   3.619  -0.607  0.00  0.00    +0.190 A 
ATOM     22  N   LIG    1        3.713   3.560   0.554  0.00  0.00    -0.290 NA
ATOM     23  N   LIG    1        3.683   4.716   1.115  0.00  0.00    -0.290 NA
ATOM     24  C   LIG    1        3.068   5.566   0.337  0.00  0.00    +0.380 A 
ATOM     25  N   LIG    1        2.698   4.895  -0.780  0.00  0.00    -0.570 N 
ATOM     26  H   LIG    1        2.225   5.254  -1.547  0.00  0.00    +0.430 HD
ENDBRANCH  20  21
ENDBRANCH  15  16
ENDBRANCH   2  15
TORSDOF 5
