REMARK  Name = ZINCpk00000y6ucI.1
REMARK                            x       y       z     vdW  Elec       q    Type
REMARK                         _______ _______ _______ _____ _____    ______ ____
ROOT
ATOM      1  C   LIG    1       -0.554   2.831   1.923  0.00  0.00    +0.580 C 
ATOM      2  N   LIG    1       -0.655   1.545   1.532  0.00  0.00    -0.610 N 
ATOM      3  C   LIG    1       -1.303   0.563   2.405  0.00  0.00    +0.280 C 
ATOM      4  O   LIG    1       -0.102   3.664   1.161  0.00  0.00    -0.490 OA
ENDROOT
BRANCH   1   9
ATOM      5  C   LIG    1       -2.233   4.355   7.113  0.00  0.00    +0.180 C 
ATOM      6  C   LIG    1       -1.786   3.950   5.732  0.00  0.00    +0.340 A 
ATOM      7  N   LIG    1       -1.043   2.870   5.593  0.00  0.00    -0.530 NA
ATOM      8  C   LIG    1       -0.629   2.478   4.401  0.00  0.00    +0.350 A 
ATOM      9  C   LIG    1       -0.992   3.229   3.277  0.00  0.00    -0.240 A 
ATOM     10  C   LIG    1       -1.777   4.371   3.473  0.00  0.00    +0.270 A 
ATOM     11  N   LIG    1       -2.152   4.686   4.700  0.00  0.00    -0.520 NA
BRANCH  10  12
ATOM     12  C   LIG    1       -2.194   5.223   2.303  0.00  0.00    +0.020 C 
ATOM     13  C   LIG    1       -3.034   6.468   2.598  0.00  0.00    +0.060 C 
ATOM     14  C   LIG    1       -3.681   5.247   1.940  0.00  0.00    +0.040 C 
ENDBRANCH  10  12
ENDBRANCH   1   9
BRANCH   2  15
ATOM     15  C   LIG    1       -0.117   1.129   0.235  0.00  0.00    +0.310 C 
BRANCH  15  16
ATOM     16  C   LIG    1       -1.200   1.272  -0.836  0.00  0.00    +0.150 C 
ATOM     17  O   LIG    1       -1.522   2.661  -1.024  0.00  0.00    -0.340 OA
ATOM     18  C   LIG    1       -1.839   2.835  -2.422  0.00  0.00    +0.210 C 
ATOM     19  C   LIG    1       -0.793   1.947  -3.143  0.00  0.00    +0.030 C 
ATOM     20  C   LIG    1       -0.679   0.737  -2.184  0.00  0.00    +0.080 C 
BRANCH  20  21
ATOM     21  C   LIG    1        0.757   0.298  -2.057  0.00  0.00    +0.230 A 
ATOM     22  N   LIG    1        1.205  -0.910  -2.278  0.00  0.00    -0.310 NA
ATOM     23  N   LIG    1        2.589  -0.879  -2.046  0.00  0.00    -0.480 N 
ATOM     24  H   LIG    1        3.209  -1.620  -2.126  0.00  0.00    +0.440 HD
ATOM     25  C   LIG    1        2.885   0.384  -1.692  0.00  0.00    +0.480 A 
ATOM     26  N   LIG    1        1.778   1.080  -1.708  0.00  0.00    -0.530 NA
ENDBRANCH  20  21
ENDBRANCH  15  16
ENDBRANCH   2  15
TORSDOF 5
