REMARK  Name = ZINCpk000000ozh6.0
REMARK                            x       y       z     vdW  Elec       q    Type
REMARK                         _______ _______ _______ _____ _____    ______ ____
ROOT
ATOM      1  C   LIG    1       -2.995   2.428   2.130  0.00  0.00    -0.110 A 
ATOM      2  C   LIG    1       -2.507   2.856   3.365  0.00  0.00    +0.040 A 
ATOM      3  C   LIG    1       -3.383   3.129   4.396  0.00  0.00    +0.040 A 
ATOM      4  C   LIG    1       -4.743   2.969   4.214  0.00  0.00    +0.030 A 
ATOM      5  C   LIG    1       -5.239   2.538   2.989  0.00  0.00    +0.140 A 
ATOM      6  C   LIG    1       -4.368   2.267   1.945  0.00  0.00    +0.070 A 
ENDROOT
BRANCH   1   8
ATOM      7  N   LIG    1       -0.773   1.834   1.288  0.00  0.00    -0.590 N 
ATOM      8  C   LIG    1       -2.059   2.140   1.022  0.00  0.00    +0.570 C 
ATOM      9  O   LIG    1       -2.448   2.180  -0.129  0.00  0.00    -0.530 OA
BRANCH   7  11
ATOM     10  C   LIG    1        0.482   2.976   3.048  0.00  0.00    +0.040 C 
ATOM     11  C   LIG    1       -0.318   1.727   2.676  0.00  0.00    +0.270 C 
ENDBRANCH   7  11
BRANCH   7  12
ATOM     12  C   LIG    1        0.168   1.608   0.188  0.00  0.00    +0.320 C 
BRANCH  12  13
ATOM     13  C   LIG    1        0.161   0.149  -0.187  0.00  0.00    +0.500 C 
ATOM     14  O   LIG    1       -0.559  -0.627   0.405  0.00  0.00    -0.530 OA
ATOM     15  N   LIG    1        0.956  -0.295  -1.181  0.00  0.00    -0.850 N 
ATOM     16  H   LIG    1        0.952  -1.235  -1.423  0.00  0.00    +0.400 HD
ATOM     17  H   LIG    1        1.532   0.325  -1.655  0.00  0.00    +0.400 HD
ENDBRANCH  12  13
ENDBRANCH   7  12
ENDBRANCH   1   8
BRANCH   5  18
ATOM     18  N   LIG    1       -6.616   2.378   2.809  0.00  0.00    -1.060 N 
ATOM     19  H   LIG    1       -7.045   2.730   2.014  0.00  0.00    +0.430 HD
BRANCH  18  20
ATOM     20  S   LIG    1       -7.514   1.589   3.955  0.00  0.00    +2.690 S 
ATOM     21  O   LIG    1       -8.831   1.486   3.432  0.00  0.00    -0.950 OA
ATOM     22  O   LIG    1       -7.218   2.213   5.197  0.00  0.00    -0.950 OA
BRANCH  20  23
ATOM     23  C   LIG    1       -6.891  -0.056   4.064  0.00  0.00    -0.680 A 
ATOM     24  C   LIG    1       -7.349  -1.027   3.193  0.00  0.00    +0.120 A 
ATOM     25  C   LIG    1       -6.857  -2.316   3.275  0.00  0.00    -0.010 A 
ATOM     26  C   LIG    1       -5.916  -2.637   4.235  0.00  0.00    +0.070 A 
ATOM     27  C   LIG    1       -5.462  -1.667   5.109  0.00  0.00    -0.010 A 
ATOM     28  C   LIG    1       -5.950  -0.376   5.024  0.00  0.00    +0.120 A 
ENDBRANCH  20  23
ENDBRANCH  18  20
ENDBRANCH   5  18
TORSDOF 7
