REMARK  Name = ZINCfA000000bk7F.1
REMARK                            x       y       z     vdW  Elec       q    Type
REMARK                         _______ _______ _______ _____ _____    ______ ____
ROOT
ATOM      1  N   LIG    1        0.168   2.439   4.596  0.00  0.00    -0.700 NA
ATOM      2  H   LIG    1        1.125   2.278   4.573  0.00  0.00    +0.420 HD
ENDROOT
BRANCH   1   3
ATOM      3  C   LIG    1       -0.602   2.220   3.460  0.00  0.00    +0.450 C 
ATOM      4  C   LIG    1       -1.973   2.452   3.501  0.00  0.00    -0.030 C 
ATOM      5  C   LIG    1       -2.727   2.229   2.363  0.00  0.00    +0.220 C 
ATOM      6  C   LIG    1       -2.082   1.786   1.216  0.00  0.00    +0.010 C 
ATOM      7  C   LIG    1       -0.718   1.572   1.248  0.00  0.00    +0.180 C 
ATOM      8  C   LIG    1       -0.013   1.086   0.008  0.00  0.00    +0.180 C 
ATOM      9  N   LIG    1       -0.024   1.792   2.348  0.00  0.00    -0.510 NA
ATOM     10  H   LIG    1        0.934   1.637   2.342  0.00  0.00    +0.440 HD
ENDBRANCH   1   3
BRANCH   1  14
ATOM     11  C   LIG    1        0.648   2.855   8.035  0.00  0.00    +0.030 C 
ATOM     12  C   LIG    1       -0.713   2.121   8.124  0.00  0.00    +0.050 C 
ATOM     13  C   LIG    1       -0.978   1.713   6.654  0.00  0.00    +0.030 C 
ATOM     14  C   LIG    1       -0.465   2.912   5.830  0.00  0.00    +0.250 C 
ATOM     15  C   LIG    1        0.569   3.639   6.707  0.00  0.00    +0.080 C 
BRANCH  11  17
ATOM     16  C   LIG    1        0.955   2.876  10.857  0.00  0.00    +0.150 C 
ATOM     17  S   LIG    1        0.849   3.993   9.433  0.00  0.00    -0.240 S 
ENDBRANCH  11  17
ENDBRANCH   1  14
TORSDOF 3
