REMARK  Name = ZINCrH000004tdln.0
REMARK                            x       y       z     vdW  Elec       q    Type
REMARK                         _______ _______ _______ _____ _____    ______ ____
ROOT
ATOM      1  N   LIG    1       -4.030   2.219   6.387  0.00  0.00    -0.580 N 
ATOM      2  C   LIG    1       -3.710   3.519   6.994  0.00  0.00    +0.300 C 
ATOM      3  C   LIG    1       -2.202   3.762   6.873  0.00  0.00    +0.030 C 
ATOM      4  C   LIG    1       -1.785   3.633   5.407  0.00  0.00    +0.040 C 
ATOM      5  C   LIG    1       -2.087   2.217   4.911  0.00  0.00    +0.080 C 
ATOM      6  C   LIG    1       -3.593   1.957   5.009  0.00  0.00    +0.310 C 
ENDROOT
BRANCH   1  13
ATOM      7  C   LIG    1       -6.148   0.449  10.384  0.00  0.00    +0.120 A 
ATOM      8  N   LIG    1       -6.768  -0.695  10.539  0.00  0.00    -0.220 NA
ATOM      9  N   LIG    1       -6.760  -1.357   9.435  0.00  0.00    -0.240 NA
ATOM     10  C   LIG    1       -6.124  -0.655   8.510  0.00  0.00    +0.140 A 
ATOM     11  C   LIG    1       -5.819  -0.881   7.154  0.00  0.00    +0.200 A 
ATOM     12  C   LIG    1       -5.136   0.069   6.463  0.00  0.00    -0.020 A 
ATOM     13  C   LIG    1       -4.732   1.256   7.104  0.00  0.00    +0.420 A 
ATOM     14  N   LIG    1       -5.016   1.468   8.368  0.00  0.00    -0.330 NA
ATOM     15  N   LIG    1       -5.721   0.514   9.105  0.00  0.00    -0.250 N 
BRANCH   7  17
ATOM     16  F   LIG    1       -4.576   1.710  11.639  0.00  0.00    -0.180 F 
ATOM     17  C   LIG    1       -5.946   1.502  11.444  0.00  0.00    +0.530 C 
ATOM     18  F   LIG    1       -6.545   2.697  11.033  0.00  0.00    -0.180 F 
ENDBRANCH   7  17
ENDBRANCH   1  13
BRANCH   5  19
ATOM     19  C   LIG    1       -1.645   2.082   3.477  0.00  0.00    +0.040 A 
ATOM     20  N   LIG    1       -2.096   2.792   2.492  0.00  0.00    -0.460 NA
ATOM     21  C   LIG    1       -1.606   2.553   1.284  0.00  0.00    +0.070 A 
ATOM     22  C   LIG    1       -0.686   1.567   1.272  0.00  0.00    -0.220 A 
ATOM     23  C   LIG    1        0.040   1.074   0.043  0.00  0.00    +0.120 C 
ATOM     24  C   LIG    1       -0.703   1.575  -1.200  0.00  0.00    +0.030 C 
ATOM     25  C   LIG    1       -0.965   3.076  -1.054  0.00  0.00    +0.030 C 
ATOM     26  C   LIG    1       -2.022   3.305   0.029  0.00  0.00    +0.120 C 
ATOM     27  S   LIG    1       -0.485   0.961   2.911  0.00  0.00    +0.130 S 
ENDBRANCH   5  19
TORSDOF 3
