REMARK  Name = ZINCrg00000z2pms.2
REMARK                            x       y       z     vdW  Elec       q    Type
REMARK                         _______ _______ _______ _____ _____    ______ ____
ROOT
ATOM      1  C   LIG    1       -2.179   1.961  -0.660  0.00  0.00    -0.070 C 
ATOM      2  C   LIG    1       -3.222   1.544  -1.650  0.00  0.00    +0.030 C 
ATOM      3  C   LIG    1       -2.839   0.285  -2.421  0.00  0.00    +0.230 C 
ATOM      4  N   LIG    1       -1.515   0.522  -3.024  0.00  0.00    -0.660 NA
ATOM      5  H   LIG    1       -1.506   1.385  -3.548  0.00  0.00    +0.350 HD
ATOM      6  C   LIG    1       -0.497   0.549  -1.991  0.00  0.00    +0.230 C 
ATOM      7  C   LIG    1       -2.479   1.452   0.761  0.00  0.00    +0.290 C 
ATOM      8  N   LIG    1       -1.152   1.557   1.439  0.00  0.00    -0.440 N 
ATOM      9  C   LIG    1       -0.197   1.057   0.416  0.00  0.00    +0.200 C 
ATOM     10  C   LIG    1       -0.730   1.612  -0.935  0.00  0.00    +0.100 C 
ATOM     11  F   LIG    1       -0.024   2.769  -1.280  0.00  0.00    -0.180 F 
ENDROOT
BRANCH   8  12
ATOM     12  C   LIG    1       -1.111   0.774   2.582  0.00  0.00    +0.400 A 
ATOM     13  C   LIG    1        0.072   0.634   3.309  0.00  0.00    -0.050 A 
ATOM     14  N   LIG    1        1.358   1.116   3.189  0.00  0.00    -0.570 N 
ATOM     15  H   LIG    1        1.691   1.704   2.493  0.00  0.00    +0.430 HD
ATOM     16  C   LIG    1        2.070   0.616   4.225  0.00  0.00    +0.560 A 
ATOM     17  N   LIG    1        1.309  -0.138   4.969  0.00  0.00    -0.480 NA
ATOM     18  C   LIG    1        0.063  -0.170   4.461  0.00  0.00    +0.310 A 
ATOM     19  N   LIG    1       -1.078  -0.769   4.815  0.00  0.00    -0.450 NA
ATOM     20  C   LIG    1       -2.169  -0.608   4.099  0.00  0.00    +0.270 A 
ATOM     21  N   LIG    1       -2.200   0.143   3.013  0.00  0.00    -0.510 NA
BRANCH  20  22
ATOM     22  C   LIG    1       -3.432  -1.303   4.536  0.00  0.00    +0.550 C 
ATOM     23  F   LIG    1       -3.676  -2.398   3.699  0.00  0.00    -0.160 F 
ATOM     24  F   LIG    1       -4.506  -0.410   4.460  0.00  0.00    -0.160 F 
ATOM     25  F   LIG    1       -3.288  -1.748   5.854  0.00  0.00    -0.150 F 
ENDBRANCH  20  22
ENDBRANCH   8  12
BRANCH   1  26
ATOM     26  C   LIG    1       -2.242   3.465  -0.582  0.00  0.00    +0.470 C 
ATOM     27  O   LIG    1       -2.510   4.005   0.466  0.00  0.00    -0.480 OA
BRANCH  26  29
ATOM     28  C   LIG    1       -2.079   5.647  -1.526  0.00  0.00    +0.260 C 
ATOM     29  O   LIG    1       -2.001   4.205  -1.675  0.00  0.00    -0.350 OA
ENDBRANCH  26  29
ENDBRANCH   1  26
TORSDOF 4
