REMARK  Name = ZINCpk00000eb6On.0
REMARK                            x       y       z     vdW  Elec       q    Type
REMARK                         _______ _______ _______ _____ _____    ______ ____
ROOT
ATOM      1  C   LIG    1        2.117   8.073   0.030  0.00  0.00    +0.150 C 
ATOM      2  C   LIG    1        0.821   7.304   0.035  0.00  0.00    +0.190 A 
ATOM      3  C   LIG    1       -0.367   7.973   0.047  0.00  0.00    -0.230 A 
ATOM      4  C   LIG    1       -1.565   7.230   0.052  0.00  0.00    +0.530 A 
ATOM      5  N   LIG    1       -1.492   5.882   0.038  0.00  0.00    -0.610 N 
ATOM      6  H   LIG    1       -2.304   5.350   0.037  0.00  0.00    +0.430 HD
ATOM      7  C   LIG    1       -0.274   5.271   0.032  0.00  0.00    +0.450 A 
ATOM      8  O   LIG    1       -2.647   7.795   0.062  0.00  0.00    -0.520 OA
ATOM      9  N   LIG    1        0.839   5.972   0.028  0.00  0.00    -0.520 NA
ENDROOT
BRANCH   7  10
ATOM     10  C   LIG    1       -0.203   3.793   0.024  0.00  0.00    +0.130 A 
ATOM     11  C   LIG    1        1.040   3.162   0.012  0.00  0.00    +0.060 A 
ATOM     12  C   LIG    1        1.091   1.777   0.004  0.00  0.00    +0.070 A 
ATOM     13  C   LIG    1       -0.103   1.071   0.009  0.00  0.00    +0.010 A 
ATOM     14  C   LIG    1       -1.302   1.764   0.016  0.00  0.00    +0.280 A 
ATOM     15  N   LIG    1       -1.323   3.080   0.028  0.00  0.00    -0.470 NA
ENDBRANCH   7  10
BRANCH   3  16
ATOM     16  C   LIG    1       -0.398   9.479   0.056  0.00  0.00    +0.150 C 
BRANCH  16  17
ATOM     17  C   LIG    1       -0.542   9.987  -1.355  0.00  0.00    +0.520 C 
ATOM     18  N   LIG    1       -0.593  11.313  -1.593  0.00  0.00    -0.670 N 
ATOM     19  H   LIG    1       -0.606  11.938  -0.851  0.00  0.00    +0.410 HD
ATOM     20  O   LIG    1       -0.613   9.203  -2.278  0.00  0.00    -0.500 OA
BRANCH  18  21
ATOM     21  C   LIG    1       -0.628  11.789  -2.913  0.00  0.00    -0.020 A 
ATOM     22  C   LIG    1        0.343  12.617  -3.370  0.00  0.00    +0.280 A 
ATOM     23  N   LIG    1        0.315  13.075  -4.649  0.00  0.00    -0.580 N 
ATOM     24  H   LIG    1        1.021  13.665  -4.957  0.00  0.00    +0.420 HD
ATOM     25  C   LIG    1       -0.681  12.733  -5.501  0.00  0.00    +0.300 A 
ATOM     26  C   LIG    1       -1.682  11.915  -5.105  0.00  0.00    -0.130 A 
ATOM     27  C   LIG    1       -1.684  11.414  -3.784  0.00  0.00    +0.390 A 
ATOM     28  O   LIG    1       -2.577  10.672  -3.400  0.00  0.00    -0.490 OA
ENDBRANCH  18  21
ENDBRANCH  16  17
ENDBRANCH   3  16
TORSDOF 4
