REMARK  Name = ZINCpk00001AZiT8.0
REMARK                            x       y       z     vdW  Elec       q    Type
REMARK                         _______ _______ _______ _____ _____    ______ ____
ROOT
ATOM      1  C   LIG    1       -0.930   1.894   1.440  0.00  0.00    -0.670 A 
ATOM      2  C   LIG    1       -0.725   3.142   2.002  0.00  0.00    +0.130 A 
ATOM      3  C   LIG    1       -1.439   3.525   3.117  0.00  0.00    +0.020 A 
ATOM      4  C   LIG    1       -2.364   2.644   3.688  0.00  0.00    -0.020 A 
ATOM      5  C   LIG    1       -2.561   1.383   3.117  0.00  0.00    +0.030 A 
ATOM      6  C   LIG    1       -1.843   1.017   1.998  0.00  0.00    +0.130 A 
ENDROOT
BRANCH   1   7
ATOM      7  S   LIG    1       -0.017   1.417   0.010  0.00  0.00    +2.690 S 
ATOM      8  O   LIG    1        1.162   2.210   0.003  0.00  0.00    -0.950 OA
ATOM      9  O   LIG    1        0.002  -0.004   0.002  0.00  0.00    -0.950 OA
BRANCH   7  10
ATOM     10  N   LIG    1       -0.900   1.880  -1.312  0.00  0.00    -1.120 NA
ATOM     11  H   LIG    1       -1.261   1.209  -1.914  0.00  0.00    +0.420 HD
BRANCH  10  12
ATOM     12  C   LIG    1       -1.137   3.302  -1.574  0.00  0.00    +0.260 C 
BRANCH  12  14
ATOM     13  C   LIG    1       -1.881   4.965  -3.283  0.00  0.00    +0.030 C 
ATOM     14  C   LIG    1       -1.634   3.480  -3.010  0.00  0.00    +0.010 C 
ENDBRANCH  12  14
ENDBRANCH  10  12
ENDBRANCH   7  10
ENDBRANCH   1   7
BRANCH   4  15
ATOM     15  C   LIG    1       -3.125   3.043   4.882  0.00  0.00    +0.130 C 
ATOM     16  C   LIG    1       -2.933   4.261   5.430  0.00  0.00    -0.030 C 
BRANCH  16  17
ATOM     17  C   LIG    1       -3.689   4.656   6.617  0.00  0.00    +0.500 C 
ATOM     18  O   LIG    1       -4.492   3.888   7.111  0.00  0.00    -0.500 OA
BRANCH  17  19
ATOM     19  O   LIG    1       -3.496   5.874   7.165  0.00  0.00    -0.350 OA
BRANCH  19  20
ATOM     20  C   LIG    1       -4.269   6.194   8.323  0.00  0.00    +0.210 C 
BRANCH  20  21
ATOM     21  C   LIG    1       -3.916   7.605   8.798  0.00  0.00    +0.030 C 
BRANCH  21  22
ATOM     22  C   LIG    1       -4.744   7.948  10.039  0.00  0.00    +0.260 C 
BRANCH  22  23
ATOM     23  N   LIG    1       -4.406   9.299  10.493  0.00  0.00    -0.730 N 
ATOM     24  H   LIG    1       -3.744   9.820  10.014  0.00  0.00    +0.400 HD
ATOM     25  C   LIG    1       -5.015   9.817  11.578  0.00  0.00    +0.510 C 
ATOM     26  O   LIG    1       -5.844   9.165  12.178  0.00  0.00    -0.540 OA
ATOM     27  C   LIG    1       -4.668  11.207  12.046  0.00  0.00    +0.110 C 
ENDBRANCH  22  23
ENDBRANCH  21  22
ENDBRANCH  20  21
ENDBRANCH  19  20
ENDBRANCH  17  19
ENDBRANCH  16  17
ENDBRANCH   4  15
TORSDOF 11
