REMARK  Name = ZINCtV000002H7oQ.0
REMARK                            x       y       z     vdW  Elec       q    Type
REMARK                         _______ _______ _______ _____ _____    ______ ____
ROOT
ATOM      1  C   LIG    1        0.492  -4.161  -0.004  0.00  0.00    +0.190 A 
ATOM      2  N   LIG    1        0.109  -2.904   0.016  0.00  0.00    -0.270 NA
ATOM      3  N   LIG    1        1.238  -2.081   0.012  0.00  0.00    -0.300 N 
ATOM      4  C   LIG    1        2.349  -2.838  -0.017  0.00  0.00    +0.300 A 
ATOM      5  C   LIG    1        1.959  -4.161  -0.023  0.00  0.00    -0.280 A 
ENDROOT
BRANCH   1  10
ATOM      6  C   LIG    1       -2.935  -8.787  -0.018  0.00  0.00    +0.090 C 
ATOM      7  C   LIG    1       -2.038  -7.577  -0.014  0.00  0.00    -0.070 A 
ATOM      8  C   LIG    1       -2.409  -6.447   0.693  0.00  0.00    +0.000 A 
ATOM      9  C   LIG    1       -1.591  -5.335   0.700  0.00  0.00    +0.040 A 
ATOM     10  C   LIG    1       -0.390  -5.352  -0.007  0.00  0.00    -0.050 A 
ATOM     11  C   LIG    1       -0.024  -6.492  -0.722  0.00  0.00    +0.090 A 
ATOM     12  C   LIG    1       -0.847  -7.599  -0.718  0.00  0.00    +0.000 A 
ENDBRANCH   1  10
BRANCH   3  13
ATOM     13  C   LIG    1        1.216  -0.680   0.030  0.00  0.00    +0.140 A 
ATOM     14  C   LIG    1        0.004  -0.004   0.054  0.00  0.00    +0.030 A 
ATOM     15  C   LIG    1       -0.015   1.377   0.072  0.00  0.00    +0.050 A 
ATOM     16  C   LIG    1        1.173   2.086   0.066  0.00  0.00    +0.010 A 
ATOM     17  C   LIG    1        2.382   1.415   0.042  0.00  0.00    +0.050 A 
ATOM     18  C   LIG    1        2.407   0.035   0.024  0.00  0.00    -0.010 A 
ENDBRANCH   3  13
BRANCH   5  19
ATOM     19  C   LIG    1        2.840  -5.341  -0.049  0.00  0.00    +0.600 C 
ATOM     20  N   LIG    1        4.178  -5.182  -0.064  0.00  0.00    -0.670 N 
ATOM     21  H   LIG    1        4.560  -4.293  -0.138  0.00  0.00    +0.410 HD
ATOM     22  O   LIG    1        2.360  -6.458  -0.058  0.00  0.00    -0.500 OA
BRANCH  20  23
ATOM     23  C   LIG    1        5.017  -6.298   0.027  0.00  0.00    +0.180 A 
ATOM     24  C   LIG    1        4.561  -7.462   0.631  0.00  0.00    +0.060 A 
ATOM     25  C   LIG    1        5.390  -8.566   0.715  0.00  0.00    -0.010 A 
ATOM     26  C   LIG    1        6.676  -8.507   0.208  0.00  0.00    +0.030 A 
ATOM     27  C   LIG    1        7.135  -7.346  -0.389  0.00  0.00    +0.080 A 
ATOM     28 CL   LIG    1        4.819 -10.024   1.464  0.00  0.00    -0.050 Cl
ATOM     29  C   LIG    1        6.309  -6.242  -0.481  0.00  0.00    -0.070 A 
ATOM     30 CL   LIG    1        6.886  -4.786  -1.230  0.00  0.00    -0.060 Cl
ENDBRANCH  20  23
ENDBRANCH   5  19
TORSDOF 4
