REMARK  Name = ZINCrD000007254i.0
REMARK                            x       y       z     vdW  Elec       q    Type
REMARK                         _______ _______ _______ _____ _____    ______ ____
ROOT
ATOM      1  C   LIG    1        2.639  -0.058   0.422  0.00  0.00    +0.450 A 
ATOM      2  N   LIG    1        1.580  -0.793   0.726  0.00  0.00    -0.540 NA
ATOM      3  C   LIG    1        0.452  -0.249   1.138  0.00  0.00    +0.350 A 
ATOM      4  C   LIG    1        0.324   1.122   1.272  0.00  0.00    -0.100 A 
ATOM      5  C   LIG    1        1.398   1.940   0.968  0.00  0.00    +0.140 A 
ATOM      6  C   LIG    1        2.586   1.342   0.533  0.00  0.00    -0.260 A 
ENDROOT
BRANCH   6   7
ATOM      7  C   LIG    1        3.761   2.167   0.197  0.00  0.00    +0.580 C 
ATOM      8  N   LIG    1        3.751   3.490   0.452  0.00  0.00    -0.710 N 
ATOM      9  H   LIG    1        2.971   3.900   0.856  0.00  0.00    +0.400 HD
ATOM     10  O   LIG    1        4.740   1.653  -0.310  0.00  0.00    -0.550 OA
BRANCH   8  11
ATOM     11  C   LIG    1        4.919   4.309   0.118  0.00  0.00    +0.240 C 
ATOM     12  C   LIG    1        4.512   5.788  -0.105  0.00  0.00    +0.040 C 
ATOM     13  C   LIG    1        4.332   6.345   1.322  0.00  0.00    -0.040 C 
ATOM     14  C   LIG    1        4.981   7.745   1.394  0.00  0.00    +0.200 C 
ATOM     15  O   LIG    1        5.704   7.744   2.656  0.00  0.00    -0.380 OA
ATOM     16  C   LIG    1        6.299   6.433   2.762  0.00  0.00    +0.200 C 
ATOM     17  C   LIG    1        5.216   5.462   2.245  0.00  0.00    -0.030 C 
ATOM     18  C   LIG    1        5.883   4.417   1.327  0.00  0.00    +0.020 C 
ENDBRANCH   8  11
ENDBRANCH   6   7
BRANCH   1  19
ATOM     19  N   LIG    1        3.802  -0.671  -0.007  0.00  0.00    -0.630 N 
ATOM     20  H   LIG    1        4.520  -0.139  -0.384  0.00  0.00    +0.430 HD
BRANCH  19  24
ATOM     21  C   LIG    1        4.223  -4.806   0.323  0.00  0.00    +0.110 A 
ATOM     22  C   LIG    1        5.347  -3.993   0.313  0.00  0.00    +0.000 A 
ATOM     23  C   LIG    1        5.209  -2.623   0.203  0.00  0.00    +0.020 A 
ATOM     24  C   LIG    1        3.944  -2.059   0.103  0.00  0.00    +0.110 A 
ATOM     25  C   LIG    1        2.818  -2.873   0.119  0.00  0.00    +0.070 A 
ATOM     26  C   LIG    1        2.959  -4.243   0.223  0.00  0.00    -0.060 A 
BRANCH  21  27
ATOM     27  O   LIG    1        4.360  -6.154   0.430  0.00  0.00    -0.320 OA
BRANCH  27  29
ATOM     28  C   LIG    1        3.513  -8.413   0.562  0.00  0.00    +0.070 C 
ATOM     29  C   LIG    1        3.160  -6.930   0.434  0.00  0.00    +0.180 C 
ENDBRANCH  27  29
ENDBRANCH  21  27
ENDBRANCH  19  24
ENDBRANCH   1  19
TORSDOF 6
