REMARK  Name = ZINCpe00000MJLUC.0
REMARK                            x       y       z     vdW  Elec       q    Type
REMARK                         _______ _______ _______ _____ _____    ______ ____
ROOT
ATOM      1  N   LIG    1       -0.326  -0.420  -1.625  0.00  0.00    -0.730 N 
ATOM      2  H   LIG    1       -1.170   0.046  -1.727  0.00  0.00    +0.400 HD
ATOM      3  C   LIG    1        0.740   0.222  -1.107  0.00  0.00    +0.710 C 
ATOM      4  N   LIG    1        0.607   1.476  -0.633  0.00  0.00    -0.640 N 
ATOM      5  C   LIG    1       -0.662   2.186  -0.807  0.00  0.00    +0.320 C 
ATOM      6  C   LIG    1       -1.284   2.456   0.572  0.00  0.00    -0.340 C 
ATOM      7  S   LIG    1       -0.116   3.433   1.563  0.00  0.00    +2.420 S 
ATOM      8  C   LIG    1        1.366   2.385   1.508  0.00  0.00    -0.330 C 
ATOM      9  O   LIG    1        0.159   4.646   0.876  0.00  0.00    -0.930 OA
ATOM     10  O   LIG    1       -0.588   3.483   2.903  0.00  0.00    -0.930 OA
ATOM     11  C   LIG    1        1.734   2.119   0.045  0.00  0.00    +0.360 C 
ATOM     12  O   LIG    1        1.822  -0.331  -1.067  0.00  0.00    -0.540 OA
ENDROOT
BRANCH  11  13
ATOM     13  C   LIG    1        2.938   1.215  -0.015  0.00  0.00    -0.210 A 
ATOM     14  C   LIG    1        4.074   1.447  -0.712  0.00  0.00    +0.220 A 
ATOM     15  N   LIG    1        4.905   0.405  -0.502  0.00  0.00    -0.380 N 
ATOM     16  N   LIG    1        4.255  -0.502   0.344  0.00  0.00    -0.300 NA
ATOM     17  C   LIG    1        6.248   0.247  -1.066  0.00  0.00    +0.350 C 
ATOM     18  C   LIG    1        3.075  -0.015   0.636  0.00  0.00    +0.290 A 
ENDBRANCH  11  13
BRANCH   1  19
ATOM     19  C   LIG    1       -0.210  -1.822  -2.034  0.00  0.00    +0.280 C 
BRANCH  19  20
ATOM     20  C   LIG    1       -1.132  -2.083  -3.226  0.00  0.00    +0.150 C 
ATOM     21  C   LIG    1       -0.744  -1.178  -4.416  0.00  0.00    +0.010 C 
ATOM     22  C   LIG    1       -2.097  -0.797  -5.056  0.00  0.00    -0.010 C 
ATOM     23  C   LIG    1       -3.144  -1.518  -4.178  0.00  0.00    +0.190 C 
ATOM     24  O   LIG    1       -2.489  -1.708  -2.904  0.00  0.00    -0.370 OA
ENDBRANCH  19  20
BRANCH  19  26
ATOM     25  C   LIG    1        0.394  -2.569   0.272  0.00  0.00    +0.020 C 
ATOM     26  C   LIG    1       -0.612  -2.728  -0.869  0.00  0.00    +0.010 C 
ENDBRANCH  19  26
ENDBRANCH   1  19
TORSDOF 4
