REMARK  Name = ZINCqH0000036izq.0
REMARK                            x       y       z     vdW  Elec       q    Type
REMARK                         _______ _______ _______ _____ _____    ______ ____
ROOT
ATOM      1  C   LIG    1       -1.944  -2.078  -2.560  0.00  0.00    +0.340 C 
ENDROOT
BRANCH   1   6
ATOM      2  C   LIG    1       -5.517  -2.219  -3.784  0.00  0.00    +0.130 A 
ATOM      3  C   LIG    1       -6.190  -2.571  -2.623  0.00  0.00    -0.080 A 
ATOM      4  C   LIG    1       -5.488  -2.762  -1.449  0.00  0.00    +0.060 A 
ATOM      5  C   LIG    1       -4.114  -2.607  -1.431  0.00  0.00    -0.030 A 
ATOM      6  C   LIG    1       -3.441  -2.251  -2.585  0.00  0.00    -0.050 A 
ATOM      7  C   LIG    1       -4.138  -2.059  -3.761  0.00  0.00    -0.010 A 
BRANCH   2   9
ATOM      8  C   LIG    1       -7.622  -2.212  -4.888  0.00  0.00    +0.250 C 
ATOM      9  O   LIG    1       -6.205  -2.030  -4.940  0.00  0.00    -0.320 OA
ENDBRANCH   2   9
ENDBRANCH   1   6
BRANCH   1  10
ATOM     10  C   LIG    1       -1.281  -3.430  -2.628  0.00  0.00    -0.090 A 
ATOM     11  C   LIG    1       -1.171  -4.203  -1.488  0.00  0.00    +0.020 A 
ATOM     12  C   LIG    1       -0.566  -5.445  -1.551  0.00  0.00    +0.000 A 
ATOM     13  C   LIG    1       -0.065  -5.909  -2.753  0.00  0.00    +0.000 A 
ATOM     14  C   LIG    1       -0.171  -5.133  -3.892  0.00  0.00    +0.000 A 
ATOM     15  C   LIG    1       -0.779  -3.893  -3.830  0.00  0.00    +0.020 A 
ENDBRANCH   1  10
BRANCH   1  16
ATOM     16  N   LIG    1       -1.551  -1.403  -1.321  0.00  0.00    -0.720 N 
ATOM     17  H   LIG    1       -2.117  -1.463  -0.536  0.00  0.00    +0.400 HD
ATOM     18  C   LIG    1       -0.403  -0.699  -1.273  0.00  0.00    +0.550 C 
ATOM     19  O   LIG    1        0.305  -0.624  -2.255  0.00  0.00    -0.520 OA
BRANCH  18  20
ATOM     20  C   LIG    1        0.002  -0.004   0.002  0.00  0.00    -0.070 C 
ATOM     21  C   LIG    1       -0.019   1.526   0.010  0.00  0.00    +0.070 C 
ATOM     22  C   LIG    1        1.313   0.779  -0.006  0.00  0.00    -0.090 C 
ATOM     23  C   LIG    1        2.153   0.784   1.276  0.00  0.00    +0.040 C 
ATOM     24  C   LIG    1        3.173   1.925   1.184  0.00  0.00    +0.220 C 
ATOM     25  O   LIG    1        3.921   1.794  -0.026  0.00  0.00    -0.380 OA
ATOM     26  C   LIG    1        3.150   1.938  -1.219  0.00  0.00    +0.200 C 
ATOM     27  C   LIG    1        2.128   0.798  -1.304  0.00  0.00    +0.070 C 
ENDBRANCH  18  20
ENDBRANCH   1  16
TORSDOF 5
