REMARK  Name = ZINCtV000002AAnh.0
REMARK                            x       y       z     vdW  Elec       q    Type
REMARK                         _______ _______ _______ _____ _____    ______ ____
ROOT
ATOM      1  C   LIG    1        7.337  -2.716  -0.509  0.00  0.00    +0.210 A 
ATOM      2  N   LIG    1        8.476  -2.055  -0.517  0.00  0.00    -0.450 NA
ATOM      3  C   LIG    1        8.531  -0.727  -0.412  0.00  0.00    +0.130 A 
ATOM      4  C   LIG    1        9.764  -0.048  -0.424  0.00  0.00    +0.050 A 
ATOM      5  C   LIG    1        9.788   1.309  -0.316  0.00  0.00    +0.030 A 
ATOM      6  C   LIG    1        8.610   2.042  -0.192  0.00  0.00    +0.020 A 
ATOM      7  C   LIG    1        7.398   1.418  -0.178  0.00  0.00    +0.060 A 
ATOM      8  C   LIG    1        7.336   0.025  -0.287  0.00  0.00    -0.070 A 
ATOM      9  C   LIG    1        6.057  -0.687  -0.275  0.00  0.00    -0.070 A 
ATOM     10  C   LIG    1        6.097  -2.070  -0.384  0.00  0.00    +0.020 A 
ENDROOT
BRANCH   1  14
ATOM     11  C   LIG    1        7.418  -6.953  -0.858  0.00  0.00    +0.150 A 
ATOM     12  C   LIG    1        8.607  -6.234  -0.863  0.00  0.00    -0.020 A 
ATOM     13  C   LIG    1        8.584  -4.860  -0.751  0.00  0.00    +0.110 A 
ATOM     14  C   LIG    1        7.365  -4.192  -0.631  0.00  0.00    -0.100 A 
ATOM     15  C   LIG    1        6.174  -4.917  -0.620  0.00  0.00    +0.070 A 
ATOM     16  C   LIG    1        6.203  -6.290  -0.739  0.00  0.00    -0.080 A 
BRANCH  11  18
ATOM     17  C   LIG    1        6.185  -8.982  -0.956  0.00  0.00    +0.240 C 
ATOM     18  O   LIG    1        7.444  -8.306  -0.969  0.00  0.00    -0.310 OA
ENDBRANCH  11  18
ENDBRANCH   1  14
BRANCH   9  19
ATOM     19  C   LIG    1        4.775   0.037  -0.147  0.00  0.00    +0.570 C 
ATOM     20  N   LIG    1        3.623  -0.650  -0.017  0.00  0.00    -0.670 N 
ATOM     21  H   LIG    1        3.641  -1.616   0.070  0.00  0.00    +0.410 HD
ATOM     22  O   LIG    1        4.759   1.253  -0.158  0.00  0.00    -0.500 OA
BRANCH  20  23
ATOM     23  C   LIG    1        2.400   0.030  -0.007  0.00  0.00    +0.170 A 
ATOM     24  C   LIG    1        2.239   1.182  -0.765  0.00  0.00    +0.020 A 
ATOM     25  C   LIG    1        1.030   1.851  -0.754  0.00  0.00    +0.080 A 
ATOM     26  C   LIG    1       -0.019   1.374   0.012  0.00  0.00    -0.110 A 
ATOM     27  C   LIG    1        0.140   0.226   0.769  0.00  0.00    -0.030 A 
ATOM     28  C   LIG    1       -1.005  -0.290   1.603  0.00  0.00    +0.100 C 
ATOM     29 BR   LIG    1       -1.674   2.288   0.019  0.00  0.00    -0.040 Br
ATOM     30  C   LIG    1        1.346  -0.447   0.762  0.00  0.00    +0.000 A 
ENDBRANCH  20  23
ENDBRANCH   9  19
TORSDOF 4
