REMARK  Name = ZINCpe00000MEgli.0
REMARK                            x       y       z     vdW  Elec       q    Type
REMARK                         _______ _______ _______ _____ _____    ______ ____
ROOT
ATOM      1  N   LIG    1       -4.566   0.217  -3.906  0.00  0.00    -0.560 N 
ATOM      2  C   LIG    1       -5.268   1.201  -4.480  0.00  0.00    +0.710 C 
ATOM      3  N   LIG    1       -5.575   0.934  -5.762  0.00  0.00    -0.720 N 
ATOM      4  H   LIG    1       -6.074   1.502  -6.369  0.00  0.00    +0.440 HD
ATOM      5  C   LIG    1       -5.010  -0.393  -6.062  0.00  0.00    +0.170 C 
ATOM      6  C   LIG    1       -3.974  -0.296  -7.184  0.00  0.00    +0.110 C 
ATOM      7  O   LIG    1       -5.590   2.224  -3.907  0.00  0.00    -0.530 OA
ATOM      8  C   LIG    1       -4.350  -0.802  -4.761  0.00  0.00    +0.540 C 
ATOM      9  O   LIG    1       -3.752  -1.832  -4.535  0.00  0.00    -0.450 OA
ENDROOT
BRANCH   5  10
ATOM     10  C   LIG    1       -6.100  -1.366  -6.432  0.00  0.00    -0.080 A 
ATOM     11  C   LIG    1       -7.197  -0.932  -7.152  0.00  0.00    +0.060 A 
ATOM     12  C   LIG    1       -8.199  -1.822  -7.493  0.00  0.00    +0.030 A 
ATOM     13  C   LIG    1       -8.104  -3.149  -7.112  0.00  0.00    +0.080 A 
ATOM     14  C   LIG    1       -7.003  -3.584  -6.389  0.00  0.00    +0.080 A 
ATOM     15  F   LIG    1       -6.907  -4.880  -6.017  0.00  0.00    -0.120 F 
ATOM     16  F   LIG    1       -9.082  -4.020  -7.445  0.00  0.00    -0.120 F 
ATOM     17  C   LIG    1       -6.000  -2.692  -6.055  0.00  0.00    +0.040 A 
ENDBRANCH   5  10
BRANCH   1  18
ATOM     18  C   LIG    1       -4.096   0.243  -2.519  0.00  0.00    +0.360 C 
BRANCH  18  21
ATOM     19  N   LIG    1       -2.087   0.991  -1.284  0.00  0.00    -0.720 N 
ATOM     20  H   LIG    1       -2.514   0.685  -0.468  0.00  0.00    +0.410 HD
ATOM     21  C   LIG    1       -2.723   0.862  -2.465  0.00  0.00    +0.500 C 
ATOM     22  O   LIG    1       -2.190   1.245  -3.485  0.00  0.00    -0.530 OA
BRANCH  19  23
ATOM     23  C   LIG    1       -0.753   1.593  -1.232  0.00  0.00    +0.250 C 
ATOM     24  C   LIG    1       -0.883   3.115  -1.161  0.00  0.00    +0.040 C 
BRANCH  23  25
ATOM     25  C   LIG    1       -0.013   1.086   0.008  0.00  0.00    +0.180 C 
BRANCH  25  27
ATOM     26  C   LIG    1       -0.068   1.127   2.404  0.00  0.00    +0.200 C 
ATOM     27  O   LIG    1       -0.682   1.547   1.184  0.00  0.00    -0.390 OA
ENDBRANCH  25  27
ENDBRANCH  23  25
ENDBRANCH  19  23
ENDBRANCH  18  21
ENDBRANCH   1  18
TORSDOF 6
