REMARK  Name = ZINCrH000004uGgK.0
REMARK                            x       y       z     vdW  Elec       q    Type
REMARK                         _______ _______ _______ _____ _____    ______ ____
ROOT
ATOM      1  O   LIG    1        2.858   4.248   0.712  0.00  0.00    -0.580 OA
ATOM      2  C   LIG    1        2.672   3.414   1.577  0.00  0.00    +0.700 C 
ATOM      3  N   LIG    1        1.949   2.309   1.304  0.00  0.00    -0.600 N 
ATOM      4  C   LIG    1        1.851   1.302   2.289  0.00  0.00    +0.230 C 
ATOM      5  C   LIG    1        1.781  -0.092   1.743  0.00  0.00    -0.020 C 
ATOM      6  C   LIG    1        0.406  -0.567   1.366  0.00  0.00    +0.030 C 
ATOM      7  C   LIG    1        0.002  -0.005   0.003  0.00  0.00    -0.010 C 
ATOM      8  C   LIG    1       -0.022   1.506   0.018  0.00  0.00    +0.020 C 
ATOM      9  C   LIG    1        0.993  -0.544  -1.032  0.00  0.00    +0.010 C 
ATOM     10  C   LIG    1        2.352   0.053  -0.738  0.00  0.00    -0.020 C 
ATOM     11  C   LIG    1        2.278   1.557  -0.961  0.00  0.00    +0.020 C 
ATOM     12  C   LIG    1        2.812  -0.334   0.653  0.00  0.00    +0.020 C 
ATOM     13  C   LIG    1        1.309   2.206   0.004  0.00  0.00    +0.260 C 
ATOM     14  N   LIG    1        3.188   3.594   2.808  0.00  0.00    -0.740 N 
ATOM     15  H   LIG    1        3.101   2.897   3.478  0.00  0.00    +0.400 HD
ENDROOT
BRANCH  14  16
ATOM     16  C   LIG    1        3.881   4.842   3.137  0.00  0.00    +0.350 C 
BRANCH  16  17
ATOM     17  C   LIG    1        4.360   4.790   4.565  0.00  0.00    -0.170 A 
ATOM     18  C   LIG    1        3.650   5.431   5.566  0.00  0.00    +0.130 A 
ATOM     19  C   LIG    1        4.125   5.353   6.868  0.00  0.00    -0.060 A 
ATOM     20  C   LIG    1        5.288   4.653   7.122  0.00  0.00    +0.320 A 
ATOM     21  N   LIG    1        5.945   4.056   6.146  0.00  0.00    -0.540 NA
ATOM     22  C   LIG    1        5.521   4.103   4.894  0.00  0.00    +0.340 A 
BRANCH  22  23
ATOM     23  O   LIG    1        6.229   3.475   3.921  0.00  0.00    -0.290 OA
BRANCH  23  24
ATOM     24  C   LIG    1        7.415   2.786   4.323  0.00  0.00    +0.250 C 
BRANCH  24  25
ATOM     25  C   LIG    1        8.072   2.146   3.099  0.00  0.00    +0.460 C 
ATOM     26  F   LIG    1        7.182   1.239   2.513  0.00  0.00    -0.170 F 
ATOM     27  F   LIG    1        9.233   1.471   3.493  0.00  0.00    -0.170 F 
ATOM     28  F   LIG    1        8.402   3.140   2.173  0.00  0.00    -0.170 F 
ENDBRANCH  24  25
ENDBRANCH  23  24
ENDBRANCH  22  23
ENDBRANCH  16  17
ENDBRANCH  14  16
TORSDOF 5
