REMARK  Name = ZINCkj000005hcpz.1
REMARK                            x       y       z     vdW  Elec       q    Type
REMARK                         _______ _______ _______ _____ _____    ______ ____
ROOT
ATOM      1  C   LIG    1       -4.409   5.453  -2.787  0.00  0.00    +0.520 C 
ATOM      2  N   LIG    1       -5.424   6.297  -3.059  0.00  0.00    -0.760 N 
ATOM      3  H   LIG    1       -5.981   6.633  -2.340  0.00  0.00    +0.390 HD
ATOM      4  O   LIG    1       -3.712   5.032  -3.686  0.00  0.00    -0.490 OA
ENDROOT
BRANCH   1   5
ATOM      5  C   LIG    1       -4.141   5.030  -1.365  0.00  0.00    +0.210 C 
BRANCH   5   7
ATOM      6  C   LIG    1       -3.306   2.854  -2.020  0.00  0.00    +0.190 C 
ATOM      7  N   LIG    1       -2.993   4.115  -1.334  0.00  0.00    -0.520 NA
BRANCH   7   8
ATOM      8  C   LIG    1       -2.553   3.869   0.045  0.00  0.00    +0.240 C 
BRANCH   8   9
ATOM      9  C   LIG    1       -1.238   3.133   0.029  0.00  0.00    -0.090 A 
ATOM     10  C   LIG    1       -1.219   1.751   0.017  0.00  0.00    +0.010 A 
ATOM     11  C   LIG    1       -0.013   1.076   0.008  0.00  0.00    +0.000 A 
ATOM     12  C   LIG    1        1.175   1.783   0.000  0.00  0.00    +0.010 A 
ATOM     13  C   LIG    1        1.156   3.165   0.008  0.00  0.00    +0.000 A 
ATOM     14  C   LIG    1       -0.050   3.840   0.022  0.00  0.00    +0.020 A 
ENDBRANCH   8   9
ENDBRANCH   7   8
ENDBRANCH   5   7
ENDBRANCH   1   5
BRANCH   2  15
ATOM     15  C   LIG    1       -5.684   6.708  -4.441  0.00  0.00    +0.310 C 
BRANCH  15  16
ATOM     16  C   LIG    1       -6.881   7.661  -4.473  0.00  0.00    +0.160 C 
ATOM     17  C   LIG    1       -7.060   8.231  -5.895  0.00  0.00    +0.100 C 
ATOM     18  C   LIG    1       -7.470   9.706  -5.629  0.00  0.00    +0.080 C 
ATOM     19  C   LIG    1       -6.633  10.043  -4.369  0.00  0.00    +0.260 C 
ATOM     20  N   LIG    1       -6.638   8.800  -3.569  0.00  0.00    -0.400 N 
ATOM     21  C   LIG    1       -7.706   8.869  -2.562  0.00  0.00    +0.330 C 
ATOM     22  H   LIG    1       -5.746   8.687  -3.112  0.00  0.00    +0.420 HD
ENDBRANCH  15  16
ENDBRANCH   2  15
TORSDOF 6
