REMARK  Name = ZINCkj000005hcpz.0
REMARK                            x       y       z     vdW  Elec       q    Type
REMARK                         _______ _______ _______ _____ _____    ______ ____
ROOT
ATOM      1  C   LIG    1       -0.005   1.158  -0.480  0.00  0.00    +0.520 C 
ATOM      2  N   LIG    1        1.143   1.857  -0.373  0.00  0.00    -0.740 N 
ATOM      3  H   LIG    1        1.119   2.826  -0.339  0.00  0.00    +0.410 HD
ATOM      4  O   LIG    1        0.025  -0.053  -0.523  0.00  0.00    -0.500 OA
ENDROOT
BRANCH   1   5
ATOM      5  C   LIG    1       -1.324   1.883  -0.553  0.00  0.00    +0.220 C 
BRANCH   5   7
ATOM      6  C   LIG    1       -2.339   0.185  -1.951  0.00  0.00    +0.190 C 
ATOM      7  N   LIG    1       -2.414   0.905  -0.672  0.00  0.00    -0.520 NA
BRANCH   7   8
ATOM      8  C   LIG    1       -3.723   1.552  -0.508  0.00  0.00    +0.240 C 
BRANCH   8   9
ATOM      9  C   LIG    1       -4.793   0.498  -0.390  0.00  0.00    -0.090 A 
ATOM     10  C   LIG    1       -5.431   0.030  -1.524  0.00  0.00    +0.010 A 
ATOM     11  C   LIG    1       -6.410  -0.940  -1.415  0.00  0.00    +0.000 A 
ATOM     12  C   LIG    1       -6.758  -1.435  -0.173  0.00  0.00    +0.010 A 
ATOM     13  C   LIG    1       -6.123  -0.965   0.961  0.00  0.00    +0.000 A 
ATOM     14  C   LIG    1       -5.141   0.002   0.853  0.00  0.00    +0.020 A 
ENDBRANCH   8   9
ENDBRANCH   7   8
ENDBRANCH   5   7
ENDBRANCH   1   5
BRANCH   2  15
ATOM     15  C   LIG    1        2.426   1.153  -0.308  0.00  0.00    +0.280 C 
BRANCH  15  16
ATOM     16  C   LIG    1        3.567   2.172  -0.319  0.00  0.00    +0.160 C 
ATOM     17  C   LIG    1        3.600   2.910  -1.674  0.00  0.00    +0.080 C 
ATOM     18  C   LIG    1        5.122   3.055  -1.952  0.00  0.00    +0.080 C 
ATOM     19  C   LIG    1        5.678   1.732  -1.368  0.00  0.00    +0.260 C 
ATOM     20  N   LIG    1        4.859   1.479  -0.163  0.00  0.00    -0.380 N 
ATOM     21  C   LIG    1        4.631   0.035  -0.018  0.00  0.00    +0.330 C 
ATOM     22  H   LIG    1        5.338   1.831   0.652  0.00  0.00    +0.430 HD
ENDBRANCH  15  16
ENDBRANCH   2  15
TORSDOF 6
