REMARK  Name = ZINCpe000000SWsX.0
REMARK                            x       y       z     vdW  Elec       q    Type
REMARK                         _______ _______ _______ _____ _____    ______ ____
ROOT
ATOM      1  C   LIG    1       -1.324   0.962   5.703  0.00  0.00    +0.140 C 
ATOM      2  C   LIG    1       -2.561   1.857   5.807  0.00  0.00    +0.040 C 
ATOM      3  C   LIG    1       -3.133   2.105   4.409  0.00  0.00    +0.030 C 
ATOM      4  C   LIG    1       -2.085   2.825   3.554  0.00  0.00    +0.270 C 
ATOM      5  N   LIG    1       -0.843   2.040   3.567  0.00  0.00    -0.590 N 
ATOM      6  C   LIG    1       -0.254   1.668   2.414  0.00  0.00    +0.660 C 
ATOM      7  O   LIG    1        0.773   1.019   2.438  0.00  0.00    -0.560 OA
ATOM      8  C   LIG    1       -0.259   1.664   4.862  0.00  0.00    +0.290 C 
ENDROOT
BRANCH   1   9
ATOM      9  O   LIG    1       -1.681  -0.274   5.080  0.00  0.00    -0.550 OA
ATOM     10  H   LIG    1       -0.944  -0.892   4.981  0.00  0.00    +0.390 HD
ENDBRANCH   1   9
BRANCH   1  11
ATOM     11  C   LIG    1       -0.773   0.687   7.103  0.00  0.00    +0.040 C 
BRANCH  11  13
ATOM     12  N   LIG    1        1.005  -0.696   8.126  0.00  0.00    -0.590 N 
ATOM     13  C   LIG    1        0.405  -0.247   7.005  0.00  0.00    +0.530 C 
ATOM     14  O   LIG    1        0.814  -0.596   5.918  0.00  0.00    -0.520 OA
BRANCH  12  16
ATOM     15  C   LIG    1        1.890  -2.825   7.310  0.00  0.00    +0.040 C 
ATOM     16  C   LIG    1        2.216  -1.515   8.031  0.00  0.00    +0.230 C 
ATOM     17  C   LIG    1        3.286  -0.754   7.247  0.00  0.00    +0.030 C 
ENDBRANCH  12  16
BRANCH  12  18
ATOM     18  C   LIG    1        0.446  -0.364   9.438  0.00  0.00    +0.310 C 
BRANCH  18  19
ATOM     19  C   LIG    1       -0.544  -1.425   9.845  0.00  0.00    +0.490 C 
ATOM     20  O   LIG    1       -0.761  -2.366   9.111  0.00  0.00    -0.520 OA
ATOM     21  N   LIG    1       -1.188  -1.329  11.025  0.00  0.00    -0.850 N 
ATOM     22  H   LIG    1       -1.826  -2.012  11.287  0.00  0.00    +0.400 HD
ATOM     23  H   LIG    1       -1.015  -0.577  11.613  0.00  0.00    +0.400 HD
ENDBRANCH  18  19
ENDBRANCH  12  18
ENDBRANCH  11  13
ENDBRANCH   1  11
BRANCH   6  24
ATOM     24  O   LIG    1       -0.803   2.015   1.234  0.00  0.00    -0.360 OA
BRANCH  24  25
ATOM     25  C   LIG    1       -0.114   1.579   0.033  0.00  0.00    +0.140 C 
ATOM     26  C   LIG    1       -0.880   2.064  -1.199  0.00  0.00    +0.080 C 
ATOM     27  C   LIG    1        1.300   2.164   0.016  0.00  0.00    +0.040 C 
ATOM     28  C   LIG    1       -0.034   0.052   0.016  0.00  0.00    +0.040 C 
ENDBRANCH  24  25
ENDBRANCH   6  24
TORSDOF 8
