REMARK  Name = ZINCvU00000009xA.1
REMARK                            x       y       z     vdW  Elec       q    Type
REMARK                         _______ _______ _______ _____ _____    ______ ____
ROOT
ATOM      1  N   LIG    1       -4.027   3.995  -6.387  0.00  0.00    -0.660 NA
ATOM      2  H   LIG    1       -4.860   4.361  -6.824  0.00  0.00    +0.350 HD
ENDROOT
BRANCH   1   3
ATOM      3  C   LIG    1       -3.184   3.294  -7.366  0.00  0.00    +0.170 C 
BRANCH   3   4
ATOM      4  C   LIG    1       -3.945   2.126  -7.938  0.00  0.00    +0.420 C 
ATOM      5  O   LIG    1       -5.079   1.899  -7.567  0.00  0.00    -0.430 OA
BRANCH   4  10
ATOM      6  C   LIG    1       -2.962  -0.331 -10.404  0.00  0.00    -0.220 A 
ATOM      7  C   LIG    1       -1.833   0.465 -10.313  0.00  0.00    +0.130 A 
ATOM      8  N   LIG    1       -2.066   1.439  -9.420  0.00  0.00    -0.510 N 
ATOM      9  H   LIG    1       -1.437   2.135  -9.172  0.00  0.00    +0.420 HD
ATOM     10  C   LIG    1       -3.338   1.292  -8.908  0.00  0.00    -0.100 A 
ATOM     11  C   LIG    1       -0.557   0.274 -11.091  0.00  0.00    +0.160 C 
ATOM     12  C   LIG    1       -3.918   0.197  -9.510  0.00  0.00    -0.010 A 
ATOM     13  C   LIG    1       -5.305  -0.336  -9.262  0.00  0.00    +0.140 C 
BRANCH   6  14
ATOM     14  C   LIG    1       -3.132  -1.508 -11.272  0.00  0.00    +0.550 C 
ATOM     15  O   LIG    1       -3.577  -1.376 -12.396  0.00  0.00    -0.490 OA
BRANCH  14  17
ATOM     16  C   LIG    1       -2.991  -3.847 -11.731  0.00  0.00    +0.250 C 
ATOM     17  O   LIG    1       -2.796  -2.733 -10.821  0.00  0.00    -0.350 OA
ENDBRANCH  14  17
ENDBRANCH   6  14
ENDBRANCH   4  10
ENDBRANCH   3   4
ENDBRANCH   1   3
BRANCH   1  18
ATOM     18  C   LIG    1       -3.274   5.062  -5.714  0.00  0.00    +0.180 C 
BRANCH  18  19
ATOM     19  C   LIG    1       -2.528   4.485  -4.538  0.00  0.00    -0.080 A 
ATOM     20  C   LIG    1       -1.242   4.910  -4.260  0.00  0.00    +0.000 A 
ATOM     21  C   LIG    1       -0.558   4.381  -3.181  0.00  0.00    +0.000 A 
ATOM     22  C   LIG    1       -1.159   3.426  -2.382  0.00  0.00    -0.070 A 
ATOM     23  C   LIG    1       -2.443   2.997  -2.664  0.00  0.00    +0.000 A 
ATOM     24  C   LIG    1       -3.129   3.530  -3.739  0.00  0.00    +0.050 A 
BRANCH  22  25
ATOM     25  C   LIG    1       -0.413   2.849  -1.207  0.00  0.00    +0.030 C 
ATOM     26  C   LIG    1       -0.272   1.336  -1.385  0.00  0.00    +0.010 C 
ATOM     27  C   LIG    1        0.486   0.750  -0.192  0.00  0.00    +0.000 C 
ATOM     28  C   LIG    1       -0.287   1.042   1.095  0.00  0.00    +0.000 C 
ATOM     29  C   LIG    1       -0.429   2.554   1.274  0.00  0.00    +0.000 C 
ATOM     30  C   LIG    1       -1.186   3.140   0.081  0.00  0.00    +0.010 C 
ENDBRANCH  22  25
ENDBRANCH  18  19
BRANCH  18  31
ATOM     31  C   LIG    1       -4.244   6.139  -5.223  0.00  0.00    -0.010 C 
ATOM     32  C   LIG    1       -5.315   5.496  -4.339  0.00  0.00    +0.030 C 
ATOM     33  C   LIG    1       -4.910   6.811  -6.425  0.00  0.00    +0.020 C 
ENDBRANCH  18  31
ENDBRANCH   1  18
TORSDOF 9
