REMARK  Name = ZINCpe000000VGsn.0
REMARK                            x       y       z     vdW  Elec       q    Type
REMARK                         _______ _______ _______ _____ _____    ______ ____
ROOT
ATOM      1  N   LIG    1        1.469   6.910   0.268  0.00  0.00    -0.710 N 
ATOM      2  H   LIG    1        0.657   7.441   0.253  0.00  0.00    +0.400 HD
ATOM      3  C   LIG    1        2.672   7.516   0.235  0.00  0.00    +0.700 C 
ATOM      4  N   LIG    1        2.748   8.861   0.180  0.00  0.00    -0.670 N 
ATOM      5  H   LIG    1        1.940   9.395   0.234  0.00  0.00    +0.410 HD
ATOM      6  O   LIG    1        3.689   6.850   0.254  0.00  0.00    -0.540 OA
ENDROOT
BRANCH   4   7
ATOM      7  C   LIG    1        3.987   9.484   0.045  0.00  0.00    +0.380 A 
ATOM      8  C   LIG    1        4.069  10.874   0.102  0.00  0.00    -0.040 A 
ATOM      9  C   LIG    1        5.304  11.485  -0.028  0.00  0.00    +0.100 A 
ATOM     10  C   LIG    1        6.422  10.687  -0.221  0.00  0.00    +0.010 A 
ATOM     11  C   LIG    1        6.270   9.305  -0.273  0.00  0.00    +0.110 A 
ATOM     12  N   LIG    1        5.070   8.751  -0.140  0.00  0.00    -0.450 NA
BRANCH  11  13
ATOM     13  C   LIG    1        7.457   8.442  -0.479  0.00  0.00    +0.580 C 
ATOM     14  O   LIG    1        8.557   8.943  -0.602  0.00  0.00    -0.540 OA
ATOM     15  N   LIG    1        7.316   7.103  -0.531  0.00  0.00    -0.830 N 
ATOM     16  H   LIG    1        8.093   6.539  -0.666  0.00  0.00    +0.400 HD
ATOM     17  H   LIG    1        6.438   6.704  -0.433  0.00  0.00    +0.420 HD
ENDBRANCH  11  13
ENDBRANCH   4   7
BRANCH   1  18
ATOM     18  C   LIG    1        1.386   5.449   0.327  0.00  0.00    +0.320 C 
BRANCH  18  19
ATOM     19  C   LIG    1       -0.080   5.018   0.264  0.00  0.00    +0.310 C 
BRANCH  19  20
ATOM     20  C   LIG    1       -0.820   5.575   1.453  0.00  0.00    +0.100 A 
ATOM     21  C   LIG    1       -2.100   5.135   1.729  0.00  0.00    +0.000 A 
ATOM     22  C   LIG    1       -2.770   5.651   2.828  0.00  0.00    +0.060 A 
ATOM     23  C   LIG    1       -2.127   6.601   3.607  0.00  0.00    -0.020 A 
ATOM     24  C   LIG    1       -0.845   6.992   3.269  0.00  0.00    +0.260 A 
ATOM     25  N   LIG    1       -0.236   6.476   2.219  0.00  0.00    -0.460 NA
ENDBRANCH  19  20
BRANCH  19  27
ATOM     26  C   LIG    1        0.436   2.963  -0.857  0.00  0.00    +0.230 C 
ATOM     27  O   LIG    1       -0.159   3.591   0.280  0.00  0.00    -0.380 OA
ENDBRANCH  19  27
BRANCH  19  28
ATOM     28  O   LIG    1       -0.671   5.513  -0.939  0.00  0.00    -0.380 OA
ATOM     29  C   LIG    1       -2.010   5.064  -1.157  0.00  0.00    +0.220 C 
ENDBRANCH  19  28
ENDBRANCH  18  19
ENDBRANCH   1  18
TORSDOF 7
