REMARK  Name = ZINCvU0000000IRz.0
REMARK                            x       y       z     vdW  Elec       q    Type
REMARK                         _______ _______ _______ _____ _____    ______ ____
ROOT
ATOM      1  C   LIG    1       -0.408   2.981   0.177  0.00  0.00    +0.000 A 
ATOM      2  C   LIG    1       -1.728   2.489   0.098  0.00  0.00    -0.210 A 
ATOM      3  C   LIG    1       -2.318   1.154   0.171  0.00  0.00    +0.160 A 
ATOM      4  N   LIG    1       -3.603   1.290   0.035  0.00  0.00    -0.270 NA
ATOM      5  O   LIG    1       -3.923   2.657  -0.127  0.00  0.00    -0.080 OA
ATOM      6  C   LIG    1       -1.573  -0.141   0.368  0.00  0.00    +0.200 C 
ATOM      7  C   LIG    1       -2.791   3.390  -0.090  0.00  0.00    +0.310 A 
ATOM      8  N   LIG    1       -2.554   4.687  -0.193  0.00  0.00    -0.460 NA
ATOM      9  C   LIG    1       -1.327   5.183  -0.124  0.00  0.00    +0.280 A 
ATOM     10  C   LIG    1       -0.217   4.354   0.068  0.00  0.00    -0.010 A 
ENDROOT
BRANCH   9  11
ATOM     11  C   LIG    1       -1.128   6.645  -0.246  0.00  0.00    -0.100 A 
ATOM     12  C   LIG    1       -2.144   7.508  -0.431  0.00  0.00    -0.150 A 
ATOM     13  S   LIG    1       -1.560   9.108  -0.524  0.00  0.00    +0.190 S 
ATOM     14  C   LIG    1        0.100   8.570  -0.315  0.00  0.00    -0.200 A 
ATOM     15  C   LIG    1        1.307   9.473  -0.288  0.00  0.00    +0.150 C 
ATOM     16  C   LIG    1       -3.595   7.115  -0.538  0.00  0.00    +0.150 C 
ATOM     17  C   LIG    1        0.131   7.246  -0.184  0.00  0.00    +0.030 A 
ENDBRANCH   9  11
BRANCH   1  20
ATOM     18  N   LIG    1        1.928   2.343  -0.189  0.00  0.00    -0.650 N 
ATOM     19  H   LIG    1        2.016   3.102  -0.786  0.00  0.00    +0.420 HD
ATOM     20  C   LIG    1        0.737   2.064   0.376  0.00  0.00    +0.560 C 
ATOM     21  O   LIG    1        0.601   1.058   1.044  0.00  0.00    -0.490 OA
BRANCH  18  26
ATOM     22  C   LIG    1        4.175  -0.022   1.514  0.00  0.00    +0.160 A 
ATOM     23  C   LIG    1        5.240  -0.056   0.624  0.00  0.00    +0.010 A 
ATOM     24  C   LIG    1        5.202   0.703  -0.531  0.00  0.00    +0.050 A 
ATOM     25  C   LIG    1        4.106   1.498  -0.802  0.00  0.00    -0.130 A 
ATOM     26  C   LIG    1        3.037   1.537   0.086  0.00  0.00    +0.160 A 
ATOM     27  C   LIG    1        4.069   2.324  -2.062  0.00  0.00    +0.090 C 
ATOM     28  C   LIG    1        3.075   0.780   1.248  0.00  0.00    -0.010 A 
BRANCH  22  31
ATOM     29  C   LIG    1        5.447  -1.934   4.498  0.00  0.00    +0.110 C 
ATOM     30  C   LIG    1        5.393  -1.032   3.291  0.00  0.00    +0.510 C 
ATOM     31  N   LIG    1        4.215  -0.791   2.683  0.00  0.00    -0.670 N 
ATOM     32  H   LIG    1        3.394  -1.150   3.055  0.00  0.00    +0.410 HD
ATOM     33  O   LIG    1        6.410  -0.524   2.868  0.00  0.00    -0.520 OA
ENDBRANCH  22  31
ENDBRANCH  18  26
ENDBRANCH   1  20
TORSDOF 4
