REMARK  Name = ZINCyk0000000mbU.1
REMARK                            x       y       z     vdW  Elec       q    Type
REMARK                         _______ _______ _______ _____ _____    ______ ____
ROOT
ATOM      1  C   LIG    1       -3.414  -3.443  -0.950  0.00  0.00    +0.280 C 
ENDROOT
BRANCH   1   2
ATOM      2  N   LIG    1       -2.475  -3.375  -2.072  0.00  0.00    -0.570 N 
ATOM      3  C   LIG    1       -1.173  -3.704  -1.996  0.00  0.00    +0.580 C 
ATOM      4  C   LIG    1       -0.559  -3.508  -3.326  0.00  0.00    -0.140 A 
ATOM      5  C   LIG    1        0.717  -3.682  -3.839  0.00  0.00    +0.110 A 
ATOM      6  C   LIG    1        0.968  -3.391  -5.171  0.00  0.00    +0.060 A 
ATOM      7  C   LIG    1       -0.045  -2.932  -5.991  0.00  0.00    +0.060 A 
ATOM      8  C   LIG    1       -1.327  -2.753  -5.492  0.00  0.00    +0.100 A 
ATOM      9  C   LIG    1       -1.592  -3.039  -4.163  0.00  0.00    -0.150 A 
ATOM     10  O   LIG    1       -0.598  -4.099  -1.002  0.00  0.00    -0.440 OA
ATOM     11  C   LIG    1       -2.800  -2.971  -3.313  0.00  0.00    +0.580 C 
ATOM     12  O   LIG    1       -3.901  -2.609  -3.675  0.00  0.00    -0.460 OA
ENDBRANCH   1   2
BRANCH   1  13
ATOM     13  C   LIG    1       -2.934  -2.544   0.161  0.00  0.00    +0.520 C 
ATOM     14  N   LIG    1       -3.721  -2.318   1.232  0.00  0.00    -0.630 N 
ATOM     15  C   LIG    1       -3.326  -1.355   2.271  0.00  0.00    +0.330 C 
ATOM     16  C   LIG    1       -4.505  -0.401   2.517  0.00  0.00    +0.260 C 
ATOM     17  N   LIG    1       -5.704  -1.184   2.842  0.00  0.00    -0.380 N 
ATOM     18  C   LIG    1       -6.095  -2.003   1.688  0.00  0.00    +0.270 C 
ATOM     19  H   LIG    1       -5.508  -1.786   3.629  0.00  0.00    +0.430 HD
ATOM     20  C   LIG    1       -4.997  -3.031   1.397  0.00  0.00    +0.310 C 
ATOM     21  O   LIG    1       -1.841  -2.024   0.091  0.00  0.00    -0.480 OA
BRANCH  17  22
ATOM     22  C   LIG    1       -6.802  -0.271   3.187  0.00  0.00    +0.260 C 
BRANCH  22  23
ATOM     23  C   LIG    1       -6.352   0.667   4.309  0.00  0.00    +0.100 C 
BRANCH  23  24
ATOM     24  C   LIG    1       -7.478   1.604   4.662  0.00  0.00    -0.110 A 
ATOM     25  C   LIG    1       -7.596   2.819   4.014  0.00  0.00    +0.010 A 
ATOM     26  C   LIG    1       -8.632   3.676   4.335  0.00  0.00    +0.020 A 
ATOM     27  C   LIG    1       -9.544   3.322   5.312  0.00  0.00    +0.030 A 
ATOM     28  C   LIG    1       -9.423   2.109   5.964  0.00  0.00    +0.020 A 
ATOM     29  C   LIG    1       -8.390   1.250   5.639  0.00  0.00    +0.010 A 
ENDBRANCH  23  24
ENDBRANCH  22  23
ENDBRANCH  17  22
ENDBRANCH   1  13
BRANCH   1  30
ATOM     30  C   LIG    1       -3.496  -4.883  -0.440  0.00  0.00    +0.090 C 
BRANCH  30  31
ATOM     31  C   LIG    1       -4.036  -5.787  -1.551  0.00  0.00    -0.360 C 
BRANCH  31  33
ATOM     32  C   LIG    1       -4.784  -8.368  -2.398  0.00  0.00    -0.250 C 
ATOM     33  S   LIG    1       -4.134  -7.495  -0.947  0.00  0.00    +2.420 S 
ATOM     34  O   LIG    1       -5.105  -7.553   0.089  0.00  0.00    -0.930 OA
ATOM     35  O   LIG    1       -2.816  -7.961  -0.690  0.00  0.00    -0.920 OA
ENDBRANCH  31  33
ENDBRANCH  30  31
ENDBRANCH   1  30
TORSDOF 8
