REMARK  Name = ZINCpk000004ATK8.0
REMARK                            x       y       z     vdW  Elec       q    Type
REMARK                         _______ _______ _______ _____ _____    ______ ____
ROOT
ATOM      1  C   LIG    1        1.120   7.293   0.140  0.00  0.00    +0.130 A 
ATOM      2  C   LIG    1        0.992   8.246  -0.865  0.00  0.00    +0.070 A 
ATOM      3  C   LIG    1        0.866   7.857  -2.183  0.00  0.00    +0.010 A 
ATOM      4  C   LIG    1        0.872   6.511  -2.515  0.00  0.00    +0.150 A 
ATOM      5  C   LIG    1        0.995   5.544  -1.508  0.00  0.00    -0.140 A 
ATOM      6  C   LIG    1        1.122   5.945  -0.177  0.00  0.00    +0.040 A 
ENDROOT
BRANCH   5   7
ATOM      7  C   LIG    1        0.997   4.110  -1.854  0.00  0.00    +0.570 C 
ATOM      8  N   LIG    1        1.891   3.280  -1.280  0.00  0.00    -0.600 N 
ATOM      9  C   LIG    1        2.890   3.794  -0.334  0.00  0.00    +0.260 C 
ATOM     10  C   LIG    1        4.282   3.359  -0.802  0.00  0.00    +0.010 C 
ATOM     11  C   LIG    1        4.305   1.838  -0.976  0.00  0.00    +0.050 C 
ATOM     12  C   LIG    1        3.287   1.430  -2.043  0.00  0.00    -0.020 C 
ATOM     13  C   LIG    1        1.883   1.843  -1.590  0.00  0.00    +0.310 C 
ATOM     14  O   LIG    1        0.193   3.677  -2.656  0.00  0.00    -0.530 OA
BRANCH  12  15
ATOM     15  C   LIG    1        3.333  -0.064  -2.237  0.00  0.00    +0.520 C 
ATOM     16  N   LIG    1        2.748  -0.622  -3.315  0.00  0.00    -0.620 N 
ATOM     17  C   LIG    1        2.033   0.219  -4.278  0.00  0.00    +0.290 C 
ATOM     18  C   LIG    1        2.828  -2.070  -3.524  0.00  0.00    +0.290 C 
ATOM     19  O   LIG    1        3.897  -0.764  -1.422  0.00  0.00    -0.530 OA
ENDBRANCH  12  15
ENDBRANCH   5   7
BRANCH   1  21
ATOM     20  C   LIG    1        1.931   8.819   1.777  0.00  0.00    +0.550 C 
ATOM     21  N   LIG    1        1.247   7.698   1.474  0.00  0.00    -0.670 N 
ATOM     22  H   LIG    1        0.843   7.171   2.182  0.00  0.00    +0.410 HD
ATOM     23  O   LIG    1        2.386   9.512   0.887  0.00  0.00    -0.520 OA
BRANCH  20  25
ATOM     24  C   LIG    1        2.802  10.311   3.480  0.00  0.00    +0.160 C 
ATOM     25  C   LIG    1        2.127   9.204   3.182  0.00  0.00    -0.090 C 
ENDBRANCH  20  25
ENDBRANCH   1  21
BRANCH   4  26
ATOM     26  O   LIG    1        0.753   6.130  -3.813  0.00  0.00    -0.490 OA
ATOM     27  H   LIG    1       -0.160   5.998  -4.102  0.00  0.00    +0.400 HD
ENDBRANCH   4  26
TORSDOF 5
