REMARK  Name = ZINCrH00000No4Lz.1
REMARK                            x       y       z     vdW  Elec       q    Type
REMARK                         _______ _______ _______ _____ _____    ______ ____
ROOT
ATOM      1  C   LIG    1        1.115   2.218   0.817  0.00  0.00    +0.050 C 
ATOM      2  C   LIG    1        2.324   1.455   1.408  0.00  0.00    +0.040 C 
ATOM      3  C   LIG    1        1.799   0.000   1.504  0.00  0.00    +0.250 C 
ATOM      4  N   LIG    1        0.972  -0.144   0.283  0.00  0.00    -0.610 N 
ATOM      5  C   LIG    1        0.884  -1.226  -0.515  0.00  0.00    +0.580 C 
ATOM      6  O   LIG    1        0.248  -1.168  -1.550  0.00  0.00    -0.520 OA
ATOM      7  C   LIG    1        0.264   1.140   0.121  0.00  0.00    +0.170 C 
ATOM      8  C   LIG    1       -1.116   1.061   0.777  0.00  0.00    +0.040 C 
ATOM      9  C   LIG    1        0.119   1.470  -1.366  0.00  0.00    +0.050 C 
ENDROOT
BRANCH   1  13
ATOM     10  C   LIG    1        2.437   5.130  -2.019  0.00  0.00    +0.100 A 
ATOM     11  C   LIG    1        1.488   5.468  -1.067  0.00  0.00    -0.040 A 
ATOM     12  C   LIG    1        1.062   4.524  -0.151  0.00  0.00    +0.050 A 
ATOM     13  C   LIG    1        1.582   3.244  -0.183  0.00  0.00    -0.080 A 
ATOM     14  C   LIG    1        2.533   2.904  -1.128  0.00  0.00    +0.030 A 
ATOM     15  C   LIG    1        2.958   3.842  -2.050  0.00  0.00    +0.070 A 
ATOM     16  F   LIG    1        3.884   3.509  -2.977  0.00  0.00    -0.130 F 
BRANCH  10  18
ATOM     17  C   LIG    1        2.278   7.360  -2.830  0.00  0.00    +0.250 C 
ATOM     18  O   LIG    1        2.857   6.056  -2.921  0.00  0.00    -0.310 OA
ENDBRANCH  10  18
ENDBRANCH   1  13
BRANCH   5  19
ATOM     19  C   LIG    1        1.560  -2.482  -0.133  0.00  0.00    -0.160 A 
ATOM     20  C   LIG    1        1.878  -3.431  -1.112  0.00  0.00    +0.130 A 
ATOM     21  C   LIG    1        2.514  -4.601  -0.764  0.00  0.00    -0.030 A 
ATOM     22  C   LIG    1        2.834  -4.856   0.563  0.00  0.00    +0.200 A 
ATOM     23  C   LIG    1        2.514  -3.913   1.556  0.00  0.00    -0.230 A 
ATOM     24  C   LIG    1        1.875  -2.724   1.201  0.00  0.00    +0.120 A 
BRANCH  23  25
ATOM     25  C   LIG    1        2.851  -4.179   2.961  0.00  0.00    +0.490 C 
ATOM     26  O   LIG    1        3.406  -5.213   3.267  0.00  0.00    -0.440 OA
ENDBRANCH  23  25
BRANCH  22  27
ATOM     27  O   LIG    1        3.454  -6.013   0.900  0.00  0.00    -0.480 OA
ATOM     28  H   LIG    1        2.848  -6.736   1.113  0.00  0.00    +0.400 HD
ENDBRANCH  22  27
ENDBRANCH   5  19
TORSDOF 5
