REMARK  Name = ZINCb70000002kmE.0
REMARK                            x       y       z     vdW  Elec       q    Type
REMARK                         _______ _______ _______ _____ _____    ______ ____
ROOT
ATOM      1  C   LIG    1       -3.645   5.375  -4.267  0.00  0.00    +0.200 C 
ATOM      2  C   LIG    1       -2.852   4.879  -3.085  0.00  0.00    +0.240 A 
ATOM      3  N   LIG    1       -1.965   5.572  -2.420  0.00  0.00    -0.290 NA
ATOM      4  N   LIG    1       -1.476   4.736  -1.403  0.00  0.00    -0.480 N 
ATOM      5  H   LIG    1       -0.807   4.961  -0.738  0.00  0.00    +0.440 HD
ATOM      6  C   LIG    1       -2.116   3.562  -1.538  0.00  0.00    +0.260 A 
ATOM      7  N   LIG    1       -2.941   3.663  -2.549  0.00  0.00    -0.510 NA
ENDROOT
BRANCH   6   8
ATOM      8  C   LIG    1       -1.922   2.343  -0.673  0.00  0.00    +0.130 C 
ATOM      9  C   LIG    1       -1.476   2.751   0.756  0.00  0.00    +0.080 C 
ATOM     10  C   LIG    1       -0.714   1.486   1.216  0.00  0.00    +0.280 C 
ATOM     11  N   LIG    1       -0.012   1.005   0.008  0.00  0.00    -0.510 N 
ATOM     12  H   LIG    1        0.933   1.358   0.000  0.00  0.00    +0.430 HD
ATOM     13  H   LIG    1        0.002  -0.004   0.002  0.00  0.00    +0.440 HD
ATOM     14  C   LIG    1       -0.735   1.498  -1.179  0.00  0.00    +0.280 C 
ENDBRANCH   6   8
TORSDOF 1
