REMARK  Name = ZINCb70000002kmE.2
REMARK                            x       y       z     vdW  Elec       q    Type
REMARK                         _______ _______ _______ _____ _____    ______ ____
ROOT
ATOM      1  C   LIG    1        0.921   0.912  -5.837  0.00  0.00    +0.210 C 
ATOM      2  C   LIG    1        0.795   1.422  -4.424  0.00  0.00    +0.310 A 
ATOM      3  N   LIG    1       -0.145   1.101  -3.573  0.00  0.00    -0.530 NA
ATOM      4  C   LIG    1        0.053   1.738  -2.420  0.00  0.00    +0.220 A 
ATOM      5  N   LIG    1        1.131   2.471  -2.519  0.00  0.00    -0.310 NA
ATOM      6  N   LIG    1        1.633   2.280  -3.817  0.00  0.00    -0.470 N 
ATOM      7  H   LIG    1        2.425   2.688  -4.200  0.00  0.00    +0.450 HD
ENDROOT
BRANCH   4   8
ATOM      8  C   LIG    1       -0.821   1.628  -1.197  0.00  0.00    +0.120 C 
ATOM      9  C   LIG    1       -1.265   3.028  -0.714  0.00  0.00    +0.080 C 
ATOM     10  C   LIG    1       -1.197   2.963   0.823  0.00  0.00    +0.280 C 
ATOM     11  N   LIG    1       -0.766   1.593   1.183  0.00  0.00    -0.510 N 
ATOM     12  H   LIG    1       -0.168   1.616   1.996  0.00  0.00    +0.440 HD
ATOM     13  H   LIG    1       -1.571   1.011   1.359  0.00  0.00    +0.430 HD
ATOM     14  C   LIG    1       -0.013   1.086   0.008  0.00  0.00    +0.290 C 
ENDBRANCH   4   8
TORSDOF 1
