REMARK  Name = ZINCb70000002kmE.1
REMARK                            x       y       z     vdW  Elec       q    Type
REMARK                         _______ _______ _______ _____ _____    ______ ____
ROOT
ATOM      1  C   LIG    1        2.414   4.317   4.071  0.00  0.00    +0.210 C 
ATOM      2  C   LIG    1        1.550   3.207   3.532  0.00  0.00    +0.210 A 
ATOM      3  N   LIG    1        1.410   2.016   4.047  0.00  0.00    -0.280 NA
ATOM      4  N   LIG    1        0.598   1.325   3.328  0.00  0.00    -0.260 NA
ATOM      5  C   LIG    1        0.182   2.045   2.322  0.00  0.00    +0.150 A 
ATOM      6  N   LIG    1        0.778   3.257   2.419  0.00  0.00    -0.580 N 
ATOM      7  H   LIG    1        0.673   4.010   1.816  0.00  0.00    +0.430 HD
ENDROOT
BRANCH   5   8
ATOM      8  C   LIG    1       -0.778   1.605   1.246  0.00  0.00    +0.130 C 
ATOM      9  C   LIG    1       -0.013   1.086   0.008  0.00  0.00    +0.090 C 
ATOM     10  C   LIG    1       -0.799   1.616  -1.205  0.00  0.00    +0.270 C 
ATOM     11  N   LIG    1       -1.960   2.365  -0.676  0.00  0.00    -0.510 N 
ATOM     12  H   LIG    1       -2.767   1.762  -0.623  0.00  0.00    +0.440 HD
ATOM     13  H   LIG    1       -2.158   3.160  -1.264  0.00  0.00    +0.440 HD
ATOM     14  C   LIG    1       -1.565   2.817   0.682  0.00  0.00    +0.280 C 
ENDBRANCH   5   8
TORSDOF 1
