REMARK  Name = ZINCqH0000034kvk.0
REMARK                            x       y       z     vdW  Elec       q    Type
REMARK                         _______ _______ _______ _____ _____    ______ ____
ROOT
ATOM      1  C   LIG    1        2.558   3.819  -0.002  0.00  0.00    +0.490 C 
ATOM      2  N   LIG    1        1.313   3.303   0.007  0.00  0.00    -0.620 N 
ATOM      3  H   LIG    1        0.544   3.894   0.017  0.00  0.00    +0.430 HD
ATOM      4  O   LIG    1        3.520   3.080  -0.015  0.00  0.00    -0.470 OA
ENDROOT
BRANCH   2   5
ATOM      5  C   LIG    1        1.131   1.926   0.002  0.00  0.00    +0.270 A 
ATOM      6  N   LIG    1       -0.016   1.321   0.009  0.00  0.00    -0.500 NA
ATOM      7  C   LIG    1        0.002  -0.004   0.002  0.00  0.00    +0.130 A 
ATOM      8  C   LIG    1        1.225  -0.564  -0.013  0.00  0.00    -0.110 A 
ATOM      9  S   LIG    1        2.423   0.729  -0.017  0.00  0.00    +0.220 S 
BRANCH   7  10
ATOM     10  C   LIG    1       -1.241  -0.814   0.009  0.00  0.00    -0.070 A 
ATOM     11  C   LIG    1       -2.493  -0.193   0.024  0.00  0.00    +0.100 A 
ATOM     12  C   LIG    1       -3.622  -0.994   0.030  0.00  0.00    -0.030 A 
ATOM     13  C   LIG    1       -3.477  -2.369   0.020  0.00  0.00    +0.260 A 
ATOM     14  N   LIG    1       -2.282  -2.926   0.006  0.00  0.00    -0.480 NA
ATOM     15  C   LIG    1       -1.179  -2.206  -0.005  0.00  0.00    +0.280 A 
ENDBRANCH   7  10
ENDBRANCH   2   5
BRANCH   1  16
ATOM     16  C   LIG    1        2.756   5.313   0.004  0.00  0.00    +0.370 C 
BRANCH  16  25
ATOM     17  C   LIG    1        4.987   5.783   1.081  0.00  0.00    +0.300 A 
ATOM     18  N   LIG    1        6.207   6.038   0.707  0.00  0.00    -0.480 NA
ATOM     19  C   LIG    1        6.273   6.062  -0.649  0.00  0.00    +0.050 A 
ATOM     20  C   LIG    1        7.308   6.288  -1.560  0.00  0.00    +0.070 A 
ATOM     21  C   LIG    1        7.056   6.245  -2.902  0.00  0.00    +0.000 A 
ATOM     22  C   LIG    1        5.779   5.979  -3.374  0.00  0.00    +0.030 A 
ATOM     23  C   LIG    1        4.742   5.752  -2.494  0.00  0.00    +0.010 A 
ATOM     24  C   LIG    1        4.979   5.792  -1.127  0.00  0.00    +0.050 A 
ATOM     25  N   LIG    1        4.189   5.616  -0.009  0.00  0.00    -0.480 N 
BRANCH  17  27
ATOM     26  C   LIG    1        4.669   4.237   2.994  0.00  0.00    +0.050 C 
ATOM     27  C   LIG    1        4.526   5.683   2.512  0.00  0.00    +0.140 C 
ENDBRANCH  17  27
ENDBRANCH  16  25
ENDBRANCH   1  16
TORSDOF 5
