REMARK  Name = ZINCvU0000000DHy.0
REMARK                            x       y       z     vdW  Elec       q    Type
REMARK                         _______ _______ _______ _____ _____    ______ ____
ROOT
ATOM      1  C   LIG    1       -4.728  -3.890   0.293  0.00  0.00    +0.290 C 
ENDROOT
BRANCH   1   9
ATOM      2  C   LIG    1       -7.033  -4.373  -4.054  0.00  0.00    +0.120 A 
ATOM      3  C   LIG    1       -6.978  -4.751  -5.365  0.00  0.00    -0.030 A 
ATOM      4  C   LIG    1       -5.805  -5.265  -5.912  0.00  0.00    -0.030 A 
ATOM      5  C   LIG    1       -4.678  -5.405  -5.155  0.00  0.00    +0.130 A 
ATOM      6  C   LIG    1       -4.694  -5.027  -3.797  0.00  0.00    +0.160 A 
ATOM      7  N   LIG    1       -3.605  -5.152  -3.033  0.00  0.00    -0.440 NA
ATOM      8  C   LIG    1       -3.614  -4.796  -1.770  0.00  0.00    +0.210 A 
ATOM      9  C   LIG    1       -4.758  -4.281  -1.162  0.00  0.00    -0.160 A 
ATOM     10  C   LIG    1       -5.904  -4.127  -1.889  0.00  0.00    +0.140 A 
ATOM     11 CL   LIG    1       -2.165  -4.977  -0.831  0.00  0.00    -0.020 Cl
ATOM     12  C   LIG    1       -5.889  -4.505  -3.243  0.00  0.00    -0.090 A 
BRANCH   2  14
ATOM     13  C   LIG    1       -9.304  -3.770  -4.417  0.00  0.00    +0.250 C 
ATOM     14  O   LIG    1       -8.185  -3.873  -3.534  0.00  0.00    -0.310 OA
ENDBRANCH   2  14
BRANCH   5  15
ATOM     15  O   LIG    1       -3.543  -5.910  -5.709  0.00  0.00    -0.290 OA
ATOM     16  C   LIG    1       -3.600  -6.272  -7.090  0.00  0.00    +0.240 C 
ENDBRANCH   5  15
ENDBRANCH   1   9
BRANCH   1  17
ATOM     17  N   LIG    1       -4.244  -2.508   0.418  0.00  0.00    -0.510 NA
ATOM     18  C   LIG    1       -2.851  -2.395  -0.033  0.00  0.00    +0.220 C 
ATOM     19  C   LIG    1       -2.416  -0.958  -0.021  0.00  0.00    -0.050 C 
ATOM     20  C   LIG    1       -3.265   0.050   0.029  0.00  0.00    -0.030 C 
ATOM     21  C   LIG    1       -4.754  -0.148   0.091  0.00  0.00    +0.080 C 
ATOM     22  C   LIG    1       -5.102  -1.579  -0.335  0.00  0.00    +0.170 C 
BRANCH  20  23
ATOM     23  C   LIG    1       -2.733   1.423   0.030  0.00  0.00    -0.180 A 
ATOM     24  C   LIG    1       -1.889   2.002  -0.906  0.00  0.00    +0.240 A 
ATOM     25  N   LIG    1       -1.632   3.258  -0.559  0.00  0.00    -0.550 NA
ATOM     26  C   LIG    1       -2.244   3.602   0.564  0.00  0.00    +0.260 A 
ATOM     27  N   LIG    1       -2.282   4.760   1.298  0.00  0.00    -0.500 N 
ATOM     28  H   LIG    1       -1.782   5.535   0.997  0.00  0.00    +0.420 HD
ATOM     29  C   LIG    1       -3.004   4.833   2.428  0.00  0.00    +0.330 A 
ATOM     30  C   LIG    1       -3.721   3.773   2.890  0.00  0.00    -0.080 A 
ATOM     31  C   LIG    1       -3.723   2.569   2.191  0.00  0.00    +0.180 A 
ATOM     32  C   LIG    1       -2.978   2.475   1.023  0.00  0.00    -0.150 A 
ENDBRANCH  20  23
ENDBRANCH   1  17
TORSDOF 5
