REMARK  Name = ZINCpk00000xIbTU.0
REMARK                            x       y       z     vdW  Elec       q    Type
REMARK                         _______ _______ _______ _____ _____    ______ ____
ROOT
ATOM      1  N   LIG    1        3.816  -2.202   0.056  0.00  0.00    -0.650 N 
ATOM      2  H   LIG    1        3.038  -2.780   0.038  0.00  0.00    +0.420 HD
ATOM      3  C   LIG    1        3.680  -0.882  -0.180  0.00  0.00    +0.550 C 
ATOM      4  O   LIG    1        4.666  -0.170  -0.244  0.00  0.00    -0.540 OA
ENDROOT
BRANCH   1  11
ATOM      5  C   LIG    1        5.215  -3.801   1.219  0.00  0.00    +0.070 A 
ATOM      6  C   LIG    1        6.470  -4.332   1.477  0.00  0.00    -0.050 A 
ATOM      7  C   LIG    1        7.587  -3.798   0.859  0.00  0.00    +0.010 A 
ATOM      8  C   LIG    1        7.455  -2.740  -0.021  0.00  0.00    +0.050 A 
ATOM      9  C   LIG    1        6.207  -2.209  -0.289  0.00  0.00    +0.040 A 
ATOM     10 CL   LIG    1        6.641  -5.661   2.581  0.00  0.00    -0.060 Cl
ATOM     11  C   LIG    1        5.082  -2.738   0.326  0.00  0.00    +0.180 A 
BRANCH   5  13
ATOM     12  C   LIG    1        3.896  -5.747   1.483  0.00  0.00    +0.210 C 
ATOM     13  N   LIG    1        4.084  -4.336   1.847  0.00  0.00    -0.500 N 
ATOM     14  C   LIG    1        4.166  -4.175   3.305  0.00  0.00    +0.200 C 
ENDBRANCH   5  13
ENDBRANCH   1  11
BRANCH   3  15
ATOM     15  C   LIG    1        2.391  -0.323  -0.354  0.00  0.00    -0.070 C 
ATOM     16  C   LIG    1        2.254   1.002  -0.591  0.00  0.00    +0.160 C 
BRANCH  16  17
ATOM     17  C   LIG    1        0.918   1.600  -0.661  0.00  0.00    -0.250 A 
ATOM     18  C   LIG    1        0.756   2.968  -0.789  0.00  0.00    +0.390 A 
ATOM     19  N   LIG    1       -0.500   3.486  -0.850  0.00  0.00    -0.530 N 
ATOM     20  C   LIG    1       -1.586   2.700  -0.788  0.00  0.00    +0.690 A 
ATOM     21  N   LIG    1       -1.498   1.365  -0.669  0.00  0.00    -0.550 N 
ATOM     22  C   LIG    1       -2.719   0.557  -0.613  0.00  0.00    +0.340 C 
ATOM     23  O   LIG    1       -2.687   3.213  -0.847  0.00  0.00    -0.530 OA
ATOM     24  C   LIG    1       -0.671   4.934  -0.987  0.00  0.00    +0.360 C 
ATOM     25  C   LIG    1       -0.292   0.762  -0.595  0.00  0.00    +0.560 A 
ATOM     26  O   LIG    1       -0.206  -0.446  -0.482  0.00  0.00    -0.490 OA
ENDBRANCH  16  17
ENDBRANCH   3  15
TORSDOF 4
