REMARK  Name = ZINCpe00000MJJ5W.0
REMARK                            x       y       z     vdW  Elec       q    Type
REMARK                         _______ _______ _______ _____ _____    ______ ____
ROOT
ATOM      1  C   LIG    1       -0.125  -0.162  -6.354  0.00  0.00    +0.170 C 
ATOM      2  C   LIG    1       -1.099   0.180  -5.206  0.00  0.00    +0.160 C 
ATOM      3  N   LIG    1       -0.822   1.605  -4.891  0.00  0.00    -0.480 NA
ATOM      4  C   LIG    1        0.655   1.720  -4.994  0.00  0.00    +0.190 C 
ATOM      5  C   LIG    1        1.030   0.852  -6.214  0.00  0.00    +0.120 C 
ENDROOT
BRANCH   5   6
ATOM      6  C   LIG    1        2.330   0.133  -5.966  0.00  0.00    -0.010 A 
ATOM      7  C   LIG    1        2.812  -0.279  -4.770  0.00  0.00    +0.140 A 
ATOM      8  N   LIG    1        3.999  -0.875  -5.028  0.00  0.00    -0.290 N 
ATOM      9  N   LIG    1        4.216  -0.814  -6.295  0.00  0.00    -0.080 NA
ATOM     10  C   LIG    1        4.889  -1.480  -4.034  0.00  0.00    +0.370 C 
ATOM     11  N   LIG    1        3.239  -0.218  -6.883  0.00  0.00    -0.260 NA
ENDBRANCH   5   6
BRANCH   1  13
ATOM     12  C   LIG    1       -1.393  -1.197  -8.104  0.00  0.00    +0.200 C 
ATOM     13  O   LIG    1       -0.772  -0.005  -7.618  0.00  0.00    -0.370 OA
ENDBRANCH   1  13
BRANCH   3  14
ATOM     14  C   LIG    1       -1.284   1.944  -3.538  0.00  0.00    +0.210 C 
BRANCH  14  15
ATOM     15  C   LIG    1       -0.911   3.370  -3.224  0.00  0.00    +0.520 C 
ATOM     16  N   LIG    1       -1.174   3.881  -2.005  0.00  0.00    -0.550 N 
ATOM     17  C   LIG    1       -0.860   5.249  -1.582  0.00  0.00    +0.280 C 
ATOM     18  C   LIG    1       -1.350   5.347  -0.128  0.00  0.00    +0.090 C 
ATOM     19  C   LIG    1       -1.923   3.977   0.171  0.00  0.00    -0.130 A 
ATOM     20  C   LIG    1       -2.507   3.471   1.316  0.00  0.00    +0.060 A 
ATOM     21  C   LIG    1       -2.962   2.165   1.344  0.00  0.00    -0.010 A 
ATOM     22  C   LIG    1       -2.831   1.367   0.223  0.00  0.00    +0.050 A 
ATOM     23  C   LIG    1       -2.249   1.869  -0.922  0.00  0.00    -0.030 A 
ATOM     24  C   LIG    1       -1.787   3.185  -0.958  0.00  0.00    +0.140 A 
ATOM     25  O   LIG    1       -0.375   4.057  -4.067  0.00  0.00    -0.490 OA
ENDBRANCH  14  15
ENDBRANCH   3  14
TORSDOF 4
