REMARK  Name = ZINCvU00000004bG.0
REMARK                            x       y       z     vdW  Elec       q    Type
REMARK                         _______ _______ _______ _____ _____    ______ ____
ROOT
ATOM      1  N   LIG    1        0.009  -0.111  -7.768  0.00  0.00    -0.660 N 
ATOM      2  H   LIG    1        0.261  -0.624  -8.552  0.00  0.00    +0.410 HD
ATOM      3  C   LIG    1       -0.781   0.973  -7.896  0.00  0.00    +0.560 C 
ATOM      4  O   LIG    1       -1.017   1.670  -6.929  0.00  0.00    -0.490 OA
ENDROOT
BRANCH   3   5
ATOM      5  C   LIG    1       -1.361   1.316  -9.218  0.00  0.00    -0.030 A 
ATOM      6  C   LIG    1       -2.175   2.429  -9.361  0.00  0.00    +0.010 A 
ATOM      7  C   LIG    1       -2.713   2.733 -10.625  0.00  0.00    +0.520 A 
ATOM      8  N   LIG    1       -2.441   1.952 -11.686  0.00  0.00    -0.600 N 
ATOM      9  H   LIG    1       -2.819   2.173 -12.551  0.00  0.00    +0.420 HD
ATOM     10  C   LIG    1       -1.641   0.851 -11.562  0.00  0.00    +0.220 A 
ATOM     11  O   LIG    1       -3.430   3.711 -10.759  0.00  0.00    -0.530 OA
ATOM     12  C   LIG    1       -1.089   0.519 -10.345  0.00  0.00    -0.060 A 
BRANCH  10  13
ATOM     13  C   LIG    1       -1.361   0.012 -12.746  0.00  0.00    -0.080 A 
ATOM     14  C   LIG    1       -0.540  -1.111 -12.632  0.00  0.00    +0.050 A 
ATOM     15  C   LIG    1       -0.287  -1.893 -13.740  0.00  0.00    +0.010 A 
ATOM     16  C   LIG    1       -0.836  -1.559 -14.966  0.00  0.00    +0.030 A 
ATOM     17  C   LIG    1       -1.645  -0.443 -15.087  0.00  0.00    +0.020 A 
ATOM     18  C   LIG    1       -1.911   0.344 -13.986  0.00  0.00    +0.020 A 
ENDBRANCH  10  13
ENDBRANCH   3   5
BRANCH   1  23
ATOM     19  C   LIG    1        0.125  -0.679  -4.138  0.00  0.00    -0.070 A 
ATOM     20  C   LIG    1        1.371  -1.263  -4.004  0.00  0.00    +0.020 A 
ATOM     21  C   LIG    1        2.166  -1.466  -5.117  0.00  0.00    +0.030 A 
ATOM     22  C   LIG    1        1.718  -1.085  -6.366  0.00  0.00    -0.010 A 
ATOM     23  C   LIG    1        0.467  -0.498  -6.504  0.00  0.00    +0.140 A 
ATOM     24  C   LIG    1       -0.332  -0.301  -5.385  0.00  0.00    +0.040 A 
BRANCH  19  25
ATOM     25  C   LIG    1       -0.738  -0.460  -2.922  0.00  0.00    +0.220 C 
BRANCH  25  26
ATOM     26  O   LIG    1       -0.459   0.826  -2.365  0.00  0.00    -0.370 OA
BRANCH  26  32
ATOM     27  C   LIG    1       -2.493   4.490   0.203  0.00  0.00    +0.030 C 
ATOM     28  C   LIG    1       -2.273   2.978   0.124  0.00  0.00    -0.020 C 
ATOM     29  C   LIG    1       -1.523   2.506   1.371  0.00  0.00    +0.000 C 
ATOM     30  C   LIG    1       -1.303   0.994   1.292  0.00  0.00    +0.010 C 
ATOM     31  C   LIG    1       -0.479   0.663   0.046  0.00  0.00    -0.010 C 
ATOM     32  C   LIG    1       -1.229   1.135  -1.201  0.00  0.00    +0.150 C 
ATOM     33  C   LIG    1       -1.449   2.647  -1.122  0.00  0.00    +0.030 C 
ENDBRANCH  26  32
ENDBRANCH  25  26
ENDBRANCH  19  25
ENDBRANCH   1  23
TORSDOF 6
