REMARK  Name = ZINCqH0000007mKe.0
REMARK                            x       y       z     vdW  Elec       q    Type
REMARK                         _______ _______ _______ _____ _____    ______ ____
ROOT
ATOM      1  S   LIG    1       -0.080   0.571   0.192  0.00  0.00    +2.690 S 
ATOM      2  O   LIG    1        1.116   0.043  -0.365  0.00  0.00    -0.940 OA
ATOM      3  O   LIG    1       -1.375   0.229  -0.282  0.00  0.00    -0.940 OA
ENDROOT
BRANCH   1   7
ATOM      4  C   LIG    1        0.237   5.082  -0.119  0.00  0.00    +0.150 A 
ATOM      5  C   LIG    1       -1.005   4.476  -0.032  0.00  0.00    -0.070 A 
ATOM      6  C   LIG    1       -1.098   3.099   0.058  0.00  0.00    +0.150 A 
ATOM      7  C   LIG    1        0.046   2.324   0.071  0.00  0.00    -0.690 A 
ATOM      8  C   LIG    1        1.290   2.921  -0.015  0.00  0.00    +0.170 A 
ATOM      9  C   LIG    1        1.391   4.301  -0.111  0.00  0.00    +0.100 A 
BRANCH   9  10
ATOM     10  N   LIG    1        2.651   4.909  -0.199  0.00  0.00    -0.660 N 
ATOM     11  H   LIG    1        2.767   5.828   0.089  0.00  0.00    +0.420 HD
ATOM     12  C   LIG    1        3.701   4.216  -0.682  0.00  0.00    +0.510 C 
ATOM     13  O   LIG    1        3.536   3.104  -1.137  0.00  0.00    -0.520 OA
ATOM     14  C   LIG    1        5.080   4.824  -0.657  0.00  0.00    +0.110 C 
ENDBRANCH   9  10
BRANCH   4  16
ATOM     15  C   LIG    1       -0.895   7.171  -0.215  0.00  0.00    +0.250 C 
ATOM     16  O   LIG    1        0.330   6.435  -0.213  0.00  0.00    -0.310 OA
ENDBRANCH   4  16
ENDBRANCH   1   7
BRANCH   1  17
ATOM     17  N   LIG    1       -0.055   0.188   1.803  0.00  0.00    -1.000 NA
ATOM     18  C   LIG    1        1.207  -0.183   2.448  0.00  0.00    +0.300 C 
BRANCH  17  19
ATOM     19  C   LIG    1       -1.295   0.219   2.583  0.00  0.00    +0.360 C 
BRANCH  19  20
ATOM     20  C   LIG    1       -1.835  -1.181   2.724  0.00  0.00    -0.080 A 
ATOM     21  C   LIG    1       -1.110  -2.253   2.240  0.00  0.00    +0.040 A 
ATOM     22  C   LIG    1       -1.605  -3.538   2.370  0.00  0.00    +0.040 A 
ATOM     23  C   LIG    1       -2.825  -3.751   2.983  0.00  0.00    +0.040 A 
ATOM     24  C   LIG    1       -3.552  -2.679   3.467  0.00  0.00    -0.030 A 
ATOM     25 CL   LIG    1       -5.085  -2.945   4.237  0.00  0.00    -0.050 Cl
ATOM     26  C   LIG    1       -3.054  -1.393   3.342  0.00  0.00    -0.030 A 
ATOM     27 CL   LIG    1       -3.963  -0.046   3.956  0.00  0.00    -0.050 Cl
ENDBRANCH  19  20
ENDBRANCH  17  19
ENDBRANCH   1  17
TORSDOF 6
