REMARK  Name = ZINCvU00000003WH.0
REMARK                            x       y       z     vdW  Elec       q    Type
REMARK                         _______ _______ _______ _____ _____    ______ ____
ROOT
ATOM      1  C   LIG    1       -3.640  -4.931  -0.204  0.00  0.00    +0.240 C 
ENDROOT
BRANCH   1   2
ATOM      2  C   LIG    1       -4.475  -4.677   1.025  0.00  0.00    -0.130 A 
ATOM      3  C   LIG    1       -4.209  -5.364   2.195  0.00  0.00    +0.010 A 
ATOM      4  C   LIG    1       -4.973  -5.128   3.323  0.00  0.00    +0.020 A 
ATOM      5  C   LIG    1       -6.007  -4.212   3.279  0.00  0.00    +0.020 A 
ATOM      6  C   LIG    1       -6.276  -3.530   2.107  0.00  0.00    +0.020 A 
ATOM      7  C   LIG    1       -5.510  -3.762   0.980  0.00  0.00    +0.020 A 
ENDBRANCH   1   2
BRANCH   1  10
ATOM      8  N   LIG    1       -2.366  -2.821   0.010  0.00  0.00    -0.670 N 
ATOM      9  H   LIG    1       -3.212  -2.354   0.098  0.00  0.00    +0.410 HD
ATOM     10  C   LIG    1       -2.347  -4.164  -0.099  0.00  0.00    +0.520 C 
ATOM     11  O   LIG    1       -1.288  -4.756  -0.113  0.00  0.00    -0.480 OA
BRANCH   8  16
ATOM     12  C   LIG    1        1.089  -1.830  -0.778  0.00  0.00    +0.150 A 
ATOM     13  C   LIG    1        1.207  -0.672  -0.023  0.00  0.00    -0.100 A 
ATOM     14  C   LIG    1        0.138  -0.226   0.732  0.00  0.00    +0.070 A 
ATOM     15  C   LIG    1       -1.045  -0.938   0.746  0.00  0.00    -0.050 A 
ATOM     16  C   LIG    1       -1.167  -2.101  -0.004  0.00  0.00    +0.190 A 
ATOM     17  C   LIG    1       -0.097  -2.547  -0.767  0.00  0.00    -0.020 A 
BRANCH  12  19
ATOM     18  C   LIG    1        3.330  -1.476  -1.489  0.00  0.00    +0.250 C 
ATOM     19  O   LIG    1        2.139  -2.264  -1.524  0.00  0.00    -0.310 OA
ENDBRANCH  12  19
ENDBRANCH   8  16
ENDBRANCH   1  10
BRANCH   1  20
ATOM     20  N   LIG    1       -3.351  -6.367  -0.312  0.00  0.00    -0.660 NA
ATOM     21  H   LIG    1       -3.167  -6.768   0.596  0.00  0.00    +0.350 HD
BRANCH  20  22
ATOM     22  C   LIG    1       -4.447  -7.075  -0.987  0.00  0.00    +0.280 C 
BRANCH  22  23
ATOM     23  C   LIG    1       -4.115  -8.542  -1.079  0.00  0.00    -0.170 A 
ATOM     24  C   LIG    1       -4.426  -9.459  -0.160  0.00  0.00    +0.010 A 
ATOM     25  C   LIG    1       -4.024 -10.746  -0.457  0.00  0.00    +0.050 A 
ATOM     26  C   LIG    1       -3.370 -10.874  -1.629  0.00  0.00    -0.130 A 
ATOM     27  S   LIG    1       -3.254  -9.303  -2.410  0.00  0.00    +0.160 S 
BRANCH  26  28
ATOM     28  C   LIG    1       -2.834 -12.141  -2.173  0.00  0.00    +0.140 A 
ATOM     29  C   LIG    1       -2.189 -12.218  -3.357  0.00  0.00    -0.080 A 
ATOM     30  S   LIG    1       -1.723 -13.897  -3.611  0.00  0.00    +0.140 S 
ATOM     31  C   LIG    1       -2.439 -14.335  -2.122  0.00  0.00    +0.050 A 
ATOM     32  C   LIG    1       -2.470 -15.735  -1.563  0.00  0.00    +0.180 C 
ATOM     33  N   LIG    1       -2.948 -13.303  -1.544  0.00  0.00    -0.460 NA
ENDBRANCH  26  28
ENDBRANCH  22  23
ENDBRANCH  20  22
ENDBRANCH   1  20
TORSDOF 8
