REMARK  Name = ZINCpe00000VVGE8.0
REMARK                            x       y       z     vdW  Elec       q    Type
REMARK                         _______ _______ _______ _____ _____    ______ ____
ROOT
ATOM      1  C   LIG    1       -1.407  -0.243   2.990  0.00  0.00    +0.150 C 
ATOM      2  C   LIG    1       -1.403   0.321   4.413  0.00  0.00    +0.170 C 
ATOM      3  N   LIG    1       -2.783   0.371   4.919  0.00  0.00    -0.520 NA
ATOM      4  C   LIG    1       -3.390  -0.968   4.909  0.00  0.00    +0.160 C 
ATOM      5  C   LIG    1       -3.374  -1.519   3.481  0.00  0.00    +0.230 C 
ATOM      6  O   LIG    1       -2.030  -1.531   2.995  0.00  0.00    -0.370 OA
ENDROOT
BRANCH   1   7
ATOM      7  C   LIG    1        0.032  -0.373   2.487  0.00  0.00    +0.360 C 
BRANCH   7  11
ATOM      8  C   LIG    1        0.028  -3.225  -1.639  0.00  0.00    +0.190 C 
ATOM      9  C   LIG    1        0.022  -2.048  -0.698  0.00  0.00    +0.220 A 
ATOM     10  N   LIG    1        0.036  -2.120   0.607  0.00  0.00    -0.300 NA
ATOM     11  N   LIG    1        0.023  -0.799   1.086  0.00  0.00    -0.370 N 
ATOM     12  C   LIG    1        0.002  -0.004   0.002  0.00  0.00    +0.270 A 
ATOM     13  C   LIG    1       -0.018   1.503   0.010  0.00  0.00    +0.190 C 
ATOM     14  N   LIG    1       -0.003  -0.767  -1.061  0.00  0.00    -0.540 NA
ENDBRANCH   7  11
ENDBRANCH   1   7
BRANCH   3  15
ATOM     15  C   LIG    1       -2.829   0.960   6.264  0.00  0.00    +0.220 C 
BRANCH  15  16
ATOM     16  C   LIG    1       -4.263   1.222   6.649  0.00  0.00    +0.520 C 
ATOM     17  N   LIG    1       -4.550   1.764   7.848  0.00  0.00    -0.620 N 
ATOM     18  C   LIG    1       -3.469   2.099   8.779  0.00  0.00    +0.280 C 
ATOM     19  O   LIG    1       -5.157   0.944   5.878  0.00  0.00    -0.510 OA
BRANCH  17  20
ATOM     20  C   LIG    1       -5.944   2.018   8.222  0.00  0.00    +0.410 C 
BRANCH  20  21
ATOM     21  C   LIG    1       -6.506   0.805   8.918  0.00  0.00    -0.040 A 
ATOM     22  C   LIG    1       -6.470   0.569  10.241  0.00  0.00    -0.050 A 
ATOM     23  C   LIG    1       -7.108  -0.675  10.454  0.00  0.00    -0.070 A 
ATOM     24  C   LIG    1       -7.497  -1.124   9.247  0.00  0.00    +0.170 A 
ATOM     25  O   LIG    1       -7.135  -0.222   8.321  0.00  0.00    -0.160 OA
ENDBRANCH  20  21
ENDBRANCH  17  20
ENDBRANCH  15  16
ENDBRANCH   3  15
TORSDOF 6
