REMARK  Name = ZINCkj000005ku67.0
REMARK                            x       y       z     vdW  Elec       q    Type
REMARK                         _______ _______ _______ _____ _____    ______ ____
ROOT
ATOM      1  N   LIG    1       -4.168  -0.267   0.980  0.00  0.00    -0.490 N 
ATOM      2  H   LIG    1       -5.032   0.239   0.858  0.00  0.00    +0.430 HD
ATOM      3  H   LIG    1       -3.748  -0.007   1.860  0.00  0.00    +0.430 HD
ENDROOT
BRANCH   1   4
ATOM      4  C   LIG    1       -3.248   0.061  -0.117  0.00  0.00    +0.170 C 
ATOM      5  C   LIG    1       -3.933  -0.217  -1.457  0.00  0.00    +0.100 C 
BRANCH   4   6
ATOM      6  C   LIG    1       -2.866   1.540  -0.037  0.00  0.00    +0.130 C 
BRANCH   6  13
ATOM      7  C   LIG    1       -0.013   1.086   0.008  0.00  0.00    +0.090 C 
ATOM      8  C   LIG    1       -0.718   1.572   1.248  0.00  0.00    -0.070 A 
ATOM      9  C   LIG    1        0.001   1.806   2.405  0.00  0.00    +0.020 A 
ATOM     10  C   LIG    1       -0.646   2.252   3.542  0.00  0.00    +0.030 A 
ATOM     11  C   LIG    1       -2.012   2.464   3.522  0.00  0.00    +0.020 A 
ATOM     12  C   LIG    1       -2.731   2.230   2.365  0.00  0.00    -0.010 A 
ATOM     13  C   LIG    1       -2.083   1.789   1.226  0.00  0.00    -0.140 A 
ENDBRANCH   6  13
ENDBRANCH   4   6
ENDBRANCH   1   4
BRANCH   1  14
ATOM     14  C   LIG    1       -4.441  -1.711   0.976  0.00  0.00    +0.290 C 
BRANCH  14  15
ATOM     15  C   LIG    1       -5.384  -2.047   2.102  0.00  0.00    +0.500 C 
ATOM     16  N   LIG    1       -5.777  -3.322   2.293  0.00  0.00    -0.590 N 
ATOM     17  C   LIG    1       -5.304  -4.401   1.411  0.00  0.00    +0.250 C 
ATOM     18  C   LIG    1       -4.763  -5.538   2.293  0.00  0.00    +0.220 C 
ATOM     19  O   LIG    1       -5.755  -5.896   3.258  0.00  0.00    -0.370 OA
ATOM     20  C   LIG    1       -6.092  -4.846   4.168  0.00  0.00    +0.230 C 
ATOM     21  C   LIG    1       -6.697  -3.675   3.385  0.00  0.00    +0.270 C 
ATOM     22  O   LIG    1       -5.789  -1.171   2.836  0.00  0.00    -0.530 OA
ENDBRANCH  14  15
ENDBRANCH   1  14
TORSDOF 5
