REMARK  Name = ZINCnE000001CHHs.0
REMARK                            x       y       z     vdW  Elec       q    Type
REMARK                         _______ _______ _______ _____ _____    ______ ____
ROOT
ATOM      1  C   LIG    1        0.009   6.236   0.036  0.00  0.00    +0.460 C 
ATOM      2  N   LIG    1       -0.887   5.229   0.039  0.00  0.00    -0.680 NA
ATOM      3  O   LIG    1        1.197   5.991   0.023  0.00  0.00    -0.580 OA
ENDROOT
BRANCH   2   4
ATOM      4  C   LIG    1       -0.450   3.909   0.027  0.00  0.00    +0.290 A 
ATOM      5  N   LIG    1        0.790   3.523   0.013  0.00  0.00    -0.370 NA
ATOM      6  N   LIG    1        1.017   2.281   0.005  0.00  0.00    -0.230 NA
ATOM      7  C   LIG    1       -0.018   1.503   0.010  0.00  0.00    -0.080 A 
ATOM      8  S   LIG    1       -1.457   2.524   0.022  0.00  0.00    -0.010 S 
BRANCH   7   9
ATOM      9  C   LIG    1        0.002  -0.004   0.002  0.00  0.00    +0.140 C 
BRANCH   9  10
ATOM     10  C   LIG    1        0.022  -0.522   1.442  0.00  0.00    -0.020 C 
ATOM     11  C   LIG    1        0.169  -2.045   1.434  0.00  0.00    +0.010 C 
ATOM     12  C   LIG    1       -1.284  -0.139   2.140  0.00  0.00    +0.010 C 
ENDBRANCH   9  10
ENDBRANCH   7   9
ENDBRANCH   2   4
BRANCH   1  13
ATOM     13  C   LIG    1       -0.465   7.667   0.049  0.00  0.00    +0.050 C 
BRANCH  13  14
ATOM     14  C   LIG    1        0.744   8.605   0.042  0.00  0.00    +0.160 C 
BRANCH  14  18
ATOM     15  C   LIG    1       -0.405  12.086   0.676  0.00  0.00    -0.280 A 
ATOM     16  C   LIG    1       -0.389  12.005  -0.690  0.00  0.00    +0.070 A 
ATOM     17  O   LIG    1        0.020  10.781  -1.033  0.00  0.00    -0.170 OA
ATOM     18  C   LIG    1        0.270  10.035   0.054  0.00  0.00    +0.010 A 
ATOM     19  C   LIG    1       -0.763  13.110  -1.644  0.00  0.00    +0.190 C 
ATOM     20  C   LIG    1        0.036  10.766   1.154  0.00  0.00    -0.020 A 
BRANCH  15  22
ATOM     21  C   LIG    1       -0.740  13.154   2.995  0.00  0.00    +0.070 C 
ATOM     22  C   LIG    1       -0.782  13.245   1.491  0.00  0.00    +0.430 C 
ATOM     23  O   LIG    1       -1.128  14.277   0.955  0.00  0.00    -0.470 OA
ENDBRANCH  15  22
ENDBRANCH  14  18
ENDBRANCH  13  14
ENDBRANCH   1  13
TORSDOF 7
