REMARK  Name = ZINCrH00000tj1i4.0
REMARK                            x       y       z     vdW  Elec       q    Type
REMARK                         _______ _______ _______ _____ _____    ______ ____
ROOT
ATOM      1  N   LIG    1       -3.640   1.805   0.028  0.00  0.00    -0.520 N 
ATOM      2  C   LIG    1       -2.515   1.055   0.019  0.00  0.00    +0.560 A 
ATOM      3  C   LIG    1       -1.226   1.761   0.017  0.00  0.00    -0.200 A 
ATOM      4  C   LIG    1       -0.013   1.076   0.008  0.00  0.00    +0.100 A 
ATOM      5  C   LIG    1        1.168   1.785   0.001  0.00  0.00    -0.010 A 
ATOM      6  C   LIG    1        1.158   3.174   0.009  0.00  0.00    +0.060 A 
ATOM      7  C   LIG    1       -0.029   3.871   0.023  0.00  0.00    +0.020 A 
ATOM      8  C   LIG    1       -1.240   3.175   0.031  0.00  0.00    +0.170 A 
ATOM      9  N   LIG    1       -2.429   3.822   0.045  0.00  0.00    -0.540 NA
ATOM     10  O   LIG    1       -2.567  -0.161   0.013  0.00  0.00    -0.500 OA
ATOM     11  C   LIG    1       -3.565   3.169   0.035  0.00  0.00    +0.360 A 
ENDROOT
BRANCH   1  12
ATOM     12  C   LIG    1       -4.951   1.150   0.030  0.00  0.00    +0.220 C 
ATOM     13  C   LIG    1       -5.079   0.270   1.275  0.00  0.00    +0.050 C 
BRANCH  12  15
ATOM     14  C   LIG    1       -5.087   1.179  -2.464  0.00  0.00    +0.020 C 
ATOM     15  C   LIG    1       -5.090   0.284  -1.223  0.00  0.00    +0.040 C 
ENDBRANCH  12  15
ENDBRANCH   1  12
BRANCH  11  16
ATOM     16  S   LIG    1       -5.065   4.093   0.045  0.00  0.00    +0.080 S 
BRANCH  16  17
ATOM     17  C   LIG    1       -4.398   5.776   0.051  0.00  0.00    +0.110 C 
BRANCH  17  18
ATOM     18  C   LIG    1       -5.533   6.766   0.061  0.00  0.00    +0.530 C 
ATOM     19  N   LIG    1       -5.274   8.089   0.067  0.00  0.00    -0.610 N 
ATOM     20  C   LIG    1       -3.888   8.563   0.064  0.00  0.00    +0.300 C 
ATOM     21  O   LIG    1       -6.681   6.374   0.063  0.00  0.00    -0.510 OA
BRANCH  19  22
ATOM     22  C   LIG    1       -6.378   9.052   0.076  0.00  0.00    +0.420 C 
BRANCH  22  23
ATOM     23  C   LIG    1       -6.751   9.375   1.500  0.00  0.00    -0.040 A 
ATOM     24  C   LIG    1       -6.224  10.362   2.246  0.00  0.00    -0.040 A 
ATOM     25  C   LIG    1       -6.861  10.306   3.507  0.00  0.00    -0.070 A 
ATOM     26  C   LIG    1       -7.732   9.282   3.459  0.00  0.00    +0.170 A 
ATOM     27  O   LIG    1       -7.661   8.722   2.240  0.00  0.00    -0.160 OA
ENDBRANCH  22  23
ENDBRANCH  19  22
ENDBRANCH  17  18
ENDBRANCH  16  17
ENDBRANCH  11  16
TORSDOF 7
