REMARK  Name = ZINCnE000001NZX1.0
REMARK                            x       y       z     vdW  Elec       q    Type
REMARK                         _______ _______ _______ _____ _____    ______ ____
ROOT
ATOM      1  N   LIG    1       -2.539   5.343   5.953  0.00  0.00    -0.680 NA
ATOM      2  C   LIG    1       -2.184   5.233   4.674  0.00  0.00    +0.360 A 
ATOM      3  N   LIG    1       -2.997   5.225   3.599  0.00  0.00    -0.420 NA
ATOM      4  N   LIG    1       -2.389   5.104   2.369  0.00  0.00    -0.260 NA
ATOM      5  C   LIG    1       -1.102   4.999   2.351  0.00  0.00    -0.020 A 
ATOM      6  S   LIG    1       -0.589   5.070   4.045  0.00  0.00    -0.090 S 
ENDROOT
BRANCH   5   7
ATOM      7  C   LIG    1       -0.218   4.852   1.139  0.00  0.00    +0.100 C 
ATOM      8  C   LIG    1        0.068   3.369   0.887  0.00  0.00    +0.010 C 
ATOM      9  C   LIG    1        0.900   3.227  -0.390  0.00  0.00    +0.200 C 
ATOM     10  O   LIG    1        0.198   3.820  -1.484  0.00  0.00    -0.390 OA
ATOM     11  C   LIG    1       -0.055   5.218  -1.325  0.00  0.00    +0.200 C 
ATOM     12  C   LIG    1       -0.927   5.439  -0.086  0.00  0.00    +0.010 C 
ENDBRANCH   5   7
BRANCH   1  14
ATOM     13  N   LIG    1       -4.188   5.574   7.574  0.00  0.00    -0.620 N 
ATOM     14  C   LIG    1       -3.829   5.463   6.280  0.00  0.00    +0.670 C 
ATOM     15  O   LIG    1       -4.681   5.471   5.408  0.00  0.00    -0.610 OA
ATOM     16  C   LIG    1       -3.179   5.446   8.629  0.00  0.00    +0.260 C 
BRANCH  13  22
ATOM     17  C   LIG    1       -5.692   9.556   6.986  0.00  0.00    +0.010 C 
ATOM     18  C   LIG    1       -5.211   8.282   7.682  0.00  0.00    -0.020 C 
ATOM     19  C   LIG    1       -5.333   8.452   9.197  0.00  0.00    -0.010 C 
ATOM     20  C   LIG    1       -4.851   7.177   9.894  0.00  0.00    -0.000 C 
ATOM     21  C   LIG    1       -5.710   5.994   9.443  0.00  0.00    +0.010 C 
ATOM     22  C   LIG    1       -5.588   5.824   7.927  0.00  0.00    +0.230 C 
ATOM     23  C   LIG    1       -6.070   7.099   7.231  0.00  0.00    +0.020 C 
ENDBRANCH  13  22
ENDBRANCH   1  14
TORSDOF 3
