REMARK  Name = ZINCqH0000033MGe.0
REMARK                            x       y       z     vdW  Elec       q    Type
REMARK                         _______ _______ _______ _____ _____    ______ ____
ROOT
ATOM      1  C   LIG    1       -0.010   1.520  -0.082  0.00  0.00    +0.110 C 
ENDROOT
BRANCH   1   2
ATOM      2  C   LIG    1        1.401   2.050  -0.088  0.00  0.00    +0.460 C 
ATOM      3  O   LIG    1        2.333   1.286  -0.177  0.00  0.00    -0.480 OA
BRANCH   2   4
ATOM      4  O   LIG    1        1.623   3.371   0.005  0.00  0.00    -0.280 OA
BRANCH   4   5
ATOM      5  C   LIG    1        2.917   3.774   0.100  0.00  0.00    +0.080 A 
ATOM      6  C   LIG    1        3.484   3.990   1.348  0.00  0.00    +0.070 A 
ATOM      7  C   LIG    1        4.798   4.395   1.450  0.00  0.00    +0.060 A 
ATOM      8  C   LIG    1        5.558   4.598   0.296  0.00  0.00    +0.020 A 
ATOM      9  C   LIG    1        4.985   4.385  -0.961  0.00  0.00    +0.000 A 
ATOM     10  C   LIG    1        3.669   3.974  -1.056  0.00  0.00    +0.130 A 
BRANCH   8  11
ATOM     11  C   LIG    1        6.921   5.024   0.400  0.00  0.00    +0.250 C 
ATOM     12  N   LIG    1        8.003   5.361   0.483  0.00  0.00    -0.400 NA
ENDBRANCH   8  11
BRANCH  10  13
ATOM     13  O   LIG    1        3.109   3.766  -2.277  0.00  0.00    -0.300 OA
ATOM     14  C   LIG    1        3.939   3.990  -3.419  0.00  0.00    +0.250 C 
ENDBRANCH  10  13
ENDBRANCH   4   5
ENDBRANCH   2   4
ENDBRANCH   1   2
BRANCH   1  15
ATOM     15  C   LIG    1        0.017  -0.005  -0.199  0.00  0.00    +0.070 C 
BRANCH  15  16
ATOM     16  C   LIG    1       -1.415  -0.543  -0.192  0.00  0.00    +0.200 C 
BRANCH  16  17
ATOM     17  O   LIG    1       -1.389  -1.968  -0.301  0.00  0.00    -0.300 OA
BRANCH  17  23
ATOM     18  C   LIG    1       -2.639  -3.994  -0.420  0.00  0.00    +0.100 A 
ATOM     19  C   LIG    1       -3.864  -4.642  -0.422  0.00  0.00    -0.040 A 
ATOM     20  C   LIG    1       -5.033  -3.910  -0.328  0.00  0.00    +0.010 A 
ATOM     21  C   LIG    1       -4.984  -2.533  -0.225  0.00  0.00    +0.010 A 
ATOM     22  C   LIG    1       -3.765  -1.881  -0.216  0.00  0.00    -0.030 A 
ATOM     23  C   LIG    1       -2.589  -2.608  -0.310  0.00  0.00    +0.100 A 
BRANCH  18  24
ATOM     24  O   LIG    1       -1.488  -4.712  -0.518  0.00  0.00    -0.310 OA
BRANCH  24  26
ATOM     25  C   LIG    1       -0.226  -6.762  -0.727  0.00  0.00    +0.070 C 
ATOM     26  C   LIG    1       -1.616  -6.131  -0.627  0.00  0.00    +0.170 C 
ENDBRANCH  24  26
ENDBRANCH  18  24
ENDBRANCH  17  23
ENDBRANCH  16  17
ENDBRANCH  15  16
ENDBRANCH   1  15
TORSDOF 11
