REMARK  Name = ZINCrH000004rrdU.0
REMARK                            x       y       z     vdW  Elec       q    Type
REMARK                         _______ _______ _______ _____ _____    ______ ____
ROOT
ATOM      1  C   LIG    1       -4.896   1.229   0.120  0.00  0.00    -0.690 A 
ATOM      2  C   LIG    1       -3.848   2.081  -0.158  0.00  0.00    +0.210 A 
ATOM      3  C   LIG    1       -2.549   1.578  -0.249  0.00  0.00    -0.160 A 
ATOM      4  C   LIG    1       -2.320   0.214  -0.064  0.00  0.00    +0.120 A 
ATOM      5  C   LIG    1       -3.377  -0.626   0.220  0.00  0.00    +0.010 A 
ATOM      6  C   LIG    1       -4.662  -0.122   0.309  0.00  0.00    +0.050 A 
ATOM      7  C   LIG    1       -5.812  -1.047   0.613  0.00  0.00    +0.120 C 
ENDROOT
BRANCH   3   8
ATOM      8  C   LIG    1       -1.420   2.486  -0.547  0.00  0.00    +0.560 C 
ATOM      9  N   LIG    1       -0.167   1.997  -0.635  0.00  0.00    -0.660 N 
ATOM     10  H   LIG    1       -0.014   1.042  -0.572  0.00  0.00    +0.410 HD
ATOM     11  O   LIG    1       -1.623   3.673  -0.713  0.00  0.00    -0.510 OA
BRANCH   9  12
ATOM     12  C   LIG    1        0.911   2.868  -0.823  0.00  0.00    +0.090 A 
ATOM     13  C   LIG    1        0.768   4.012  -1.603  0.00  0.00    +0.070 A 
ATOM     14  C   LIG    1        1.864   4.846  -1.755  0.00  0.00    -0.010 A 
ATOM     15  C   LIG    1        3.057   4.513  -1.141  0.00  0.00    +0.240 A 
ATOM     16  N   LIG    1        3.161   3.418  -0.412  0.00  0.00    -0.470 NA
ATOM     17  C   LIG    1        2.143   2.601  -0.238  0.00  0.00    +0.240 A 
ENDBRANCH   9  12
ENDBRANCH   3   8
BRANCH   1  18
ATOM     18  S   LIG    1       -6.536   1.862   0.236  0.00  0.00    +2.690 S 
ATOM     19  O   LIG    1       -7.350   1.015  -0.563  0.00  0.00    -0.940 OA
ATOM     20  O   LIG    1       -6.441   3.265   0.033  0.00  0.00    -0.940 OA
BRANCH  18  21
ATOM     21  N   LIG    1       -7.035   1.649   1.801  0.00  0.00    -1.060 N 
ATOM     22  H   LIG    1       -7.753   1.029   2.001  0.00  0.00    +0.430 HD
BRANCH  21  27
ATOM     23  C   LIG    1       -4.539   4.542   5.991  0.00  0.00    +0.090 C 
ATOM     24  C   LIG    1       -5.202   3.773   4.878  0.00  0.00    -0.090 A 
ATOM     25  C   LIG    1       -6.581   3.688   4.824  0.00  0.00    +0.030 A 
ATOM     26  C   LIG    1       -7.192   2.984   3.805  0.00  0.00    +0.010 A 
ATOM     27  C   LIG    1       -6.420   2.361   2.833  0.00  0.00    +0.150 A 
ATOM     28  C   LIG    1       -5.035   2.445   2.892  0.00  0.00    -0.030 A 
ATOM     29  C   LIG    1       -4.430   3.154   3.911  0.00  0.00    +0.040 A 
ENDBRANCH  21  27
ENDBRANCH  18  21
ENDBRANCH   1  18
TORSDOF 5
