REMARK  Name = ZINCkj000005fXil.0
REMARK                            x       y       z     vdW  Elec       q    Type
REMARK                         _______ _______ _______ _____ _____    ______ ____
ROOT
ATOM      1  C   LIG    1       -4.953   1.390  -0.148  0.00  0.00    -0.670 A 
ATOM      2  C   LIG    1       -4.438   2.477  -0.829  0.00  0.00    +0.130 A 
ATOM      3  C   LIG    1       -3.092   2.521  -1.144  0.00  0.00    +0.000 A 
ATOM      4  C   LIG    1       -2.262   1.479  -0.777  0.00  0.00    -0.030 A 
ATOM      5  C   LIG    1       -2.778   0.389  -0.101  0.00  0.00    +0.010 A 
ATOM      6  C   LIG    1       -4.123   0.347   0.218  0.00  0.00    +0.120 A 
ENDROOT
BRANCH   1   7
ATOM      7  S   LIG    1       -6.668   1.333   0.253  0.00  0.00    +2.690 S 
ATOM      8  O   LIG    1       -7.120   2.680   0.271  0.00  0.00    -0.950 OA
ATOM      9  O   LIG    1       -6.792   0.457   1.364  0.00  0.00    -0.950 OA
BRANCH   7  10
ATOM     10  N   LIG    1       -7.443   0.598  -1.012  0.00  0.00    -0.990 NA
BRANCH  10  12
ATOM     11  C   LIG    1       -8.995  -1.206  -0.447  0.00  0.00    +0.010 C 
ATOM     12  C   LIG    1       -7.619  -0.857  -1.017  0.00  0.00    +0.280 C 
ENDBRANCH  10  12
BRANCH  10  13
ATOM     13  C   LIG    1       -7.953   1.401  -2.126  0.00  0.00    +0.300 C 
ATOM     14  C   LIG    1       -6.917   1.427  -3.252  0.00  0.00    +0.000 C 
ENDBRANCH  10  13
ENDBRANCH   7  10
ENDBRANCH   1   7
BRANCH   4  15
ATOM     15  C   LIG    1       -0.795   1.527  -1.120  0.00  0.00    +0.220 C 
ATOM     16  C   LIG    1       -0.534   0.673  -2.362  0.00  0.00    +0.030 C 
BRANCH  15  17
ATOM     17  N   LIG    1       -0.012   1.005   0.008  0.00  0.00    -0.680 NA
ATOM     18  H   LIG    1        0.002  -0.004   0.002  0.00  0.00    +0.350 HD
BRANCH  17  19
ATOM     19  C   LIG    1        1.353   1.550  -0.003  0.00  0.00    +0.190 C 
BRANCH  19  20
ATOM     20  C   LIG    1        2.136   0.985   1.184  0.00  0.00    +0.260 C 
BRANCH  20  21
ATOM     21  N   LIG    1        3.501   1.530   1.173  0.00  0.00    -0.640 N 
ATOM     22  H   LIG    1        4.017   1.157   1.956  0.00  0.00    +0.440 HD
ATOM     23  H   LIG    1        3.461   2.535   1.245  0.00  0.00    +0.440 HD
ATOM     24  H   LIG    1        3.960   1.271   0.313  0.00  0.00    +0.440 HD
ENDBRANCH  20  21
ENDBRANCH  19  20
ENDBRANCH  17  19
ENDBRANCH  15  17
ENDBRANCH   4  15
TORSDOF 9
