REMARK  Name = ZINCpk000000op7i.0
REMARK                            x       y       z     vdW  Elec       q    Type
REMARK                         _______ _______ _______ _____ _____    ______ ____
ROOT
ATOM      1  C   LIG    1        1.614   1.263   0.071  0.00  0.00    +0.510 C 
ATOM      2  N   LIG    1        2.481   0.956  -0.915  0.00  0.00    -0.660 N 
ATOM      3  H   LIG    1        2.170   0.484  -1.704  0.00  0.00    +0.410 HD
ATOM      4  O   LIG    1        1.983   1.926   1.017  0.00  0.00    -0.500 OA
ENDROOT
BRANCH   2   5
ATOM      5  C   LIG    1        3.829   1.318  -0.800  0.00  0.00    +0.090 A 
ATOM      6  C   LIG    1        4.189   2.502  -0.162  0.00  0.00    +0.110 A 
ATOM      7  C   LIG    1        5.533   2.819  -0.072  0.00  0.00    +0.010 A 
ATOM      8  C   LIG    1        6.472   1.952  -0.617  0.00  0.00    +0.350 A 
ATOM      9  N   LIG    1        6.093   0.835  -1.217  0.00  0.00    -0.490 NA
ATOM     10  C   LIG    1        4.823   0.497  -1.316  0.00  0.00    +0.290 A 
BRANCH   8  11
ATOM     11  N   LIG    1        7.833   2.264  -0.532  0.00  0.00    -0.330 N 
ATOM     12  C   LIG    1        8.858   1.512  -1.012  0.00  0.00    +0.260 A 
ATOM     13  C   LIG    1       10.010   2.164  -0.730  0.00  0.00    -0.110 A 
ATOM     14  C   LIG    1        9.684   3.343  -0.050  0.00  0.00    +0.250 A 
ATOM     15  N   LIG    1        8.383   3.404   0.069  0.00  0.00    -0.290 NA
ENDBRANCH   8  11
ENDBRANCH   2   5
BRANCH   1  20
ATOM     16  N   LIG    1       -0.368   0.658   1.352  0.00  0.00    -0.990 NA
ATOM     17  C   LIG    1       -1.516   1.575   1.478  0.00  0.00    +0.280 C 
ATOM     18  C   LIG    1       -2.014   1.788   0.026  0.00  0.00    +0.040 C 
ATOM     19  C   LIG    1       -0.674   1.812  -0.763  0.00  0.00    +0.070 C 
ATOM     20  C   LIG    1        0.188   0.782  -0.003  0.00  0.00    +0.240 C 
BRANCH  16  21
ATOM     21  S   LIG    1        0.200  -0.344   2.541  0.00  0.00    +2.620 S 
ATOM     22  O   LIG    1       -0.122   0.329   3.751  0.00  0.00    -0.940 OA
ATOM     23  O   LIG    1        1.552  -0.589   2.177  0.00  0.00    -0.940 OA
BRANCH  21  24
ATOM     24  C   LIG    1       -0.788  -1.855   2.370  0.00  0.00    -0.370 C 
BRANCH  24  26
ATOM     25  C   LIG    1       -1.190  -4.145   3.287  0.00  0.00    +0.030 C 
ATOM     26  C   LIG    1       -0.356  -2.870   3.431  0.00  0.00    +0.040 C 
ENDBRANCH  24  26
ENDBRANCH  21  24
ENDBRANCH  16  21
ENDBRANCH   1  20
TORSDOF 6
