REMARK  Name = ZINCrH000004rLHd.1
REMARK                            x       y       z     vdW  Elec       q    Type
REMARK                         _______ _______ _______ _____ _____    ______ ____
ROOT
ATOM      1  C   LIG    1       -0.200   0.532  -4.872  0.00  0.00    +0.340 C 
ENDROOT
BRANCH   1   7
ATOM      2  C   LIG    1       -2.585  -1.808  -8.597  0.00  0.00    +0.090 C 
ATOM      3  C   LIG    1       -2.395  -0.590  -7.731  0.00  0.00    -0.080 A 
ATOM      4  C   LIG    1       -3.188   0.526  -7.924  0.00  0.00    +0.010 A 
ATOM      5  C   LIG    1       -3.014   1.643  -7.129  0.00  0.00    +0.020 A 
ATOM      6  C   LIG    1       -2.050   1.644  -6.139  0.00  0.00    -0.010 A 
ATOM      7  C   LIG    1       -1.254   0.530  -5.949  0.00  0.00    -0.090 A 
ATOM      8  C   LIG    1       -1.429  -0.588  -6.743  0.00  0.00    +0.030 A 
ENDBRANCH   1   7
BRANCH   1   9
ATOM      9  C   LIG    1        1.020   1.266  -5.364  0.00  0.00    -0.090 A 
ATOM     10  C   LIG    1        1.047   2.648  -5.352  0.00  0.00    +0.000 A 
ATOM     11  C   LIG    1        2.168   3.322  -5.800  0.00  0.00    +0.010 A 
ATOM     12  C   LIG    1        3.259   2.614  -6.268  0.00  0.00    +0.000 A 
ATOM     13  C   LIG    1        3.230   1.232  -6.285  0.00  0.00    -0.080 A 
ATOM     14  C   LIG    1        4.419   0.459  -6.796  0.00  0.00    +0.090 C 
ATOM     15  C   LIG    1        2.111   0.558  -5.833  0.00  0.00    +0.020 A 
ENDBRANCH   1   9
BRANCH   1  16
ATOM     16  N   LIG    1       -0.723   1.200  -3.677  0.00  0.00    -0.730 N 
ATOM     17  H   LIG    1       -1.435   1.854  -3.760  0.00  0.00    +0.390 HD
ATOM     18  C   LIG    1       -0.216   0.906  -2.464  0.00  0.00    +0.520 C 
ATOM     19  O   LIG    1        0.674   0.089  -2.360  0.00  0.00    -0.510 OA
BRANCH  18  20
ATOM     20  C   LIG    1       -0.754   1.594  -1.236  0.00  0.00    +0.090 C 
ATOM     21  C   LIG    1       -0.013   1.086   0.008  0.00  0.00    +0.070 C 
ATOM     22  C   LIG    1       -0.729   1.579   1.268  0.00  0.00    +0.040 C 
ATOM     23  C   LIG    1       -2.073   0.855   1.413  0.00  0.00    +0.140 C 
ATOM     24  C   LIG    1       -2.804   0.945   0.100  0.00  0.00    +0.000 A 
ATOM     25  N   LIG    1       -4.090   0.736  -0.161  0.00  0.00    -0.250 NA
ATOM     26  N   LIG    1       -4.292   0.928  -1.421  0.00  0.00    -0.070 NA
ATOM     27  N   LIG    1       -3.188   1.255  -2.006  0.00  0.00    -0.380 N 
ATOM     28  H   LIG    1       -3.079   1.452  -2.949  0.00  0.00    +0.440 HD
ATOM     29  C   LIG    1       -2.217   1.277  -1.077  0.00  0.00    -0.020 A 
ENDBRANCH  18  20
ENDBRANCH   1  16
TORSDOF 4
