REMARK  Name = ZINCrH000004rLHd.0
REMARK                            x       y       z     vdW  Elec       q    Type
REMARK                         _______ _______ _______ _____ _____    ______ ____
ROOT
ATOM      1  C   LIG    1       -2.514   0.980   0.019  0.00  0.00    +0.330 C 
ENDROOT
BRANCH   1   7
ATOM      2  C   LIG    1       -3.236  -1.443  -4.300  0.00  0.00    +0.090 C 
ATOM      3  C   LIG    1       -3.424  -0.217  -3.444  0.00  0.00    -0.080 A 
ATOM      4  C   LIG    1       -4.114   0.873  -3.940  0.00  0.00    +0.000 A 
ATOM      5  C   LIG    1       -4.287   1.998  -3.155  0.00  0.00    +0.010 A 
ATOM      6  C   LIG    1       -3.773   2.030  -1.872  0.00  0.00    +0.010 A 
ATOM      7  C   LIG    1       -3.078   0.942  -1.378  0.00  0.00    -0.080 A 
ATOM      8  C   LIG    1       -2.906  -0.182  -2.163  0.00  0.00    +0.010 A 
ENDBRANCH   1   7
BRANCH   1   9
ATOM      9  C   LIG    1       -1.219   1.751   0.017  0.00  0.00    -0.080 A 
ATOM     10  C   LIG    1       -1.238   3.133   0.030  0.00  0.00    +0.010 A 
ATOM     11  C   LIG    1       -0.050   3.840   0.022  0.00  0.00    +0.000 A 
ATOM     12  C   LIG    1        1.156   3.165   0.008  0.00  0.00    +0.000 A 
ATOM     13  C   LIG    1        1.175   1.783   0.000  0.00  0.00    -0.080 A 
ATOM     14  C   LIG    1        2.490   1.048  -0.016  0.00  0.00    +0.090 C 
ATOM     15  C   LIG    1       -0.013   1.076   0.008  0.00  0.00    +0.020 A 
ENDBRANCH   1   9
BRANCH   1  16
ATOM     16  N   LIG    1       -3.470   1.634   0.915  0.00  0.00    -0.710 N 
ATOM     17  H   LIG    1       -4.115   2.265   0.559  0.00  0.00    +0.410 HD
ATOM     18  C   LIG    1       -3.455   1.359   2.235  0.00  0.00    +0.530 C 
ATOM     19  O   LIG    1       -2.648   0.570   2.680  0.00  0.00    -0.530 OA
BRANCH  18  20
ATOM     20  C   LIG    1       -4.439   2.032   3.156  0.00  0.00    +0.110 C 
ATOM     21  C   LIG    1       -4.223   1.539   4.593  0.00  0.00    +0.070 C 
ATOM     22  C   LIG    1       -5.369   2.023   5.485  0.00  0.00    +0.030 C 
ATOM     23  C   LIG    1       -6.655   1.260   5.140  0.00  0.00    +0.140 C 
ATOM     24  C   LIG    1       -6.853   1.325   3.649  0.00  0.00    +0.020 A 
ATOM     25  N   LIG    1       -7.914   1.088   2.933  0.00  0.00    -0.270 NA
ATOM     26  N   LIG    1       -7.617   1.274   1.690  0.00  0.00    -0.260 N 
ATOM     27  H   LIG    1       -8.238   1.163   0.953  0.00  0.00    +0.470 HD
ATOM     28  N   LIG    1       -6.383   1.628   1.561  0.00  0.00    -0.270 NA
ATOM     29  C   LIG    1       -5.843   1.680   2.744  0.00  0.00    +0.010 A 
ENDBRANCH  18  20
ENDBRANCH   1  16
TORSDOF 4
