REMARK  Name = ZINCtV00001bB3zG.0
REMARK                            x       y       z     vdW  Elec       q    Type
REMARK                         _______ _______ _______ _____ _____    ______ ____
ROOT
ATOM      1  C   LIG    1        1.326   1.958  -1.127  0.00  0.00    -0.170 A 
ATOM      2  C   LIG    1        2.025   0.925  -1.685  0.00  0.00    +0.300 A 
ATOM      3  N   LIG    1        1.143  -0.039  -2.029  0.00  0.00    -0.310 N 
ATOM      4  N   LIG    1       -0.150   0.372  -1.690  0.00  0.00    -0.260 NA
ATOM      5  C   LIG    1       -0.086   1.568  -1.145  0.00  0.00    +0.140 A 
ENDROOT
BRANCH   3   6
ATOM      6  C   LIG    1        1.473  -1.259  -2.631  0.00  0.00    +0.150 A 
ATOM      7  C   LIG    1        2.797  -1.554  -2.927  0.00  0.00    -0.010 A 
ATOM      8  C   LIG    1        3.120  -2.762  -3.515  0.00  0.00    +0.050 A 
ATOM      9  C   LIG    1        2.124  -3.671  -3.821  0.00  0.00    +0.010 A 
ATOM     10  C   LIG    1        0.803  -3.378  -3.534  0.00  0.00    +0.040 A 
ATOM     11  C   LIG    1        0.475  -2.175  -2.940  0.00  0.00    +0.020 A 
ENDBRANCH   3   6
BRANCH   5  12
ATOM     12  C   LIG    1       -1.228   2.372  -0.649  0.00  0.00    +0.030 A 
ATOM     13  C   LIG    1       -1.136   3.088   0.549  0.00  0.00    -0.010 A 
ATOM     14  C   LIG    1       -2.221   3.828   0.971  0.00  0.00    +0.260 A 
ATOM     15  N   LIG    1       -3.337   3.855   0.268  0.00  0.00    -0.480 NA
ATOM     16  C   LIG    1       -3.468   3.189  -0.864  0.00  0.00    +0.260 A 
ATOM     17  C   LIG    1       -2.430   2.429  -1.362  0.00  0.00    +0.000 A 
ENDBRANCH   5  12
BRANCH   1  19
ATOM     18  N   LIG    1        3.151   3.472  -0.740  0.00  0.00    -0.230 NA
ATOM     19  C   LIG    1        1.884   3.221  -0.609  0.00  0.00    +0.260 C 
BRANCH  18  20
ATOM     20  N   LIG    1        3.700   4.623  -0.160  0.00  0.00    -0.580 N 
ATOM     21  H   LIG    1        3.123   5.268   0.279  0.00  0.00    +0.400 HD
BRANCH  20  26
ATOM     22 CL   LIG    1        9.525   5.549  -0.387  0.00  0.00    -0.050 Cl
ATOM     23  C   LIG    1        7.812   5.277  -0.320  0.00  0.00    -0.050 A 
ATOM     24  C   LIG    1        6.939   6.347  -0.404  0.00  0.00    +0.090 A 
ATOM     25  C   LIG    1        5.574   6.134  -0.352  0.00  0.00    -0.070 A 
ATOM     26  C   LIG    1        5.079   4.842  -0.213  0.00  0.00    +0.230 A 
ATOM     27  C   LIG    1        5.959   3.770  -0.122  0.00  0.00    -0.050 A 
ATOM     28 CL   LIG    1        5.346   2.156   0.059  0.00  0.00    -0.030 Cl
ATOM     29 CL   LIG    1        4.480   7.478  -0.459  0.00  0.00    -0.040 Cl
ATOM     30  C   LIG    1        7.322   3.990  -0.182  0.00  0.00    +0.080 A 
ENDBRANCH  20  26
ENDBRANCH  18  20
ENDBRANCH   1  19
TORSDOF 5
