REMARK  Name = ZINCtV00001bB3zG.1
REMARK                            x       y       z     vdW  Elec       q    Type
REMARK                         _______ _______ _______ _____ _____    ______ ____
ROOT
ATOM      1  C   LIG    1       -0.616   1.705  -1.196  0.00  0.00    -0.200 A 
ATOM      2  C   LIG    1       -1.538   1.098  -1.973  0.00  0.00    +0.270 A 
ATOM      3  N   LIG    1       -2.276   2.066  -2.578  0.00  0.00    -0.320 N 
ATOM      4  N   LIG    1       -1.782   3.309  -2.163  0.00  0.00    -0.260 NA
ATOM      5  C   LIG    1       -0.784   3.098  -1.331  0.00  0.00    +0.130 A 
ENDROOT
BRANCH   3   6
ATOM      6  C   LIG    1       -3.339   1.857  -3.466  0.00  0.00    +0.160 A 
ATOM      7  C   LIG    1       -3.724   0.565  -3.799  0.00  0.00    -0.010 A 
ATOM      8  C   LIG    1       -4.776   0.362  -4.670  0.00  0.00    +0.050 A 
ATOM      9  C   LIG    1       -5.439   1.444  -5.220  0.00  0.00    +0.000 A 
ATOM     10  C   LIG    1       -5.054   2.732  -4.895  0.00  0.00    +0.040 A 
ATOM     11  C   LIG    1       -4.007   2.941  -4.019  0.00  0.00    +0.020 A 
ENDBRANCH   3   6
BRANCH   5  12
ATOM     12  C   LIG    1        0.023   4.142  -0.654  0.00  0.00    +0.030 A 
ATOM     13  C   LIG    1        0.365   4.022   0.696  0.00  0.00    +0.000 A 
ATOM     14  C   LIG    1        1.121   5.015   1.285  0.00  0.00    +0.270 A 
ATOM     15  N   LIG    1        1.510   6.070   0.595  0.00  0.00    -0.480 NA
ATOM     16  C   LIG    1        1.204   6.224  -0.679  0.00  0.00    +0.260 A 
ATOM     17  C   LIG    1        0.456   5.276  -1.347  0.00  0.00    -0.020 A 
ENDBRANCH   5  12
BRANCH   1  18
ATOM     18  C   LIG    1        0.414   1.015  -0.339  0.00  0.00    +0.290 C 
BRANCH  18  20
ATOM     19  N   LIG    1        2.659   1.683  -0.463  0.00  0.00    -0.190 NA
ATOM     20  N   LIG    1        1.720   1.077  -1.001  0.00  0.00    -0.190 NA
BRANCH  19  25
ATOM     21 CL   LIG    1        8.007   1.564  -2.896  0.00  0.00    -0.030 Cl
ATOM     22  C   LIG    1        6.427   1.599  -2.177  0.00  0.00    +0.010 A 
ATOM     23  C   LIG    1        6.243   2.209  -0.948  0.00  0.00    +0.050 A 
ATOM     24  C   LIG    1        4.989   2.241  -0.370  0.00  0.00    +0.040 A 
ATOM     25  C   LIG    1        3.905   1.655  -1.030  0.00  0.00    +0.060 A 
ATOM     26  C   LIG    1        4.099   1.036  -2.268  0.00  0.00    -0.010 A 
ATOM     27 CL   LIG    1        2.761   0.300  -3.093  0.00  0.00    +0.000 Cl
ATOM     28 CL   LIG    1        4.761   3.007   1.170  0.00  0.00    -0.010 Cl
ATOM     29  C   LIG    1        5.357   1.016  -2.836  0.00  0.00    +0.050 A 
ENDBRANCH  19  25
ENDBRANCH  18  20
ENDBRANCH   1  18
TORSDOF 5
