REMARK  Name = ZINCrD000000BYeT.0
REMARK                            x       y       z     vdW  Elec       q    Type
REMARK                         _______ _______ _______ _____ _____    ______ ____
ROOT
ATOM      1  C   LIG    1        2.500   3.606   3.476  0.00  0.00    +0.200 A 
ATOM      2  C   LIG    1        2.749   4.865   4.006  0.00  0.00    -0.010 A 
ATOM      3  C   LIG    1        3.808   5.050   4.875  0.00  0.00    +0.100 A 
ATOM      4  C   LIG    1        4.618   3.983   5.216  0.00  0.00    -0.200 A 
ATOM      5  C   LIG    1        4.372   2.728   4.689  0.00  0.00    -0.010 A 
ATOM      6  C   LIG    1        3.313   2.536   3.825  0.00  0.00    +0.030 A 
ENDROOT
BRANCH   1  18
ATOM      7  O   LIG    1        2.575   1.928   1.411  0.00  0.00    -0.560 OA
ATOM      8  C   LIG    1        1.525   2.512   1.602  0.00  0.00    +0.710 C 
ATOM      9  N   LIG    1        0.459   2.255   0.818  0.00  0.00    -0.620 N 
ATOM     10  C   LIG    1       -0.780   2.967   1.070  0.00  0.00    +0.250 C 
ATOM     11  C   LIG    1       -1.650   2.159   2.063  0.00  0.00    +0.220 C 
ATOM     12  O   LIG    1       -2.081   0.996   1.456  0.00  0.00    -0.360 OA
ATOM     13  C   LIG    1       -1.126   0.025   1.050  0.00  0.00    +0.240 C 
ATOM     14  C   LIG    1       -0.648   0.364  -0.347  0.00  0.00    +0.250 C 
ATOM     15  F   LIG    1       -1.663   1.039  -1.035  0.00  0.00    -0.180 F 
ATOM     16  F   LIG    1       -0.328  -0.814  -1.030  0.00  0.00    -0.180 F 
ATOM     17  C   LIG    1        0.596   1.260  -0.262  0.00  0.00    +0.320 C 
ATOM     18  N   LIG    1        1.428   3.416   2.597  0.00  0.00    -0.680 N 
ATOM     19  H   LIG    1        0.616   3.935   2.703  0.00  0.00    +0.410 HD
ENDBRANCH   1  18
BRANCH   4  20
ATOM     20  C   LIG    1        5.772   4.188   6.164  0.00  0.00    +0.510 C 
ATOM     21  F   LIG    1        6.968   3.851   5.522  0.00  0.00    -0.170 F 
ATOM     22  F   LIG    1        5.601   3.373   7.289  0.00  0.00    -0.170 F 
ATOM     23  F   LIG    1        5.816   5.528   6.561  0.00  0.00    -0.180 F 
ENDBRANCH   4  20
BRANCH   5  24
ATOM     24  C   LIG    1        5.258   1.568   5.064  0.00  0.00    +0.080 C 
BRANCH  24  25
ATOM     25  C   LIG    1        6.445   1.500   4.100  0.00  0.00    -0.040 C 
ATOM     26  C   LIG    1        6.176   0.653   2.841  0.00  0.00    +0.210 C 
ATOM     27  O   LIG    1        7.497   0.119   3.057  0.00  0.00    -0.380 OA
ATOM     28  C   LIG    1        7.482   0.422   4.466  0.00  0.00    +0.210 C 
ENDBRANCH  24  25
ENDBRANCH   5  24
TORSDOF 4
