REMARK  Name = ZINCrg00000fR8J4.0
REMARK                            x       y       z     vdW  Elec       q    Type
REMARK                         _______ _______ _______ _____ _____    ______ ____
ROOT
ATOM      1  N   LIG    1        5.344   1.365   0.048  0.00  0.00    -0.600 N 
ATOM      2  C   LIG    1        4.672   2.258   0.802  0.00  0.00    +0.520 C 
ATOM      3  O   LIG    1        5.081   3.394   0.905  0.00  0.00    -0.510 OA
ENDROOT
BRANCH   1   5
ATOM      4  C   LIG    1        3.541   0.187  -1.111  0.00  0.00    +0.040 C 
ATOM      5  C   LIG    1        4.769   0.043  -0.209  0.00  0.00    +0.160 C 
ATOM      6  C   LIG    1        4.356  -0.600   1.116  0.00  0.00    +0.040 C 
ATOM      7  C   LIG    1        5.809  -0.840  -0.902  0.00  0.00    +0.060 C 
ENDBRANCH   1   5
BRANCH   2   8
ATOM      8  C   LIG    1        3.411   1.843   1.515  0.00  0.00    +0.250 C 
BRANCH   8   9
ATOM      9  O   LIG    1        2.805   3.004   2.142  0.00  0.00    -0.340 OA
BRANCH   9  10
ATOM     10  C   LIG    1        1.666   2.804   2.823  0.00  0.00    +0.460 C 
ATOM     11  O   LIG    1        1.191   1.695   2.894  0.00  0.00    -0.490 OA
BRANCH  10  12
ATOM     12  C   LIG    1        0.976   3.963   3.494  0.00  0.00    +0.290 C 
BRANCH  12  13
ATOM     13  N   LIG    1       -0.243   3.488   4.162  0.00  0.00    -0.550 NA
ATOM     14  C   LIG    1       -1.209   2.974   3.189  0.00  0.00    +0.230 C 
ATOM     15  C   LIG    1       -2.259   2.114   3.900  0.00  0.00    -0.300 C 
ATOM     16  S   LIG    1       -3.171   3.162   5.073  0.00  0.00    +2.410 S 
ATOM     17  C   LIG    1       -1.803   3.908   6.009  0.00  0.00    -0.320 C 
ATOM     18  O   LIG    1       -3.840   4.186   4.349  0.00  0.00    -0.940 OA
ATOM     19  O   LIG    1       -3.917   2.325   5.946  0.00  0.00    -0.940 OA
ATOM     20  C   LIG    1       -0.813   4.530   5.019  0.00  0.00    +0.250 C 
ENDBRANCH  12  13
ENDBRANCH  10  12
ENDBRANCH   9  10
ENDBRANCH   8   9
ENDBRANCH   2   8
BRANCH   1  21
ATOM     21  C   LIG    1        6.650   1.718  -0.514  0.00  0.00    +0.340 C 
BRANCH  21  22
ATOM     22  C   LIG    1        7.721   1.488   0.521  0.00  0.00    -0.110 A 
ATOM     23  C   LIG    1        7.962   2.443   1.490  0.00  0.00    +0.030 A 
ATOM     24  C   LIG    1        8.941   2.230   2.443  0.00  0.00    +0.000 A 
ATOM     25  C   LIG    1        9.687   1.066   2.419  0.00  0.00    +0.010 A 
ATOM     26  C   LIG    1        9.449   0.113   1.446  0.00  0.00    +0.000 A 
ATOM     27  C   LIG    1        8.467   0.324   0.497  0.00  0.00    +0.010 A 
ENDBRANCH  21  22
ENDBRANCH   1  21
TORSDOF 8
