REMARK  Name = ZINCAx0000000fsC.0
REMARK                            x       y       z     vdW  Elec       q    Type
REMARK                         _______ _______ _______ _____ _____    ______ ____
ROOT
ATOM      1  C   LIG    1        2.459   1.063  -0.011  0.00  0.00    +0.350 C 
ATOM      2  C   LIG    1        3.140   1.139   1.335  0.00  0.00    -0.220 C 
ATOM      3  C   LIG    1        4.328   1.756   1.138  0.00  0.00    +0.100 C 
ATOM      4  C   LIG    1        4.467   2.097  -0.293  0.00  0.00    +0.520 C 
ATOM      5  O   LIG    1        5.425   2.658  -0.787  0.00  0.00    -0.510 OA
ATOM      6  N   LIG    1        3.376   1.693  -0.969  0.00  0.00    -0.590 N 
ENDROOT
BRANCH   1  11
ATOM      7  C   LIG    1       -1.244   1.813   0.016  0.00  0.00    +0.140 A 
ATOM      8  C   LIG    1       -1.243   3.198   0.095  0.00  0.00    -0.070 A 
ATOM      9  C   LIG    1       -0.046   3.886   0.134  0.00  0.00    +0.050 A 
ATOM     10  C   LIG    1        1.151   3.195   0.099  0.00  0.00    -0.010 A 
ATOM     11  C   LIG    1        1.153   1.814   0.026  0.00  0.00    -0.060 A 
ATOM     12  C   LIG    1       -0.042   1.121  -0.013  0.00  0.00    +0.010 A 
BRANCH   7  13
ATOM     13  O   LIG    1       -2.421   1.135  -0.027  0.00  0.00    -0.310 OA
BRANCH  13  15
ATOM     14  C   LIG    1       -4.833   0.981  -0.051  0.00  0.00    +0.070 C 
ATOM     15  C   LIG    1       -3.620   1.912   0.006  0.00  0.00    +0.170 C 
ENDBRANCH  13  15
ENDBRANCH   7  13
ENDBRANCH   1  11
BRANCH   3  16
ATOM     16  O   LIG    1        5.244   2.019   2.099  0.00  0.00    -0.430 OA
ATOM     17  H   LIG    1        6.037   2.468   1.774  0.00  0.00    +0.410 HD
ENDBRANCH   3  16
BRANCH   2  18
ATOM     18  C   LIG    1        2.615   0.639   2.610  0.00  0.00    +0.480 C 
ATOM     19  O   LIG    1        2.342   1.418   3.503  0.00  0.00    -0.420 OA
BRANCH  18  20
ATOM     20  C   LIG    1        2.418  -0.811   2.809  0.00  0.00    -0.160 A 
ATOM     21  C   LIG    1        2.838  -1.716   1.831  0.00  0.00    +0.080 A 
ATOM     22  C   LIG    1        2.652  -3.068   2.019  0.00  0.00    +0.020 A 
ATOM     23  C   LIG    1        2.049  -3.537   3.181  0.00  0.00    +0.090 A 
ATOM     24  O   LIG    1        1.872  -4.875   3.343  0.00  0.00    -0.300 OA
ATOM     25  C   LIG    1        1.606  -5.332   4.674  0.00  0.00    +0.230 C 
ATOM     26  C   LIG    1        0.535  -4.423   5.291  0.00  0.00    +0.230 C 
ATOM     27  O   LIG    1        1.040  -3.083   5.305  0.00  0.00    -0.300 OA
ATOM     28  C   LIG    1        1.629  -2.639   4.161  0.00  0.00    +0.040 A 
ATOM     29  C   LIG    1        1.816  -1.282   3.979  0.00  0.00    +0.100 A 
ENDBRANCH  18  20
ENDBRANCH   2  18
BRANCH   6  30
ATOM     30  C   LIG    1        3.144   1.854  -2.407  0.00  0.00    +0.330 C 
BRANCH  30  31
ATOM     31  C   LIG    1        2.439   3.188  -2.663  0.00  0.00    +0.160 C 
BRANCH  31  32
ATOM     32  N   LIG    1        2.207   3.349  -4.105  0.00  0.00    -0.530 NA
ATOM     33  C   LIG    1        3.477   3.487  -4.832  0.00  0.00    +0.150 C 
ATOM     34  C   LIG    1        3.192   3.592  -6.332  0.00  0.00    +0.220 C 
ATOM     35  O   LIG    1        2.311   4.694  -6.568  0.00  0.00    -0.380 OA
ATOM     36  C   LIG    1        1.063   4.593  -5.876  0.00  0.00    +0.220 C 
ATOM     37  C   LIG    1        1.327   4.497  -4.371  0.00  0.00    +0.150 C 
ENDBRANCH  31  32
ENDBRANCH  30  31
ENDBRANCH   6  30
TORSDOF 9
