REMARK  Name = ZINCtV00001bB3s2.0
REMARK                            x       y       z     vdW  Elec       q    Type
REMARK                         _______ _______ _______ _____ _____    ______ ____
ROOT
ATOM      1  C   LIG    1       -7.429   0.768   0.046  0.00  0.00    +0.060 A 
ATOM      2  C   LIG    1       -6.272   1.562  -0.001  0.00  0.00    -0.190 A 
ATOM      3  C   LIG    1       -6.399   2.961  -0.008  0.00  0.00    +0.190 A 
ATOM      4  N   LIG    1       -7.569   3.544   0.033  0.00  0.00    -0.470 NA
ATOM      5  C   LIG    1       -8.710   2.846   0.084  0.00  0.00    +0.150 A 
ATOM      6  C   LIG    1       -9.952   3.501   0.127  0.00  0.00    +0.040 A 
ATOM      7  C   LIG    1      -11.101   2.771   0.177  0.00  0.00    +0.040 A 
ATOM      8  C   LIG    1      -11.068   1.379   0.188  0.00  0.00    +0.010 A 
ATOM      9  C   LIG    1       -9.882   0.710   0.147  0.00  0.00    +0.040 A 
ATOM     10  C   LIG    1       -5.156   3.811  -0.064  0.00  0.00    +0.140 C 
ATOM     11  C   LIG    1       -8.680   1.430   0.095  0.00  0.00    -0.100 A 
ENDROOT
BRANCH   1  16
ATOM     12  C   LIG    1       -7.099  -4.977   0.056  0.00  0.00    +0.090 C 
ATOM     13  C   LIG    1       -7.185  -3.473   0.053  0.00  0.00    -0.070 A 
ATOM     14  C   LIG    1       -7.689  -2.810   1.158  0.00  0.00    +0.010 A 
ATOM     15  C   LIG    1       -7.771  -1.433   1.163  0.00  0.00    +0.040 A 
ATOM     16  C   LIG    1       -7.344  -0.708   0.048  0.00  0.00    -0.080 A 
ATOM     17  C   LIG    1       -6.841  -1.383  -1.065  0.00  0.00    +0.040 A 
ATOM     18  C   LIG    1       -6.759  -2.760  -1.054  0.00  0.00    +0.010 A 
ENDBRANCH   1  16
BRANCH   2  19
ATOM     19  C   LIG    1       -4.938   0.934  -0.049  0.00  0.00    +0.440 C 
ATOM     20  O   LIG    1       -4.386   0.758  -1.120  0.00  0.00    -0.440 OA
BRANCH  19  21
ATOM     21  C   LIG    1       -4.278   0.522   1.190  0.00  0.00    -0.080 C 
ATOM     22  C   LIG    1       -3.109  -0.151   1.141  0.00  0.00    +0.130 C 
BRANCH  22  23
ATOM     23  C   LIG    1       -2.445  -0.565   2.387  0.00  0.00    -0.050 A 
ATOM     24  C   LIG    1       -3.025  -0.266   3.625  0.00  0.00    +0.030 A 
ATOM     25  C   LIG    1       -2.395  -0.652   4.789  0.00  0.00    +0.050 A 
ATOM     26  C   LIG    1       -1.195  -1.337   4.737  0.00  0.00    +0.000 A 
ATOM     27  C   LIG    1       -0.615  -1.642   3.515  0.00  0.00    +0.100 A 
ATOM     28  F   LIG    1        0.558  -2.312   3.473  0.00  0.00    -0.140 F 
ATOM     29  C   LIG    1       -1.234  -1.262   2.341  0.00  0.00    +0.010 A 
ENDBRANCH  22  23
ENDBRANCH  19  21
ENDBRANCH   2  19
TORSDOF 4
