REMARK  Name = ZINCpe000000Yo5t.0
REMARK                            x       y       z     vdW  Elec       q    Type
REMARK                         _______ _______ _______ _____ _____    ______ ____
ROOT
ATOM      1  C   LIG    1       -3.331   3.186   1.045  0.00  0.00    +0.230 C 
ATOM      2  C   LIG    1       -3.609   2.705  -0.381  0.00  0.00    +0.020 C 
ATOM      3  C   LIG    1       -3.390   1.193  -0.464  0.00  0.00    +0.030 C 
ATOM      4  C   LIG    1       -1.932   0.872  -0.121  0.00  0.00    +0.260 C 
ATOM      5  N   LIG    1       -1.611   1.457   1.188  0.00  0.00    -0.610 N 
ATOM      6  C   LIG    1       -1.091   0.697   2.171  0.00  0.00    +0.560 C 
ATOM      7  O   LIG    1       -0.765   1.206   3.226  0.00  0.00    -0.520 OA
ATOM      8  C   LIG    1       -1.872   2.887   1.405  0.00  0.00    +0.270 C 
ENDROOT
BRANCH   6   9
ATOM      9  C   LIG    1       -0.916  -0.757   1.967  0.00  0.00    -0.130 A 
ATOM     10  C   LIG    1       -0.265  -1.232   0.828  0.00  0.00    +0.040 A 
ATOM     11  C   LIG    1       -0.102  -2.590   0.646  0.00  0.00    +0.010 A 
ATOM     12  C   LIG    1       -0.591  -3.481   1.585  0.00  0.00    +0.030 A 
ATOM     13  C   LIG    1       -1.242  -3.017   2.714  0.00  0.00    +0.010 A 
ATOM     14  C   LIG    1       -1.408  -1.661   2.911  0.00  0.00    +0.060 A 
ENDBRANCH   6   9
BRANCH   1  16
ATOM     15  C   LIG    1       -3.886   5.190   2.315  0.00  0.00    +0.590 C 
ATOM     16  N   LIG    1       -3.571   4.628   1.131  0.00  0.00    -0.710 N 
ATOM     17  H   LIG    1       -3.502   5.179   0.336  0.00  0.00    +0.410 HD
ATOM     18  O   LIG    1       -3.972   4.499   3.311  0.00  0.00    -0.510 OA
BRANCH  15  22
ATOM     19  C   LIG    1       -4.111   9.422   0.101  0.00  0.00    +0.360 C 
ATOM     20  N   LIG    1       -4.234   8.659   1.345  0.00  0.00    -0.340 N 
ATOM     21  N   LIG    1       -4.029   7.391   1.323  0.00  0.00    -0.180 NA
ATOM     22  C   LIG    1       -4.128   6.646   2.401  0.00  0.00    +0.020 A 
ATOM     23  C   LIG    1       -4.460   7.234   3.646  0.00  0.00    +0.140 A 
ATOM     24  C   LIG    1       -4.676   8.579   3.687  0.00  0.00    -0.010 A 
ATOM     25  C   LIG    1       -4.554   9.306   2.482  0.00  0.00    +0.480 A 
ATOM     26  O   LIG    1       -4.738  10.512   2.471  0.00  0.00    -0.520 OA
ENDBRANCH  15  22
ENDBRANCH   1  16
TORSDOF 3
