REMARK  Name = ZINCrg00001JduUF.0
REMARK                            x       y       z     vdW  Elec       q    Type
REMARK                         _______ _______ _______ _____ _____    ______ ____
ROOT
ATOM      1  C   LIG    1        0.196   4.106   0.461  0.00  0.00    +0.520 C 
ATOM      2  N   LIG    1        1.120   3.184   0.798  0.00  0.00    -0.720 N 
ATOM      3  H   LIG    1        1.691   3.329   1.569  0.00  0.00    +0.410 HD
ATOM      4  O   LIG    1       -0.517   3.925  -0.503  0.00  0.00    -0.500 OA
ENDROOT
BRANCH   2   5
ATOM      5  C   LIG    1        1.263   1.964   0.000  0.00  0.00    +0.160 C 
ATOM      6  C   LIG    1        1.635   2.330  -1.443  0.00  0.00    +0.280 C 
ATOM      7  O   LIG    1        2.808   3.144  -1.413  0.00  0.00    -0.290 OA
ATOM      8  C   LIG    1        3.861   2.713  -0.672  0.00  0.00    +0.130 A 
ATOM      9  C   LIG    1        5.112   3.275  -0.905  0.00  0.00    -0.010 A 
ATOM     10  C   LIG    1        6.206   2.866  -0.169  0.00  0.00    +0.050 A 
ATOM     11  C   LIG    1        6.059   1.895   0.804  0.00  0.00    -0.020 A 
ATOM     12  C   LIG    1        4.818   1.334   1.038  0.00  0.00    +0.050 A 
ATOM     13  C   LIG    1        3.718   1.738   0.301  0.00  0.00    -0.170 A 
ATOM     14  C   LIG    1        2.383   1.096   0.580  0.00  0.00    +0.140 C 
BRANCH   5  15
ATOM     15  C   LIG    1       -0.033   1.196   0.011  0.00  0.00    +0.460 C 
ATOM     16  O   LIG    1       -0.019  -0.013   0.006  0.00  0.00    -0.500 OA
BRANCH  15  17
ATOM     17  O   LIG    1       -1.203   1.853   0.022  0.00  0.00    -0.320 OA
ATOM     18  C   LIG    1       -2.412   1.048   0.026  0.00  0.00    +0.250 C 
ENDBRANCH  15  17
ENDBRANCH   5  15
ENDBRANCH   2   5
BRANCH   1  23
ATOM     19  C   LIG    1       -2.425   7.670   3.610  0.00  0.00    +0.550 C 
ATOM     20  N   LIG    1       -1.382   7.171   2.918  0.00  0.00    -0.610 N 
ATOM     21  C   LIG    1       -1.184   7.522   1.505  0.00  0.00    +0.280 C 
ATOM     22  C   LIG    1       -1.061   6.231   0.689  0.00  0.00    +0.060 C 
ATOM     23  C   LIG    1        0.050   5.361   1.282  0.00  0.00    +0.000 C 
ATOM     24  C   LIG    1       -0.306   4.989   2.723  0.00  0.00    +0.030 C 
ATOM     25  C   LIG    1       -0.420   6.265   3.563  0.00  0.00    +0.280 C 
ATOM     26  O   LIG    1       -3.160   8.490   3.095  0.00  0.00    -0.540 OA
BRANCH  19  28
ATOM     27  C   LIG    1       -3.761   7.635   5.636  0.00  0.00    +0.140 C 
ATOM     28  C   LIG    1       -2.675   7.222   4.989  0.00  0.00    -0.090 C 
ENDBRANCH  19  28
ENDBRANCH   1  23
TORSDOF 5
