REMARK  Name = ZINCvU0000000EdE.0
REMARK                            x       y       z     vdW  Elec       q    Type
REMARK                         _______ _______ _______ _____ _____    ______ ____
ROOT
ATOM      1  O   LIG    1       -1.986   4.609   4.407  0.00  0.00    -0.320 OA
ENDROOT
BRANCH   1   2
ATOM      2  C   LIG    1       -1.539   4.058   5.552  0.00  0.00    +0.520 C 
ATOM      3  O   LIG    1       -1.273   4.765   6.503  0.00  0.00    -0.490 OA
BRANCH   2   4
ATOM      4  C   LIG    1       -1.372   2.594   5.650  0.00  0.00    -0.120 A 
ATOM      5  C   LIG    1       -1.682   1.777   4.561  0.00  0.00    +0.190 A 
ATOM      6  C   LIG    1       -1.529   0.410   4.662  0.00  0.00    -0.190 A 
ATOM      7  C   LIG    1       -1.069  -0.153   5.839  0.00  0.00    +0.180 A 
ATOM      8  C   LIG    1       -0.760   0.650   6.923  0.00  0.00    -0.190 A 
ATOM      9  C   LIG    1       -0.909   2.019   6.835  0.00  0.00    +0.190 A 
BRANCH   8  10
ATOM     10  C   LIG    1       -0.260   0.028   8.201  0.00  0.00    +0.520 C 
ATOM     11  F   LIG    1        0.925  -0.670   7.947  0.00  0.00    -0.170 F 
ATOM     12  F   LIG    1       -1.224  -0.855   8.698  0.00  0.00    -0.170 F 
ATOM     13  F   LIG    1       -0.017   1.032   9.144  0.00  0.00    -0.170 F 
ENDBRANCH   8  10
BRANCH   6  14
ATOM     14  C   LIG    1       -1.864  -0.472   3.487  0.00  0.00    +0.510 C 
ATOM     15  F   LIG    1       -1.055  -1.613   3.515  0.00  0.00    -0.170 F 
ATOM     16  F   LIG    1       -1.639   0.229   2.297  0.00  0.00    -0.170 F 
ATOM     17  F   LIG    1       -3.208  -0.852   3.557  0.00  0.00    -0.170 F 
ENDBRANCH   6  14
ENDBRANCH   2   4
ENDBRANCH   1   2
BRANCH   1  18
ATOM     18  C   LIG    1       -2.126   6.054   4.382  0.00  0.00    +0.270 C 
BRANCH  18  21
ATOM     19  N   LIG    1       -2.841   7.793   2.775  0.00  0.00    -0.670 N 
ATOM     20  H   LIG    1       -2.757   8.446   3.487  0.00  0.00    +0.410 HD
ATOM     21  C   LIG    1       -2.634   6.487   3.030  0.00  0.00    +0.520 C 
ATOM     22  O   LIG    1       -2.856   5.658   2.173  0.00  0.00    -0.490 OA
BRANCH  19  28
ATOM     23  C   LIG    1       -2.274   8.040   0.440  0.00  0.00    -0.060 A 
ATOM     24  C   LIG    1       -2.610   8.447  -0.836  0.00  0.00    +0.010 A 
ATOM     25  C   LIG    1       -3.841   9.031  -1.076  0.00  0.00    +0.020 A 
ATOM     26  C   LIG    1       -4.741   9.204  -0.040  0.00  0.00    +0.010 A 
ATOM     27  C   LIG    1       -4.412   8.795   1.238  0.00  0.00    -0.080 A 
ATOM     28  C   LIG    1       -3.177   8.209   1.481  0.00  0.00    +0.130 A 
BRANCH  23  30
ATOM     29  C   LIG    1       -0.210   7.175  -0.628  0.00  0.00    +0.030 C 
ATOM     30  C   LIG    1       -0.931   7.410   0.701  0.00  0.00    +0.060 C 
ENDBRANCH  23  30
BRANCH  27  31
ATOM     31  C   LIG    1       -5.393   8.985   2.366  0.00  0.00    +0.060 C 
ATOM     32  C   LIG    1       -5.082  10.291   3.098  0.00  0.00    +0.020 C 
ENDBRANCH  27  31
ENDBRANCH  19  28
ENDBRANCH  18  21
ENDBRANCH   1  18
TORSDOF 9
