REMARK  Name = ZINCqH0000033krA.0
REMARK                            x       y       z     vdW  Elec       q    Type
REMARK                         _______ _______ _______ _____ _____    ______ ____
ROOT
ATOM      1  C   LIG    1        1.417   2.055  -0.000  0.00  0.00    +0.060 C 
ENDROOT
BRANCH   1   3
ATOM      2  N   LIG    1        2.554   4.252   0.001  0.00  0.00    -0.610 N 
ATOM      3  C   LIG    1        1.396   3.562   0.008  0.00  0.00    +0.520 C 
ATOM      4  O   LIG    1        0.338   4.154   0.021  0.00  0.00    -0.530 OA
BRANCH   2   6
ATOM      5  C   LIG    1        4.264   3.296  -1.464  0.00  0.00    +0.020 C 
ATOM      6  C   LIG    1        3.833   3.537  -0.015  0.00  0.00    +0.260 C 
ENDBRANCH   2   6
BRANCH   2   7
ATOM      7  C   LIG    1        2.534   5.717   0.009  0.00  0.00    +0.330 C 
BRANCH   7   8
ATOM      8  C   LIG    1        2.541   6.211   1.432  0.00  0.00    -0.110 A 
ATOM      9  C   LIG    1        1.347   6.427   2.094  0.00  0.00    +0.030 A 
ATOM     10  C   LIG    1        1.353   6.877   3.402  0.00  0.00    +0.000 A 
ATOM     11  C   LIG    1        2.553   7.120   4.043  0.00  0.00    +0.000 A 
ATOM     12  C   LIG    1        3.747   6.909   3.379  0.00  0.00    +0.000 A 
ATOM     13  C   LIG    1        3.741   6.455   2.074  0.00  0.00    +0.010 A 
ENDBRANCH   7   8
ENDBRANCH   2   7
ENDBRANCH   1   3
BRANCH   1  14
ATOM     14  C   LIG    1       -0.019   1.526   0.010  0.00  0.00    +0.060 C 
BRANCH  14  15
ATOM     15  C   LIG    1        0.002  -0.004   0.002  0.00  0.00    +0.200 C 
BRANCH  15  16
ATOM     16  O   LIG    1       -1.339  -0.499   0.012  0.00  0.00    -0.290 OA
BRANCH  16  17
ATOM     17  C   LIG    1       -1.498  -1.848   0.006  0.00  0.00    +0.140 A 
ATOM     18  C   LIG    1       -0.386  -2.676  -0.014  0.00  0.00    -0.030 A 
ATOM     19  C   LIG    1       -0.542  -4.046  -0.015  0.00  0.00    +0.080 A 
ATOM     20  C   LIG    1       -1.823  -4.603  -0.006  0.00  0.00    -0.030 A 
ATOM     21  C   LIG    1       -2.944  -3.768   0.009  0.00  0.00    +0.020 A 
ATOM     22  C   LIG    1       -2.780  -2.396   0.016  0.00  0.00    +0.100 A 
BRANCH  20  23
ATOM     23  C   LIG    1       -1.988  -6.025  -0.013  0.00  0.00    +0.250 C 
ATOM     24  N   LIG    1       -2.118  -7.154  -0.019  0.00  0.00    -0.410 NA
ENDBRANCH  20  23
BRANCH  22  25
ATOM     25  O   LIG    1       -3.868  -1.581   0.031  0.00  0.00    -0.300 OA
ATOM     26  C   LIG    1       -5.151  -2.211   0.040  0.00  0.00    +0.250 C 
ENDBRANCH  22  25
ENDBRANCH  16  17
ENDBRANCH  15  16
ENDBRANCH  14  15
ENDBRANCH   1  14
TORSDOF 10
