REMARK  Name = ZINCrH000004tJGg.0
REMARK                            x       y       z     vdW  Elec       q    Type
REMARK                         _______ _______ _______ _____ _____    ______ ____
ROOT
ATOM      1  C   LIG    1       -0.990  -4.431   2.133  0.00  0.00    +0.230 C 
ATOM      2  C   LIG    1       -1.090  -3.346   3.209  0.00  0.00    +0.010 C 
ATOM      3  C   LIG    1        0.063  -2.353   3.036  0.00  0.00    +0.290 C 
ATOM      4  N   LIG    1        0.043  -1.840   1.659  0.00  0.00    -0.620 N 
ATOM      5  C   LIG    1        0.039  -2.801   0.548  0.00  0.00    +0.280 C 
ATOM      6  C   LIG    1        0.022  -0.514   1.420  0.00  0.00    +0.520 C 
ATOM      7  O   LIG    1        0.021   0.269   2.346  0.00  0.00    -0.530 OA
ATOM      8  C   LIG    1       -1.108  -3.790   0.749  0.00  0.00    +0.000 C 
ENDROOT
BRANCH   1  11
ATOM      9  O   LIG    1       -0.907  -6.993   1.301  0.00  0.00    -0.540 OA
ATOM     10  C   LIG    1       -1.930  -6.662   1.861  0.00  0.00    +0.510 C 
ATOM     11  N   LIG    1       -2.072  -5.401   2.316  0.00  0.00    -0.730 N 
ATOM     12  H   LIG    1       -2.890  -5.136   2.764  0.00  0.00    +0.400 HD
BRANCH  10  13
ATOM     13  C   LIG    1       -3.043  -7.660   2.049  0.00  0.00    +0.060 C 
BRANCH  13  14
ATOM     14  C   LIG    1       -2.630  -9.005   1.447  0.00  0.00    +0.100 C 
BRANCH  14  15
ATOM     15  C   LIG    1       -3.743 -10.003   1.635  0.00  0.00    -0.090 A 
ATOM     16  C   LIG    1       -3.780 -10.791   2.770  0.00  0.00    +0.000 A 
ATOM     17  C   LIG    1       -4.804 -11.703   2.945  0.00  0.00    +0.000 A 
ATOM     18  C   LIG    1       -5.785 -11.835   1.980  0.00  0.00    +0.000 A 
ATOM     19  C   LIG    1       -5.744 -11.050   0.842  0.00  0.00    +0.000 A 
ATOM     20  C   LIG    1       -4.723 -10.134   0.670  0.00  0.00    +0.000 A 
ENDBRANCH  14  15
ENDBRANCH  13  14
ENDBRANCH  10  13
ENDBRANCH   1  11
BRANCH   6  21
ATOM     21  C   LIG    1        0.002  -0.004   0.002  0.00  0.00    +0.120 C 
BRANCH  21  22
ATOM     22  C   LIG    1       -0.018   1.503   0.010  0.00  0.00    -0.050 A 
ATOM     23  C   LIG    1       -1.225   2.177   0.020  0.00  0.00    +0.030 A 
ATOM     24  C   LIG    1       -1.244   3.559   0.033  0.00  0.00    +0.040 A 
ATOM     25  C   LIG    1       -0.056   4.268   0.025  0.00  0.00    -0.090 A 
ATOM     26  C   LIG    1        1.151   3.592   0.010  0.00  0.00    +0.040 A 
ATOM     27 BR   LIG    1       -0.082   6.158   0.035  0.00  0.00    -0.050 Br
ATOM     28  C   LIG    1        1.169   2.210   0.003  0.00  0.00    +0.030 A 
ENDBRANCH  21  22
ENDBRANCH   6  21
TORSDOF 6
