REMARK  Name = ZINCqH0000034oVE.0
REMARK                            x       y       z     vdW  Elec       q    Type
REMARK                         _______ _______ _______ _____ _____    ______ ____
ROOT
ATOM      1  C   LIG    1        0.932   1.909  -0.545  0.00  0.00    +0.170 A 
ATOM      2  C   LIG    1        1.644   0.739  -0.716  0.00  0.00    +0.090 A 
ATOM      3  N   LIG    1        0.767  -0.277  -0.778  0.00  0.00    -0.460 NA
ATOM      4  C   LIG    1       -0.463   0.198  -0.654  0.00  0.00    +0.240 A 
ATOM      5  C   LIG    1       -1.722  -0.437  -0.650  0.00  0.00    +0.070 A 
ATOM      6  C   LIG    1       -2.847   0.313  -0.502  0.00  0.00    +0.060 A 
ATOM      7  C   LIG    1       -2.742   1.707  -0.354  0.00  0.00    +0.000 A 
ATOM      8  C   LIG    1       -1.532   2.303  -0.354  0.00  0.00    +0.250 A 
ATOM      9  N   LIG    1       -0.392   1.563  -0.507  0.00  0.00    -0.350 N 
ENDROOT
BRANCH   2  10
ATOM     10  C   LIG    1        3.118   0.624  -0.814  0.00  0.00    -0.000 A 
ATOM     11  C   LIG    1        3.858   1.622  -1.449  0.00  0.00    -0.020 A 
ATOM     12  C   LIG    1        5.231   1.511  -1.532  0.00  0.00    +0.020 A 
ATOM     13  C   LIG    1        5.873   0.409  -0.997  0.00  0.00    +0.020 A 
ATOM     14  C   LIG    1        5.144  -0.586  -0.371  0.00  0.00    +0.020 A 
ATOM     15  C   LIG    1        3.771  -0.485  -0.277  0.00  0.00    +0.050 A 
ENDBRANCH   2  10
BRANCH   1  17
ATOM     16  C   LIG    1        0.816   4.125   0.298  0.00  0.00    +0.580 C 
ATOM     17  N   LIG    1        1.459   3.195  -0.434  0.00  0.00    -0.640 N 
ATOM     18  H   LIG    1        2.288   3.419  -0.884  0.00  0.00    +0.420 HD
ATOM     19  O   LIG    1       -0.169   3.818   0.943  0.00  0.00    -0.500 OA
BRANCH  16  25
ATOM     20  N   LIG    1        2.460   5.983  -0.239  0.00  0.00    -0.270 N 
ATOM     21  N   LIG    1        2.560   7.245  -0.025  0.00  0.00    -0.260 NA
ATOM     22  C   LIG    1        1.533   7.687   0.655  0.00  0.00    +0.030 A 
ATOM     23  C   LIG    1        0.684   6.604   0.900  0.00  0.00    +0.030 A 
ATOM     24  C   LIG    1        1.303   9.111   1.092  0.00  0.00    +0.170 C 
ATOM     25  C   LIG    1        1.305   5.513   0.318  0.00  0.00    -0.050 A 
BRANCH  20  27
ATOM     26  C   LIG    1        2.936   4.932  -2.396  0.00  0.00    +0.060 C 
ATOM     27  C   LIG    1        3.437   5.171  -0.970  0.00  0.00    +0.330 C 
ENDBRANCH  20  27
ENDBRANCH  16  25
ENDBRANCH   1  17
TORSDOF 4
