REMARK  Name = ZINCqH0000051kIL.0
REMARK                            x       y       z     vdW  Elec       q    Type
REMARK                         _______ _______ _______ _____ _____    ______ ____
ROOT
ATOM      1  O   LIG    1        3.981   2.189  -0.634  0.00  0.00    -0.520 OA
ATOM      2  C   LIG    1        3.392   1.487  -1.432  0.00  0.00    +0.600 C 
ATOM      3  N   LIG    1        2.108   1.143  -1.208  0.00  0.00    -0.710 N 
ATOM      4  H   LIG    1        1.639   0.582  -1.845  0.00  0.00    +0.410 HD
ENDROOT
BRANCH   2   5
ATOM      5  C   LIG    1        4.086   1.009  -2.652  0.00  0.00    -0.020 A 
ATOM      6  N   LIG    1        3.584   0.251  -3.596  0.00  0.00    -0.320 NA
ATOM      7  O   LIG    1        4.391   0.026  -4.468  0.00  0.00    +0.140 OA
ATOM      8  C   LIG    1        5.572   0.618  -4.217  0.00  0.00    +0.020 A 
ATOM      9  C   LIG    1        5.425   1.286  -3.034  0.00  0.00    +0.030 A 
BRANCH   8  10
ATOM     10  C   LIG    1        6.787   0.562  -5.059  0.00  0.00    -0.010 A 
ATOM     11  C   LIG    1        6.781  -0.161  -6.252  0.00  0.00    +0.050 A 
ATOM     12  C   LIG    1        7.917  -0.209  -7.033  0.00  0.00    +0.040 A 
ATOM     13  C   LIG    1        9.062   0.459  -6.636  0.00  0.00    +0.050 A 
ATOM     14  C   LIG    1        9.075   1.179  -5.454  0.00  0.00    -0.030 A 
ATOM     15 CL   LIG    1       10.516   2.015  -4.964  0.00  0.00    -0.060 Cl
ATOM     16  C   LIG    1        7.943   1.239  -4.665  0.00  0.00    +0.060 A 
ENDBRANCH   8  10
ENDBRANCH   2   5
BRANCH   3  17
ATOM     17  C   LIG    1        1.423   1.615  -0.003  0.00  0.00    +0.260 C 
BRANCH  17  18
ATOM     18  C   LIG    1       -0.013   1.086   0.008  0.00  0.00    +0.260 C 
BRANCH  18  19
ATOM     19  C   LIG    1       -0.718   1.572   1.248  0.00  0.00    -0.100 A 
ATOM     20  C   LIG    1       -1.313   2.819   1.260  0.00  0.00    +0.050 A 
ATOM     21  C   LIG    1       -1.966   3.265   2.394  0.00  0.00    +0.030 A 
ATOM     22  C   LIG    1       -2.014   2.467   3.523  0.00  0.00    +0.070 A 
ATOM     23  C   LIG    1       -1.412   1.217   3.513  0.00  0.00    +0.070 A 
ATOM     24  F   LIG    1       -1.458   0.436   4.614  0.00  0.00    -0.120 F 
ATOM     25  F   LIG    1       -2.647   2.904   4.634  0.00  0.00    -0.120 F 
ATOM     26  C   LIG    1       -0.765   0.772   2.374  0.00  0.00    +0.040 A 
ENDBRANCH  18  19
BRANCH  18  27
ATOM     27  O   LIG    1       -0.704   1.559  -1.150  0.00  0.00    -0.540 OA
ATOM     28  H   LIG    1       -0.756   2.523  -1.210  0.00  0.00    +0.380 HD
ENDBRANCH  18  27
ENDBRANCH  17  18
ENDBRANCH   3  17
TORSDOF 6
