REMARK  Name = ZINCvU0000000Bu3.0
REMARK                            x       y       z     vdW  Elec       q    Type
REMARK                         _______ _______ _______ _____ _____    ______ ____
ROOT
ATOM      1  C   LIG    1       -0.735  -2.276  -0.223  0.00  0.00    +0.160 A 
ATOM      2  N   LIG    1        0.545  -2.108  -0.396  0.00  0.00    -0.270 NA
ATOM      3  N   LIG    1        0.834  -0.856  -0.371  0.00  0.00    -0.290 NA
ATOM      4  C   LIG    1       -0.257  -0.151  -0.178  0.00  0.00    +0.160 A 
ATOM      5  N   LIG    1       -1.291  -1.036  -0.071  0.00  0.00    -0.450 N 
ENDROOT
BRANCH   1   6
ATOM      6  C   LIG    1       -1.467  -3.593  -0.188  0.00  0.00    +0.260 C 
BRANCH   6   7
ATOM      7  N   LIG    1       -0.871  -4.457   0.840  0.00  0.00    -0.520 NA
ATOM      8  C   LIG    1       -1.107  -3.915   2.184  0.00  0.00    +0.190 C 
ATOM      9  C   LIG    1        0.564  -4.654   0.595  0.00  0.00    +0.210 C 
ENDBRANCH   6   7
BRANCH   6  11
ATOM     10  C   LIG    1       -2.177  -5.565  -1.548  0.00  0.00    +0.040 C 
ATOM     11  C   LIG    1       -1.356  -4.274  -1.554  0.00  0.00    +0.040 C 
ENDBRANCH   6  11
ENDBRANCH   1   6
BRANCH   4  12
ATOM     12  S   LIG    1       -0.364   1.605  -0.069  0.00  0.00    +0.020 S 
BRANCH  12  13
ATOM     13  C   LIG    1        1.378   2.040  -0.295  0.00  0.00    +0.200 C 
BRANCH  13  14
ATOM     14  C   LIG    1        1.533   3.538  -0.238  0.00  0.00    +0.080 A 
ATOM     15  C   LIG    1        1.450   4.303  -1.332  0.00  0.00    -0.040 A 
ATOM     16  S   LIG    1        1.680   5.982  -0.849  0.00  0.00    +0.110 S 
ATOM     17  C   LIG    1        1.879   5.468   0.825  0.00  0.00    +0.120 A 
ATOM     18  N   LIG    1        1.762   4.173   0.888  0.00  0.00    -0.450 NA
BRANCH  17  19
ATOM     19  C   LIG    1        2.136   6.364   1.973  0.00  0.00    -0.030 A 
ATOM     20  C   LIG    1        2.269   5.836   3.258  0.00  0.00    +0.070 A 
ATOM     21  C   LIG    1        2.515   6.677   4.324  0.00  0.00    +0.010 A 
ATOM     22  C   LIG    1        2.619   8.042   4.123  0.00  0.00    +0.030 A 
ATOM     23  C   LIG    1        2.482   8.572   2.852  0.00  0.00    +0.010 A 
ATOM     24  C   LIG    1        2.241   7.742   1.777  0.00  0.00    +0.030 A 
ENDBRANCH  17  19
ENDBRANCH  13  14
ENDBRANCH  12  13
ENDBRANCH   4  12
BRANCH   5  25
ATOM     25  C   LIG    1       -2.704  -0.721   0.154  0.00  0.00    +0.370 C 
BRANCH  25  26
ATOM     26  C   LIG    1       -3.397  -0.540  -1.172  0.00  0.00    -0.120 A 
ATOM     27  C   LIG    1       -3.456   0.712  -1.755  0.00  0.00    +0.040 A 
ATOM     28  C   LIG    1       -4.087   0.877  -2.974  0.00  0.00    +0.010 A 
ATOM     29  C   LIG    1       -4.668  -0.207  -3.604  0.00  0.00    +0.030 A 
ATOM     30  C   LIG    1       -4.613  -1.458  -3.018  0.00  0.00    +0.010 A 
ATOM     31  C   LIG    1       -3.978  -1.625  -1.802  0.00  0.00    +0.020 A 
ENDBRANCH  25  26
ENDBRANCH   5  25
TORSDOF 9
