REMARK  Name = ZINCvU0000000CiU.0
REMARK                            x       y       z     vdW  Elec       q    Type
REMARK                         _______ _______ _______ _____ _____    ______ ____
ROOT
ATOM      1  C   LIG    1       -0.252   6.604  -2.573  0.00  0.00    +0.300 A 
ATOM      2  N   LIG    1        0.451   6.770  -3.655  0.00  0.00    -0.480 NA
ATOM      3  C   LIG    1       -0.342   6.606  -4.745  0.00  0.00    +0.050 A 
ATOM      4  C   LIG    1       -0.113   6.668  -6.122  0.00  0.00    +0.070 A 
ATOM      5  C   LIG    1       -1.143   6.458  -6.994  0.00  0.00    +0.000 A 
ATOM      6  C   LIG    1       -2.421   6.183  -6.527  0.00  0.00    +0.030 A 
ATOM      7  C   LIG    1       -2.670   6.116  -5.172  0.00  0.00    +0.010 A 
ATOM      8  C   LIG    1       -1.635   6.327  -4.271  0.00  0.00    +0.060 A 
ATOM      9  N   LIG    1       -1.546   6.333  -2.894  0.00  0.00    -0.470 N 
ENDROOT
BRANCH   1  10
ATOM     10  C   LIG    1        0.287   6.705  -1.170  0.00  0.00    +0.200 C 
BRANCH  10  14
ATOM     11  C   LIG    1        1.633   2.859   0.119  0.00  0.00    +0.130 A 
ATOM     12  C   LIG    1        0.319   3.246   0.342  0.00  0.00    -0.080 A 
ATOM     13  C   LIG    1       -0.112   4.492  -0.071  0.00  0.00    +0.040 A 
ATOM     14  C   LIG    1        0.761   5.348  -0.715  0.00  0.00    -0.120 A 
ATOM     15  C   LIG    1        2.070   4.963  -0.943  0.00  0.00    +0.080 A 
ATOM     16  C   LIG    1        2.507   3.720  -0.527  0.00  0.00    -0.020 A 
BRANCH  11  18
ATOM     17  C   LIG    1        1.106   0.802   1.188  0.00  0.00    +0.250 C 
ATOM     18  O   LIG    1        2.061   1.636   0.529  0.00  0.00    -0.320 OA
ENDBRANCH  11  18
ENDBRANCH  10  14
ENDBRANCH   1  10
BRANCH   9  19
ATOM     19  C   LIG    1       -2.641   6.090  -1.952  0.00  0.00    +0.330 C 
BRANCH  19  20
ATOM     20  C   LIG    1       -3.312   7.397  -1.614  0.00  0.00    +0.500 C 
ATOM     21  N   LIG    1       -4.354   7.419  -0.760  0.00  0.00    -0.570 N 
ATOM     22  O   LIG    1       -2.914   8.429  -2.112  0.00  0.00    -0.500 OA
BRANCH  21  23
ATOM     23  C   LIG    1       -4.907   8.641  -0.362  0.00  0.00    +0.140 A 
ATOM     24  C   LIG    1       -4.319   9.372   0.662  0.00  0.00    +0.010 A 
ATOM     25  C   LIG    1       -4.864  10.580   1.048  0.00  0.00    +0.020 A 
ATOM     26  C   LIG    1       -6.002  11.058   0.423  0.00  0.00    +0.020 A 
ATOM     27  C   LIG    1       -6.593  10.331  -0.593  0.00  0.00    +0.020 A 
ATOM     28  C   LIG    1       -6.050   9.124  -0.987  0.00  0.00    +0.010 A 
ENDBRANCH  21  23
BRANCH  21  29
ATOM     29  C   LIG    1       -4.907   6.163  -0.247  0.00  0.00    +0.220 C 
ATOM     30  C   LIG    1       -6.363   6.026  -0.696  0.00  0.00    +0.030 C 
ATOM     31  C   LIG    1       -4.842   6.164   1.282  0.00  0.00    +0.030 C 
ENDBRANCH  21  29
ENDBRANCH  19  20
ENDBRANCH   9  19
TORSDOF 7
