REMARK  Name = ZINCrg00000ybzZZ.0
REMARK                            x       y       z     vdW  Elec       q    Type
REMARK                         _______ _______ _______ _____ _____    ______ ____
ROOT
ATOM      1  C   LIG    1       -1.181   1.530   6.583  0.00  0.00    +0.180 C 
ENDROOT
BRANCH   1   2
ATOM      2  O   LIG    1       -2.258   1.494   5.644  0.00  0.00    -0.540 OA
ATOM      3  H   LIG    1       -2.514   2.362   5.305  0.00  0.00    +0.380 HD
ENDBRANCH   1   2
BRANCH   1   4
ATOM      4  C   LIG    1        0.056   2.137   5.917  0.00  0.00    +0.260 C 
BRANCH   4   6
ATOM      5  C   LIG    1       -0.070   1.590   3.546  0.00  0.00    +0.520 C 
ATOM      6  N   LIG    1        0.441   1.320   4.764  0.00  0.00    -0.610 N 
ATOM      7  C   LIG    1        1.380   0.209   4.934  0.00  0.00    +0.280 C 
ATOM      8  O   LIG    1       -0.772   2.566   3.385  0.00  0.00    -0.510 OA
BRANCH   5   9
ATOM      9  C   LIG    1        0.232   0.679   2.384  0.00  0.00    +0.160 C 
BRANCH   9  10
ATOM     10  C   LIG    1       -0.575  -0.613   2.526  0.00  0.00    +0.020 C 
ATOM     11  C   LIG    1       -0.158  -1.597   1.431  0.00  0.00    +0.010 C 
ENDBRANCH   9  10
BRANCH   9  12
ATOM     12  O   LIG    1       -0.124   1.331   1.163  0.00  0.00    -0.350 OA
BRANCH  12  14
ATOM     13  C   LIG    1        0.319   1.844  -1.157  0.00  0.00    +0.040 C 
ATOM     14  C   LIG    1        0.815   1.134   0.104  0.00  0.00    +0.160 C 
ENDBRANCH  12  14
ENDBRANCH   9  12
ENDBRANCH   5   9
ENDBRANCH   4   6
ENDBRANCH   1   4
BRANCH   1  15
ATOM     15  C   LIG    1       -1.583   2.384   7.787  0.00  0.00    +0.260 C 
BRANCH  15  16
ATOM     16  N   LIG    1       -2.692   1.739   8.494  0.00  0.00    -0.600 N 
ATOM     17  C   LIG    1       -3.965   2.023   8.154  0.00  0.00    +0.580 C 
ATOM     18  O   LIG    1       -4.192   2.744   7.201  0.00  0.00    -0.510 OA
ATOM     19  C   LIG    1       -2.418   0.786   9.572  0.00  0.00    +0.290 C 
BRANCH  17  20
ATOM     20  C   LIG    1       -5.079   1.461   8.935  0.00  0.00    -0.120 A 
ATOM     21  C   LIG    1       -5.497   2.062  10.116  0.00  0.00    +0.110 A 
ATOM     22  C   LIG    1       -6.562   1.501  10.826  0.00  0.00    -0.010 A 
ATOM     23  C   LIG    1       -7.183   0.383  10.392  0.00  0.00    +0.300 A 
ATOM     24  N   LIG    1       -6.807  -0.247   9.244  0.00  0.00    -0.280 N 
ATOM     25  N   LIG    1       -7.280  -1.395   8.595  0.00  0.00    -0.310 NA
ATOM     26  C   LIG    1       -6.573  -1.589   7.505  0.00  0.00    +0.280 A 
ATOM     27  C   LIG    1       -5.620  -0.585   7.401  0.00  0.00    -0.110 A 
ATOM     28  C   LIG    1       -5.772   0.250   8.492  0.00  0.00    +0.120 A 
ENDBRANCH  17  20
ENDBRANCH  15  16
ENDBRANCH   1  15
TORSDOF 10
