REMARK  Name = ZINCrD00000l6PTW.0
REMARK                            x       y       z     vdW  Elec       q    Type
REMARK                         _______ _______ _______ _____ _____    ______ ____
ROOT
ATOM      1  C   LIG    1       -7.291   1.288  -1.827  0.00  0.00    +0.290 C 
ENDROOT
BRANCH   1   9
ATOM      2  N   LIG    1       -6.552   5.905  -6.172  0.00  0.00    -0.520 N 
ATOM      3  C   LIG    1       -5.360   5.429  -5.762  0.00  0.00    +0.570 A 
ATOM      4  N   LIG    1       -5.277   4.440  -4.916  0.00  0.00    -0.540 NA
ATOM      5  C   LIG    1       -6.368   3.846  -4.412  0.00  0.00    +0.180 A 
ATOM      6  C   LIG    1       -7.597   4.285  -4.782  0.00  0.00    -0.240 A 
ATOM      7  C   LIG    1       -8.862   3.670  -4.248  0.00  0.00    +0.110 C 
ATOM      8  C   LIG    1       -8.558   2.308  -3.624  0.00  0.00    +0.180 C 
ATOM      9  N   LIG    1       -7.424   2.463  -2.698  0.00  0.00    -0.530 NA
ATOM     10  C   LIG    1       -6.187   2.705  -3.446  0.00  0.00    +0.280 C 
ATOM     11  C   LIG    1       -7.690   5.354  -5.700  0.00  0.00    +0.520 A 
ATOM     12  O   LIG    1       -8.778   5.772  -6.060  0.00  0.00    -0.530 OA
BRANCH   2  14
ATOM     13  C   LIG    1       -6.635   8.342  -6.363  0.00  0.00    +0.030 C 
ATOM     14  C   LIG    1       -6.613   7.016  -7.126  0.00  0.00    +0.290 C 
ENDBRANCH   2  14
ENDBRANCH   1   9
BRANCH   1  15
ATOM     15  C   LIG    1       -6.272   1.571  -0.753  0.00  0.00    +0.110 A 
ATOM     16  C   LIG    1       -6.607   2.017   0.459  0.00  0.00    -0.100 A 
ATOM     17  S   LIG    1       -5.129   2.208   1.399  0.00  0.00    +0.140 S 
ATOM     18  C   LIG    1       -4.200   1.679   0.065  0.00  0.00    +0.300 A 
ATOM     19  N   LIG    1       -4.976   1.399  -0.936  0.00  0.00    -0.530 NA
BRANCH  18  20
ATOM     20  N   LIG    1       -2.818   1.561   0.057  0.00  0.00    -0.630 N 
ATOM     21  H   LIG    1       -2.355   1.345  -0.768  0.00  0.00    +0.420 HD
BRANCH  20  22
ATOM     22  C   LIG    1       -2.093   1.752   1.236  0.00  0.00    +0.160 A 
ATOM     23  C   LIG    1       -2.644   1.390   2.458  0.00  0.00    -0.030 A 
ATOM     24  C   LIG    1       -1.927   1.586   3.623  0.00  0.00    +0.040 A 
ATOM     25  C   LIG    1       -0.660   2.138   3.571  0.00  0.00    -0.010 A 
ATOM     26  C   LIG    1       -0.107   2.495   2.355  0.00  0.00    +0.040 A 
ATOM     27  C   LIG    1       -0.818   2.302   1.188  0.00  0.00    -0.110 A 
ATOM     28  C   LIG    1       -0.214   2.692  -0.137  0.00  0.00    +0.090 C 
ENDBRANCH  20  22
ENDBRANCH  18  20
ENDBRANCH   1  15
TORSDOF 5
