REMARK  Name = ZINCnE000001UaN2.0
REMARK                            x       y       z     vdW  Elec       q    Type
REMARK                         _______ _______ _______ _____ _____    ______ ____
ROOT
ATOM      1  N   LIG    1       -2.743   5.489   1.478  0.00  0.00    -1.090 NA
ATOM      2  H   LIG    1       -3.318   5.228   2.214  0.00  0.00    +0.410 HD
ENDROOT
BRANCH   1   3
ATOM      3  C   LIG    1       -1.788   6.587   1.649  0.00  0.00    +0.240 C 
ATOM      4  C   LIG    1       -2.453   7.940   1.955  0.00  0.00    +0.030 C 
ATOM      5  C   LIG    1       -2.360   7.556   3.444  0.00  0.00    +0.020 C 
ATOM      6  C   LIG    1       -1.174   6.656   3.057  0.00  0.00    +0.040 C 
BRANCH   5   7
ATOM      7  C   LIG    1       -1.977   8.706   4.340  0.00  0.00    -0.030 A 
ATOM      8  C   LIG    1       -2.549   8.824   5.593  0.00  0.00    +0.000 A 
ATOM      9  C   LIG    1       -2.199   9.878   6.417  0.00  0.00    +0.040 A 
ATOM     10  C   LIG    1       -1.277  10.814   5.989  0.00  0.00    -0.030 A 
ATOM     11  C   LIG    1       -0.704  10.696   4.734  0.00  0.00    +0.100 A 
ATOM     12  F   LIG    1        0.198  11.611   4.314  0.00  0.00    -0.140 F 
ATOM     13  C   LIG    1       -1.051   9.638   3.912  0.00  0.00    -0.010 A 
ENDBRANCH   5   7
ENDBRANCH   1   3
BRANCH   1  15
ATOM     14  O   LIG    1       -3.890   3.745   0.161  0.00  0.00    -0.960 OA
ATOM     15  S   LIG    1       -2.841   4.695   0.028  0.00  0.00    +2.720 S 
ATOM     16  O   LIG    1       -1.511   4.340  -0.325  0.00  0.00    -1.000 OA
BRANCH  15  17
ATOM     17  C   LIG    1       -3.380   5.866  -1.173  0.00  0.00    -0.810 A 
ATOM     18  C   LIG    1       -2.545   6.221  -2.215  0.00  0.00    +0.160 A 
ATOM     19  C   LIG    1       -2.966   7.145  -3.156  0.00  0.00    -0.170 A 
ATOM     20  C   LIG    1       -4.227   7.706  -3.061  0.00  0.00    +0.080 A 
ATOM     21  C   LIG    1       -5.066   7.349  -2.023  0.00  0.00    -0.130 A 
ATOM     22 CL   LIG    1       -1.913   7.594  -4.460  0.00  0.00    -0.120 Cl
ATOM     23  C   LIG    1       -4.645   6.428  -1.076  0.00  0.00    +0.350 A 
ATOM     24  O   LIG    1       -5.469   6.076  -0.055  0.00  0.00    -0.680 OA
ENDBRANCH  15  17
ENDBRANCH   1  15
TORSDOF 4
