REMARK  Name = ZINCqH0000051c3Y.0
REMARK                            x       y       z     vdW  Elec       q    Type
REMARK                         _______ _______ _______ _____ _____    ______ ____
ROOT
ATOM      1  O   LIG    1       -1.350  -0.904  -0.099  0.00  0.00    -0.490 OA
ATOM      2  C   LIG    1       -2.409  -0.311  -0.091  0.00  0.00    +0.540 C 
ATOM      3  N   LIG    1       -2.428   1.032   0.019  0.00  0.00    -0.660 N 
ATOM      4  H   LIG    1       -3.274   1.499   0.102  0.00  0.00    +0.420 HD
ENDROOT
BRANCH   3   5
ATOM      5  C   LIG    1       -1.227   1.753   0.012  0.00  0.00    +0.150 A 
ATOM      6  C   LIG    1       -1.112   2.916   0.763  0.00  0.00    +0.010 A 
ATOM      7  C   LIG    1        0.071   3.628   0.765  0.00  0.00    +0.060 A 
ATOM      8  C   LIG    1        1.146   3.184   0.011  0.00  0.00    +0.080 A 
ATOM      9  N   LIG    1        2.438   3.670  -0.189  0.00  0.00    -0.640 N 
ATOM     10  H   LIG    1        2.812   4.471   0.211  0.00  0.00    +0.440 HD
ATOM     11  C   LIG    1        3.078   2.838  -1.032  0.00  0.00    +0.690 A 
ATOM     12  N   LIG    1        2.257   1.832  -1.387  0.00  0.00    -0.640 N 
ATOM     13  H   LIG    1        2.479   1.102  -1.986  0.00  0.00    +0.440 HD
ATOM     14  O   LIG    1        4.225   2.974  -1.414  0.00  0.00    -0.550 OA
ATOM     15  C   LIG    1        1.032   2.018  -0.750  0.00  0.00    +0.110 A 
ATOM     16  C   LIG    1       -0.157   1.306  -0.750  0.00  0.00    +0.040 A 
ENDBRANCH   3   5
BRANCH   2  17
ATOM     17  C   LIG    1       -3.702  -1.077  -0.203  0.00  0.00    +0.080 C 
BRANCH  17  18
ATOM     18  S   LIG    1       -3.345  -2.847  -0.335  0.00  0.00    +0.120 S 
BRANCH  18  19
ATOM     19  C   LIG    1       -4.985  -3.482  -0.449  0.00  0.00    +0.040 A 
ATOM     20  N   LIG    1       -5.297  -4.736  -0.564  0.00  0.00    -0.440 NA
ATOM     21  C   LIG    1       -6.595  -5.029  -0.637  0.00  0.00    +0.120 A 
ATOM     22  C   LIG    1       -7.426  -3.974  -0.582  0.00  0.00    -0.050 A 
ATOM     23  S   LIG    1       -6.455  -2.513  -0.418  0.00  0.00    +0.080 S 
BRANCH  21  24
ATOM     24  C   LIG    1       -7.087  -6.421  -0.770  0.00  0.00    -0.030 A 
ATOM     25  C   LIG    1       -8.456  -6.676  -0.837  0.00  0.00    +0.020 A 
ATOM     26  C   LIG    1       -8.909  -7.973  -0.965  0.00  0.00    +0.010 A 
ATOM     27  C   LIG    1       -8.008  -9.021  -1.018  0.00  0.00    +0.020 A 
ATOM     28  C   LIG    1       -6.648  -8.775  -0.946  0.00  0.00    +0.010 A 
ATOM     29  C   LIG    1       -6.184  -7.481  -0.823  0.00  0.00    +0.050 A 
ENDBRANCH  21  24
ENDBRANCH  18  19
ENDBRANCH  17  18
ENDBRANCH   2  17
TORSDOF 5
