REMARK  Name = ZINCrD00000hQ6uN.0
REMARK                            x       y       z     vdW  Elec       q    Type
REMARK                         _______ _______ _______ _____ _____    ______ ____
ROOT
ATOM      1  C   LIG    1       -7.141   4.224   0.104  0.00  0.00    +0.610 C 
ATOM      2  N   LIG    1       -5.913   3.727  -0.144  0.00  0.00    -0.610 N 
ATOM      3  C   LIG    1       -5.544   2.885  -1.296  0.00  0.00    +0.270 C 
ATOM      4  C   LIG    1       -4.019   3.099  -1.471  0.00  0.00    +0.020 C 
ATOM      5  C   LIG    1       -3.548   3.203   0.003  0.00  0.00    +0.160 C 
ATOM      6  C   LIG    1       -4.720   3.934   0.690  0.00  0.00    +0.290 C 
ATOM      7  O   LIG    1       -7.337   4.894   1.101  0.00  0.00    -0.540 OA
ENDROOT
BRANCH   1  12
ATOM      8  N   LIG    1       -9.497   4.523  -0.788  0.00  0.00    -0.400 N 
ATOM      9  C   LIG    1      -10.227   4.029  -1.817  0.00  0.00    +0.190 A 
ATOM     10  C   LIG    1       -9.466   3.150  -2.513  0.00  0.00    -0.070 A 
ATOM     11  C   LIG    1       -8.210   3.094  -1.902  0.00  0.00    +0.010 A 
ATOM     12  C   LIG    1       -8.242   3.958  -0.829  0.00  0.00    -0.050 A 
BRANCH   8  14
ATOM     13  C   LIG    1      -10.495   6.739  -0.518  0.00  0.00    +0.040 C 
ATOM     14  C   LIG    1       -9.964   5.497   0.201  0.00  0.00    +0.230 C 
ATOM     15  C   LIG    1      -11.083   4.876   1.040  0.00  0.00    +0.040 C 
ENDBRANCH   8  14
ENDBRANCH   1  12
BRANCH   5  16
ATOM     16  O   LIG    1       -2.347   3.972   0.097  0.00  0.00    -0.280 OA
BRANCH  16  17
ATOM     17  C   LIG    1       -1.171   3.292   0.029  0.00  0.00    +0.080 A 
ATOM     18  C   LIG    1       -1.163   1.915  -0.129  0.00  0.00    -0.010 A 
ATOM     19  C   LIG    1        0.062   1.262  -0.188  0.00  0.00    -0.020 A 
ATOM     20  C   LIG    1        1.225   1.998  -0.099  0.00  0.00    +0.250 A 
ATOM     21  N   LIG    1        1.189   3.310   0.047  0.00  0.00    -0.480 NA
ATOM     22  C   LIG    1        0.045   3.971   0.113  0.00  0.00    +0.280 A 
BRANCH  22  23
ATOM     23  N   LIG    1        0.055   5.355   0.268  0.00  0.00    -0.450 N 
ATOM     24  C   LIG    1       -0.588   5.752   1.546  0.00  0.00    +0.200 C 
ATOM     25  C   LIG    1       -0.033   7.178   1.793  0.00  0.00    +0.040 C 
ATOM     26  C   LIG    1        1.428   7.071   1.299  0.00  0.00    +0.010 C 
ATOM     27  C   LIG    1        1.439   5.871   0.334  0.00  0.00    +0.200 C 
ENDBRANCH  22  23
ENDBRANCH  16  17
ENDBRANCH   5  16
TORSDOF 5
