REMARK  Name = ZINCnE000001FIKL.0
REMARK                            x       y       z     vdW  Elec       q    Type
REMARK                         _______ _______ _______ _____ _____    ______ ____
ROOT
ATOM      1  C   LIG    1       -1.707   3.968   1.393  0.00  0.00    +0.620 C 
ATOM      2  N   LIG    1       -1.548   2.785   0.766  0.00  0.00    -0.610 N 
ATOM      3  C   LIG    1       -1.991   2.415  -0.600  0.00  0.00    +0.280 C 
ATOM      4  C   LIG    1       -2.500   0.964  -0.462  0.00  0.00    +0.070 C 
ATOM      5  C   LIG    1       -1.778   0.402   0.781  0.00  0.00    -0.200 C 
ATOM      6  C   LIG    1       -0.893   1.562   1.285  0.00  0.00    +0.300 C 
ATOM      7  O   LIG    1       -2.221   4.903   0.807  0.00  0.00    -0.540 OA
ENDROOT
BRANCH   1  11
ATOM      8  C   LIG    1       -0.953   5.109   4.826  0.00  0.00    -0.130 A 
ATOM      9  C   LIG    1       -0.315   3.959   5.070  0.00  0.00    -0.220 A 
ATOM     10  S   LIG    1       -0.355   2.937   3.704  0.00  0.00    +0.230 S 
ATOM     11  C   LIG    1       -1.260   4.128   2.779  0.00  0.00    -0.260 A 
ATOM     12  C   LIG    1        0.345   3.610   6.378  0.00  0.00    +0.150 C 
ATOM     13  C   LIG    1       -1.485   5.225   3.563  0.00  0.00    +0.100 A 
BRANCH   8  14
ATOM     14  C   LIG    1       -1.081   6.198   5.859  0.00  0.00    +0.080 C 
BRANCH  14  16
ATOM     15  C   LIG    1        0.040   8.186   6.878  0.00  0.00    +0.000 C 
ATOM     16  C   LIG    1        0.169   7.080   5.828  0.00  0.00    +0.000 C 
ENDBRANCH  14  16
ENDBRANCH   8  14
ENDBRANCH   1  11
BRANCH   5  17
ATOM     17  C   LIG    1       -0.913  -0.800   0.395  0.00  0.00    +0.480 C 
ATOM     18  F   LIG    1       -1.724  -1.800  -0.152  0.00  0.00    -0.180 F 
ATOM     19  F   LIG    1       -0.267  -1.294   1.534  0.00  0.00    -0.170 F 
ATOM     20  F   LIG    1        0.041  -0.405  -0.548  0.00  0.00    -0.200 F 
ENDBRANCH   5  17
BRANCH   5  21
ATOM     21  C   LIG    1       -2.779   0.010   1.836  0.00  0.00    +0.510 C 
ATOM     22  O   LIG    1       -3.841   0.604   1.920  0.00  0.00    -0.660 OA
ATOM     23  O   LIG    1       -2.527  -0.901   2.606  0.00  0.00    -0.670 OA
ENDBRANCH   5  21
TORSDOF 5
