REMARK  Name = ZINCqH0000008lyV.0
REMARK                            x       y       z     vdW  Elec       q    Type
REMARK                         _______ _______ _______ _____ _____    ______ ____
ROOT
ATOM      1  N   LIG    1       -3.420  10.182  -1.888  0.00  0.00    -0.730 N 
ATOM      2  H   LIG    1       -3.981   9.750  -2.552  0.00  0.00    +0.400 HD
ATOM      3  C   LIG    1       -2.565   9.448  -1.149  0.00  0.00    +0.510 C 
ATOM      4  O   LIG    1       -1.864   9.987  -0.319  0.00  0.00    -0.530 OA
ENDROOT
BRANCH   1   6
ATOM      5  C   LIG    1       -4.466  11.934  -0.540  0.00  0.00    +0.040 C 
ATOM      6  C   LIG    1       -3.503  11.631  -1.689  0.00  0.00    +0.290 C 
BRANCH   6   7
ATOM      7  C   LIG    1       -4.005  12.283  -2.952  0.00  0.00    -0.140 A 
ATOM      8  C   LIG    1       -4.774  11.560  -3.844  0.00  0.00    +0.080 A 
ATOM      9  C   LIG    1       -5.236  12.158  -5.002  0.00  0.00    -0.010 A 
ATOM     10  C   LIG    1       -4.928  13.481  -5.269  0.00  0.00    +0.130 A 
ATOM     11  C   LIG    1       -4.157  14.206  -4.376  0.00  0.00    -0.040 A 
ATOM     12  F   LIG    1       -5.379  14.064  -6.401  0.00  0.00    -0.130 F 
ATOM     13  C   LIG    1       -3.700  13.608  -3.214  0.00  0.00    +0.140 A 
ATOM     14  F   LIG    1       -2.953  14.316  -2.340  0.00  0.00    -0.120 F 
ENDBRANCH   6   7
ENDBRANCH   1   6
BRANCH   3  15
ATOM     15  C   LIG    1       -2.480   7.957  -1.353  0.00  0.00    +0.060 C 
BRANCH  15  16
ATOM     16  C   LIG    1       -1.442   7.369  -0.395  0.00  0.00    +0.080 C 
BRANCH  16  17
ATOM     17  C   LIG    1       -1.446   5.844  -0.512  0.00  0.00    +0.010 C 
ATOM     18  C   LIG    1       -0.974   5.441  -1.910  0.00  0.00    +0.110 C 
ATOM     19  C   LIG    1       -0.700   3.960  -1.945  0.00  0.00    -0.130 A 
ATOM     20  C   LIG    1       -0.932   3.242  -3.102  0.00  0.00    +0.050 A 
ATOM     21  C   LIG    1       -0.653   1.889  -3.145  0.00  0.00    -0.010 A 
ATOM     22  C   LIG    1       -0.141   1.250  -2.030  0.00  0.00    +0.040 A 
ATOM     23  C   LIG    1        0.083   1.960  -0.867  0.00  0.00    -0.020 A 
ATOM     24  C   LIG    1       -0.198   3.320  -0.820  0.00  0.00    +0.160 A 
ATOM     25  N   LIG    1        0.001   4.033   0.365  0.00  0.00    -0.660 N 
ATOM     26  H   LIG    1        0.524   3.638   1.080  0.00  0.00    +0.410 HD
ATOM     27  C   LIG    1       -0.524   5.260   0.525  0.00  0.00    +0.520 C 
ATOM     28  O   LIG    1       -0.252   5.904   1.517  0.00  0.00    -0.510 OA
ENDBRANCH  16  17
ENDBRANCH  15  16
ENDBRANCH   3  15
TORSDOF 5
