REMARK  Name = ZINCpe000000XLmq.0
REMARK                            x       y       z     vdW  Elec       q    Type
REMARK                         _______ _______ _______ _____ _____    ______ ____
ROOT
ATOM      1  N   LIG    1       -0.163   0.222  -1.012  0.00  0.00    -0.730 N 
ATOM      2  H   LIG    1       -0.997  -0.274  -0.988  0.00  0.00    +0.410 HD
ENDROOT
BRANCH   1   9
ATOM      3  C   LIG    1       -2.526   1.307   0.134  0.00  0.00    +0.090 C 
ATOM      4  C   LIG    1       -1.232   2.077   0.104  0.00  0.00    -0.130 A 
ATOM      5  C   LIG    1       -1.172   3.346   0.649  0.00  0.00    +0.050 A 
ATOM      6  C   LIG    1        0.009   4.060   0.620  0.00  0.00    -0.010 A 
ATOM      7  C   LIG    1        1.150   3.499   0.043  0.00  0.00    -0.090 A 
ATOM      8  C   LIG    1        1.091   2.216  -0.502  0.00  0.00    -0.010 A 
ATOM      9  C   LIG    1       -0.100   1.507  -0.468  0.00  0.00    +0.210 A 
BRANCH   7  10
ATOM     10  C   LIG    1        2.416   4.262   0.010  0.00  0.00    +0.560 C 
ATOM     11  N   LIG    1        2.390   5.606  -0.093  0.00  0.00    -0.620 N 
ATOM     12  C   LIG    1        1.110   6.317  -0.076  0.00  0.00    +0.290 C 
ATOM     13  C   LIG    1        3.643   6.354  -0.221  0.00  0.00    +0.290 C 
ATOM     14  O   LIG    1        3.480   3.678   0.076  0.00  0.00    -0.540 OA
ENDBRANCH   7  10
ENDBRANCH   1   9
BRANCH   1  15
ATOM     15  C   LIG    1        1.028  -0.376  -1.619  0.00  0.00    +0.300 C 
BRANCH  15  16
ATOM     16  C   LIG    1        0.694  -1.755  -2.127  0.00  0.00    +0.520 C 
ATOM     17  N   LIG    1        1.643  -2.500  -2.728  0.00  0.00    -0.720 N 
ATOM     18  H   LIG    1        2.541  -2.148  -2.834  0.00  0.00    +0.420 HD
ATOM     19  O   LIG    1       -0.428  -2.195  -1.994  0.00  0.00    -0.530 OA
BRANCH  17  20
ATOM     20  C   LIG    1        1.319  -3.841  -3.222  0.00  0.00    +0.310 C 
BRANCH  20  21
ATOM     21  C   LIG    1        2.544  -4.456  -3.846  0.00  0.00    +0.520 C 
ATOM     22  N   LIG    1        2.483  -5.696  -4.372  0.00  0.00    -0.620 N 
ATOM     23  C   LIG    1        1.292  -6.558  -4.397  0.00  0.00    +0.230 C 
ATOM     24  C   LIG    1        1.700  -7.884  -5.071  0.00  0.00    +0.040 C 
ATOM     25  C   LIG    1        3.238  -7.915  -4.870  0.00  0.00    +0.030 C 
ATOM     26  C   LIG    1        3.600  -6.415  -5.011  0.00  0.00    +0.250 C 
ATOM     27  O   LIG    1        3.586  -3.836  -3.877  0.00  0.00    -0.530 OA
ENDBRANCH  20  21
ENDBRANCH  17  20
ENDBRANCH  15  16
ENDBRANCH   1  15
TORSDOF 6
