REMARK  Name = ZINCqH0000002edO.0
REMARK                            x       y       z     vdW  Elec       q    Type
REMARK                         _______ _______ _______ _____ _____    ______ ____
ROOT
ATOM      1  C   LIG    1       -0.231   1.597  -1.855  0.00  0.00    -0.180 A 
ATOM      2  C   LIG    1       -1.432   2.290  -1.679  0.00  0.00    +0.090 A 
ATOM      3  C   LIG    1       -1.410   3.633  -1.373  0.00  0.00    -0.090 A 
ATOM      4  C   LIG    1       -0.198   4.301  -1.252  0.00  0.00    +0.160 A 
ATOM      5  C   LIG    1        0.998   3.616  -1.433  0.00  0.00    -0.010 A 
ATOM      6  C   LIG    1        0.986   2.272  -1.733  0.00  0.00    +0.130 A 
ENDROOT
BRANCH   1   9
ATOM      7  N   LIG    1       -1.424  -0.493  -2.294  0.00  0.00    -0.720 N 
ATOM      8  H   LIG    1       -2.258  -0.014  -2.168  0.00  0.00    +0.400 HD
ATOM      9  C   LIG    1       -0.249   0.156  -2.177  0.00  0.00    +0.560 C 
ATOM     10  O   LIG    1        0.796  -0.444  -2.335  0.00  0.00    -0.530 OA
BRANCH   7  11
ATOM     11  C   LIG    1       -1.442  -1.923  -2.613  0.00  0.00    +0.230 C 
BRANCH  11  13
ATOM     12  C   LIG    1        0.089  -2.473  -0.717  0.00  0.00    +0.020 C 
ATOM     13  C   LIG    1       -1.290  -2.735  -1.325  0.00  0.00    +0.000 C 
ENDBRANCH  11  13
BRANCH  11  14
ATOM     14  C   LIG    1       -2.769  -2.279  -3.286  0.00  0.00    +0.020 C 
ATOM     15  C   LIG    1       -2.865  -1.562  -4.635  0.00  0.00    +0.020 C 
ENDBRANCH  11  14
ENDBRANCH   7  11
ENDBRANCH   1   9
BRANCH   4  16
ATOM     16  O   LIG    1       -0.181   5.625  -0.957  0.00  0.00    -0.280 OA
BRANCH  16  17
ATOM     17  C   LIG    1       -1.446   6.267  -0.784  0.00  0.00    +0.220 C 
BRANCH  17  18
ATOM     18  C   LIG    1       -1.230   7.724  -0.463  0.00  0.00    +0.520 C 
ATOM     19  N   LIG    1       -2.288   8.548  -0.327  0.00  0.00    -0.600 N 
ATOM     20  C   LIG    1       -2.093   9.990  -0.129  0.00  0.00    +0.230 C 
ATOM     21  C   LIG    1       -2.907  10.744  -1.192  0.00  0.00    +0.020 C 
ATOM     22  C   LIG    1       -4.367  10.292  -1.123  0.00  0.00    +0.020 C 
ATOM     23  C   LIG    1       -4.455   8.794  -1.422  0.00  0.00    +0.020 C 
ATOM     24  C   LIG    1       -0.609  10.332  -0.279  0.00  0.00    +0.060 C 
ATOM     25  C   LIG    1       -3.659   8.019  -0.367  0.00  0.00    +0.220 C 
ATOM     26  C   LIG    1       -4.315   8.191   1.004  0.00  0.00    +0.030 C 
ATOM     27  O   LIG    1       -0.105   8.155  -0.327  0.00  0.00    -0.500 OA
ENDBRANCH  17  18
ENDBRANCH  16  17
ENDBRANCH   4  16
TORSDOF 7
