REMARK  Name = ZINCrD00000f3hFt.0
REMARK                            x       y       z     vdW  Elec       q    Type
REMARK                         _______ _______ _______ _____ _____    ______ ____
ROOT
ATOM      1  C   LIG    1        6.059   0.727  -0.053  0.00  0.00    +0.310 C 
ATOM      2  C   LIG    1        6.577   0.395  -1.454  0.00  0.00    +0.030 C 
ENDROOT
BRANCH   1   3
ATOM      3  N   LIG    1        6.621  -0.224   0.916  0.00  0.00    -0.550 NA
ATOM      4  C   LIG    1        6.368  -1.546   0.526  0.00  0.00    +0.160 C 
ATOM      5  C   LIG    1        6.801  -2.577   1.585  0.00  0.00    +0.220 C 
ATOM      6  O   LIG    1        8.190  -2.492   1.787  0.00  0.00    -0.380 OA
ATOM      7  C   LIG    1        8.627  -1.672   2.894  0.00  0.00    +0.220 C 
ATOM      8  C   LIG    1        8.303  -0.187   2.673  0.00  0.00    -0.080 C 
ATOM      9  C   LIG    1        9.498   0.652   3.138  0.00  0.00    +0.020 C 
ATOM     10  C   LIG    1        9.715   0.449   4.639  0.00  0.00    +0.210 C 
ATOM     11  O   LIG    1        8.525   0.818   5.341  0.00  0.00    -0.380 OA
ATOM     12  C   LIG    1        7.382   0.033   4.996  0.00  0.00    +0.190 C 
ATOM     13  C   LIG    1        7.075   0.189   3.507  0.00  0.00    +0.020 C 
ATOM     14  C   LIG    1        8.028   0.087   1.210  0.00  0.00    +0.230 C 
ENDBRANCH   1   3
BRANCH   1  18
ATOM     15  C   LIG    1        2.481   1.070  -0.015  0.00  0.00    +0.210 A 
ATOM     16  N   LIG    1        2.649  -0.227  -0.024  0.00  0.00    -0.370 NA
ATOM     17  O   LIG    1        3.832  -0.494  -0.037  0.00  0.00    +0.090 OA
ATOM     18  C   LIG    1        4.555   0.630  -0.038  0.00  0.00    +0.200 A 
ATOM     19  N   LIG    1        3.711   1.632  -0.030  0.00  0.00    -0.470 NA
BRANCH  15  24
ATOM     20  C   LIG    1       -2.553   3.871   0.047  0.00  0.00    +0.110 C 
ATOM     21  C   LIG    1       -1.237   3.138   0.031  0.00  0.00    -0.100 A 
ATOM     22  C   LIG    1       -0.051   3.849   0.023  0.00  0.00    +0.050 A 
ATOM     23  C   LIG    1        1.157   3.183   0.008  0.00  0.00    +0.060 A 
ATOM     24  C   LIG    1        1.183   1.790   0.000  0.00  0.00    -0.000 A 
ATOM     25  C   LIG    1       -0.013   1.076   0.008  0.00  0.00    +0.020 A 
ATOM     26  C   LIG    1       -1.218   1.752   0.017  0.00  0.00    +0.100 A 
ATOM     27  F   LIG    1       -2.379   1.062   0.019  0.00  0.00    -0.130 F 
ENDBRANCH  15  24
ENDBRANCH   1  18
TORSDOF 3
