REMARK  Name = ZINCpe000000YZlh.0
REMARK                            x       y       z     vdW  Elec       q    Type
REMARK                         _______ _______ _______ _____ _____    ______ ____
ROOT
ATOM      1  N   LIG    1        1.170   1.740   0.000  0.00  0.00    -0.530 N 
ATOM      2  C   LIG    1       -0.013   1.076   0.008  0.00  0.00    +0.650 A 
ATOM      3  N   LIG    1       -1.164   1.683   0.017  0.00  0.00    -0.520 NA
ATOM      4  C   LIG    1       -1.259   3.019   0.030  0.00  0.00    +0.310 A 
ATOM      5  C   LIG    1       -0.092   3.795   0.023  0.00  0.00    -0.140 A 
ATOM      6  N   LIG    1       -0.451   5.086   0.034  0.00  0.00    -0.150 NA
ATOM      7  N   LIG    1       -1.735   5.188   0.046  0.00  0.00    -0.030 NA
ATOM      8  N   LIG    1       -2.299   3.903   0.045  0.00  0.00    -0.300 N 
ATOM      9  C   LIG    1        1.194   3.093   0.007  0.00  0.00    +0.600 A 
ATOM     10  O   LIG    1        2.247   3.706   0.000  0.00  0.00    -0.480 OA
ENDROOT
BRANCH   8  11
ATOM     11  C   LIG    1       -3.665   3.589   0.056  0.00  0.00    +0.130 A 
ATOM     12  C   LIG    1       -4.130   2.481  -0.640  0.00  0.00    +0.040 A 
ATOM     13  C   LIG    1       -5.475   2.170  -0.623  0.00  0.00    +0.040 A 
ATOM     14  C   LIG    1       -6.361   2.968   0.078  0.00  0.00    +0.020 A 
ATOM     15  C   LIG    1       -5.903   4.076   0.767  0.00  0.00    +0.040 A 
ATOM     16  C   LIG    1       -4.557   4.388   0.758  0.00  0.00    +0.040 A 
ENDBRANCH   8  11
BRANCH   1  17
ATOM     17  C   LIG    1        2.428   0.990  -0.015  0.00  0.00    +0.360 C 
BRANCH  17  19
ATOM     18  O   LIG    1        2.160   1.148  -2.355  0.00  0.00    -0.520 OA
ATOM     19  C   LIG    1        2.846   0.739  -1.441  0.00  0.00    +0.500 C 
ATOM     20  N   LIG    1        3.981   0.061  -1.702  0.00  0.00    -0.720 N 
ATOM     21  H   LIG    1        4.529  -0.265  -0.971  0.00  0.00    +0.400 HD
BRANCH  20  22
ATOM     22  C   LIG    1        4.387  -0.182  -3.088  0.00  0.00    +0.270 C 
BRANCH  22  23
ATOM     23  C   LIG    1        5.701  -0.966  -3.104  0.00  0.00    -0.030 C 
ATOM     24  C   LIG    1        6.951  -0.075  -3.010  0.00  0.00    +0.010 C 
ATOM     25  C   LIG    1        7.598  -1.012  -4.047  0.00  0.00    +0.010 C 
ATOM     26  C   LIG    1        6.173  -1.348  -4.517  0.00  0.00    +0.020 C 
ENDBRANCH  22  23
ENDBRANCH  20  22
ENDBRANCH  17  19
ENDBRANCH   1  17
TORSDOF 5
