REMARK  Name = ZINCpk00000y6z2q.0
REMARK                            x       y       z     vdW  Elec       q    Type
REMARK                         _______ _______ _______ _____ _____    ______ ____
ROOT
ATOM      1  C   LIG    1        1.794   2.896   0.934  0.00  0.00    +0.580 C 
ATOM      2  N   LIG    1        1.366   2.034  -0.010  0.00  0.00    -0.600 N 
ATOM      3  C   LIG    1       -0.018   1.543  -0.004  0.00  0.00    +0.260 C 
ATOM      4  C   LIG    1        0.003   0.011  -0.031  0.00  0.00    +0.020 C 
ATOM      5  C   LIG    1        0.832  -0.462  -1.227  0.00  0.00    +0.030 C 
ATOM      6  C   LIG    1        2.271   0.038  -1.082  0.00  0.00    +0.080 C 
ATOM      7  C   LIG    1        2.276   1.569  -1.066  0.00  0.00    +0.300 C 
ATOM      8  O   LIG    1        2.965   3.216   0.979  0.00  0.00    -0.520 OA
ENDROOT
BRANCH   1  14
ATOM      9  C   LIG    1        1.068   3.333   3.291  0.00  0.00    +0.230 A 
ATOM     10  N   LIG    1        0.190   3.849   4.133  0.00  0.00    -0.510 NA
ATOM     11  C   LIG    1       -0.895   4.456   3.694  0.00  0.00    +0.520 A 
ATOM     12  N   LIG    1       -1.154   4.584   2.407  0.00  0.00    -0.520 NA
ATOM     13  C   LIG    1       -0.327   4.103   1.496  0.00  0.00    +0.350 A 
ATOM     14  C   LIG    1        0.837   3.451   1.916  0.00  0.00    -0.240 A 
BRANCH   9  16
ATOM     15  C   LIG    1        3.065   3.572   4.743  0.00  0.00    +0.060 C 
ATOM     16  C   LIG    1        2.302   2.635   3.804  0.00  0.00    +0.040 C 
ATOM     17  C   LIG    1        1.894   1.372   4.564  0.00  0.00    +0.050 C 
ENDBRANCH   9  16
ENDBRANCH   1  14
BRANCH   6  18
ATOM     18  C   LIG    1        3.095  -0.456  -2.243  0.00  0.00    +0.040 A 
ATOM     19  N   LIG    1        3.836  -1.534  -2.259  0.00  0.00    -0.260 NA
ATOM     20  N   LIG    1        4.412  -1.679  -3.398  0.00  0.00    -0.380 N 
ATOM     21  H   LIG    1        5.008  -2.406  -3.634  0.00  0.00    +0.450 HD
ATOM     22  C   LIG    1        4.058  -0.650  -4.224  0.00  0.00    -0.040 A 
ATOM     23  C   LIG    1        3.197   0.152  -3.496  0.00  0.00    +0.030 A 
BRANCH  22  24
ATOM     24  C   LIG    1        4.498  -0.442  -5.613  0.00  0.00    +0.600 C 
ATOM     25  O   LIG    1        4.102   0.523  -6.238  0.00  0.00    -0.520 OA
ATOM     26  N   LIG    1        5.339  -1.321  -6.192  0.00  0.00    -0.850 N 
ATOM     27  H   LIG    1        5.630  -1.183  -7.108  0.00  0.00    +0.410 HD
ATOM     28  H   LIG    1        5.655  -2.091  -5.694  0.00  0.00    +0.400 HD
ENDBRANCH  22  24
ENDBRANCH   6  18
TORSDOF 4
