REMARK  Name = ZINCpe00000VVGyy.0
REMARK                            x       y       z     vdW  Elec       q    Type
REMARK                         _______ _______ _______ _____ _____    ______ ____
ROOT
ATOM      1  N   LIG    1        0.262   6.917   1.791  0.00  0.00    -0.560 N 
ATOM      2  C   LIG    1        1.575   6.662   1.829  0.00  0.00    +0.710 C 
ATOM      3  N   LIG    1        1.972   5.867   0.819  0.00  0.00    -0.720 N 
ATOM      4  H   LIG    1        2.874   5.553   0.649  0.00  0.00    +0.440 HD
ATOM      5  C   LIG    1        0.771   5.565   0.022  0.00  0.00    +0.180 C 
ATOM      6  C   LIG    1        0.924   6.086  -1.408  0.00  0.00    +0.110 C 
ATOM      7  O   LIG    1        2.324   7.099   2.680  0.00  0.00    -0.520 OA
ATOM      8  C   LIG    1       -0.333   6.310   0.745  0.00  0.00    +0.540 C 
ATOM      9  O   LIG    1       -1.507   6.351   0.446  0.00  0.00    -0.460 OA
ENDROOT
BRANCH   5  10
ATOM     10  C   LIG    1        0.496   4.083   0.018  0.00  0.00    -0.090 A 
ATOM     11  C   LIG    1       -0.808   3.624   0.028  0.00  0.00    +0.060 A 
ATOM     12  C   LIG    1       -1.065   2.265   0.019  0.00  0.00    +0.050 A 
ATOM     13  C   LIG    1       -0.016   1.361   0.009  0.00  0.00    +0.040 A 
ATOM     14  O   LIG    1        0.002  -0.004   0.002  0.00  0.00    -0.310 OA
ATOM     15  C   LIG    1        1.336  -0.373   0.399  0.00  0.00    +0.440 C 
ATOM     16  O   LIG    1        2.139   0.749  -0.014  0.00  0.00    -0.310 OA
ATOM     17  C   LIG    1        1.297   1.824  -0.001  0.00  0.00    +0.030 A 
ATOM     18  C   LIG    1        1.548   3.186   0.004  0.00  0.00    +0.060 A 
ENDBRANCH   5  10
BRANCH   1  20
ATOM     19  C   LIG    1       -0.284   7.152   4.164  0.00  0.00    +0.080 C 
ATOM     20  C   LIG    1       -0.442   7.754   2.766  0.00  0.00    +0.270 C 
BRANCH  20  21
ATOM     21  C   LIG    1        0.141   9.144   2.749  0.00  0.00    +0.510 C 
ATOM     22  N   LIG    1       -0.352  10.092   3.570  0.00  0.00    -0.700 N 
ATOM     23  H   LIG    1       -1.083   9.880   4.172  0.00  0.00    +0.400 HD
ATOM     24  O   LIG    1        1.055   9.409   1.996  0.00  0.00    -0.510 OA
BRANCH  22  25
ATOM     25  C   LIG    1        0.215  11.443   3.553  0.00  0.00    +0.220 C 
ATOM     26  C   LIG    1        0.472  12.118   4.902  0.00  0.00    +0.010 C 
ATOM     27  C   LIG    1       -0.683  12.591   4.016  0.00  0.00    +0.020 C 
ENDBRANCH  22  25
ENDBRANCH  20  21
ENDBRANCH   1  20
TORSDOF 4
