REMARK  Name = ZINCrH00000No4Wv.1
REMARK                            x       y       z     vdW  Elec       q    Type
REMARK                         _______ _______ _______ _____ _____    ______ ____
ROOT
ATOM      1  C   LIG    1       -0.252   0.329  -0.138  0.00  0.00    +0.270 C 
ENDROOT
BRANCH   1   6
ATOM      2  N   LIG    1       -1.970   1.841  -1.263  0.00  0.00    -0.300 N 
ATOM      3  N   LIG    1       -2.006   3.078  -1.627  0.00  0.00    -0.090 NA
ATOM      4  N   LIG    1       -0.880   3.630  -1.337  0.00  0.00    -0.070 NA
ATOM      5  N   LIG    1       -0.109   2.761  -0.780  0.00  0.00    -0.280 NA
ATOM      6  C   LIG    1       -0.760   1.626  -0.713  0.00  0.00    +0.170 A 
BRANCH   2   7
ATOM      7  C   LIG    1       -3.044   0.857  -1.415  0.00  0.00    +0.350 C 
BRANCH   7   8
ATOM      8  C   LIG    1       -4.026   0.989  -0.249  0.00  0.00    +0.180 C 
BRANCH   8   9
ATOM      9  O   LIG    1       -5.021  -0.032  -0.348  0.00  0.00    -0.380 OA
BRANCH   9  11
ATOM     10  C   LIG    1       -7.004  -1.129   0.494  0.00  0.00    +0.070 C 
ATOM     11  C   LIG    1       -5.994   0.002   0.699  0.00  0.00    +0.160 C 
ENDBRANCH   9  11
ENDBRANCH   8   9
ENDBRANCH   7   8
ENDBRANCH   2   7
ENDBRANCH   1   6
BRANCH   1  12
ATOM     12  C   LIG    1       -0.088   0.472   1.377  0.00  0.00    +0.000 C 
ATOM     13  C   LIG    1       -1.407   0.944   1.990  0.00  0.00    +0.030 C 
ATOM     14  C   LIG    1        1.009   1.496   1.676  0.00  0.00    +0.050 C 
BRANCH  12  15
ATOM     15  C   LIG    1        0.293  -0.861   1.969  0.00  0.00    +0.030 C 
ATOM     16  C   LIG    1        1.360  -0.962   2.717  0.00  0.00    -0.170 C 
ATOM     17  C   LIG    1        2.426  -1.064   3.466  0.00  0.00    -0.080 C 
ATOM     18  C   LIG    1        2.324  -0.857   4.955  0.00  0.00    +0.100 C 
ATOM     19  C   LIG    1        3.758  -1.387   2.840  0.00  0.00    +0.080 C 
ENDBRANCH  12  15
ENDBRANCH   1  12
BRANCH   1  20
ATOM     20  N   LIG    1        1.047   0.001  -0.742  0.00  0.00    -0.650 NA
ATOM     21  H   LIG    1        1.275   0.648  -1.482  0.00  0.00    +0.360 HD
BRANCH  20  22
ATOM     22  C   LIG    1        1.066  -1.384  -1.230  0.00  0.00    +0.140 C 
ATOM     23  C   LIG    1        1.961  -2.319  -0.400  0.00  0.00    +0.100 C 
ATOM     24  C   LIG    1        2.402  -2.925  -1.719  0.00  0.00    -0.090 C 
ATOM     25  C   LIG    1        2.881  -4.081  -2.107  0.00  0.00    -0.210 C 
ATOM     26  C   LIG    1        3.380  -4.974  -3.214  0.00  0.00    +0.070 C 
ATOM     27  C   LIG    1        3.326  -5.481  -1.771  0.00  0.00    +0.080 C 
ATOM     28  C   LIG    1        2.046  -1.615  -2.393  0.00  0.00    +0.070 C 
ENDBRANCH  20  22
ENDBRANCH   1  20
TORSDOF 9
