REMARK  Name = ZINCrH00000No4wv.0
REMARK                            x       y       z     vdW  Elec       q    Type
REMARK                         _______ _______ _______ _____ _____    ______ ____
ROOT
ATOM      1  C   LIG    1        3.699  -0.698  -0.042  0.00  0.00    +0.240 C 
ENDROOT
BRANCH   1   2
ATOM      2  C   LIG    1        4.197  -0.838  -1.457  0.00  0.00    +0.530 C 
ATOM      3  N   LIG    1        3.765  -1.858  -2.226  0.00  0.00    -0.600 N 
ATOM      4  C   LIG    1        2.743  -2.789  -1.729  0.00  0.00    +0.260 C 
ATOM      5  C   LIG    1        1.596  -2.846  -2.748  0.00  0.00    +0.020 C 
ATOM      6  C   LIG    1        2.161  -3.209  -4.124  0.00  0.00    +0.020 C 
ATOM      7  C   LIG    1        3.150  -2.130  -4.572  0.00  0.00    +0.010 C 
ATOM      8  C   LIG    1        4.311  -2.062  -3.575  0.00  0.00    +0.280 C 
ATOM      9  O   LIG    1        4.986  -0.033  -1.905  0.00  0.00    -0.510 OA
ENDBRANCH   1   2
BRANCH   1  10
ATOM     10  C   LIG    1        2.352  -0.024  -0.047  0.00  0.00    -0.120 A 
ATOM     11  C   LIG    1        1.211  -0.757   0.221  0.00  0.00    +0.030 A 
ATOM     12  C   LIG    1       -0.025  -0.138   0.217  0.00  0.00    +0.010 A 
ATOM     13  C   LIG    1       -0.120   1.214  -0.055  0.00  0.00    +0.030 A 
ATOM     14  C   LIG    1        1.020   1.947  -0.323  0.00  0.00    +0.010 A 
ATOM     15  C   LIG    1        2.256   1.328  -0.321  0.00  0.00    +0.050 A 
ENDBRANCH   1  10
BRANCH   1  16
ATOM     16  O   LIG    1        4.638   0.102   0.724  0.00  0.00    -0.300 OA
BRANCH  16  17
ATOM     17  C   LIG    1        4.730  -0.159   2.042  0.00  0.00    +0.520 C 
ATOM     18  O   LIG    1        4.045  -1.030   2.538  0.00  0.00    -0.460 OA
BRANCH  17  23
ATOM     19  C   LIG    1        7.261   2.272   3.107  0.00  0.00    +0.290 A 
ATOM     20  N   LIG    1        7.382   2.047   4.409  0.00  0.00    -0.490 NA
ATOM     21  C   LIG    1        6.665   1.113   5.007  0.00  0.00    +0.390 A 
ATOM     22  C   LIG    1        5.768   0.361   4.257  0.00  0.00    -0.110 A 
ATOM     23  C   LIG    1        5.668   0.619   2.888  0.00  0.00    +0.180 A 
ATOM     24 CL   LIG    1        4.800  -0.872   5.003  0.00  0.00    +0.010 Cl
ATOM     25  N   LIG    1        6.423   1.576   2.355  0.00  0.00    -0.440 NA
BRANCH  19  27
ATOM     26  C   LIG    1        9.155   4.118   3.807  0.00  0.00    +0.140 C 
ATOM     27  S   LIG    1        8.242   3.530   2.359  0.00  0.00    +0.040 S 
ENDBRANCH  19  27
ENDBRANCH  17  23
ENDBRANCH  16  17
ENDBRANCH   1  16
TORSDOF 6
