REMARK  Name = ZINCbw0000000Hoa.0
REMARK                            x       y       z     vdW  Elec       q    Type
REMARK                         _______ _______ _______ _____ _____    ______ ____
ROOT
ATOM      1  C   LIG    1        1.194   2.126   0.002  0.00  0.00    +0.420 A 
ATOM      2  N   LIG    1       -0.021   1.689   0.011  0.00  0.00    -0.520 NA
ATOM      3  S   LIG    1        0.002  -0.004   0.002  0.00  0.00    +0.220 S 
ATOM      4  C   LIG    1        1.759  -0.171  -0.016  0.00  0.00    -0.110 A 
ATOM      5  C   LIG    1        2.614  -1.265  -0.029  0.00  0.00    +0.080 A 
ATOM      6  C   LIG    1        3.967  -1.068  -0.040  0.00  0.00    +0.100 A 
ATOM      7  C   LIG    1        4.485   0.221  -0.039  0.00  0.00    -0.100 A 
ATOM      8  C   LIG    1        3.665   1.309  -0.025  0.00  0.00    +0.120 A 
ATOM      9 BR   LIG    1        6.359   0.471  -0.055  0.00  0.00    -0.040 Br
ATOM     10  C   LIG    1        2.265   1.142  -0.013  0.00  0.00    -0.150 A 
ENDROOT
BRANCH   1  11
ATOM     11  N   LIG    1        1.470   3.495   0.007  0.00  0.00    -0.830 N 
ATOM     12  H   LIG    1        2.390   3.804  -0.001  0.00  0.00    +0.410 HD
ATOM     13  H   LIG    1        0.743   4.136   0.018  0.00  0.00    +0.410 HD
ENDBRANCH   1  11
TORSDOF 1
