REMARK  Name = ZINCrg00000xU9CQ.0
REMARK                            x       y       z     vdW  Elec       q    Type
REMARK                         _______ _______ _______ _____ _____    ______ ____
ROOT
ATOM      1  C   LIG    1        1.248   1.716  -0.001  0.00  0.00    +0.230 C 
ATOM      2  C   LIG    1        1.697   2.001  -1.453  0.00  0.00    +0.030 C 
ATOM      3  C   LIG    1        3.086   1.299  -1.567  0.00  0.00    +0.010 C 
ATOM      4  C   LIG    1        2.845   0.037  -0.662  0.00  0.00    +0.030 C 
ATOM      5  C   LIG    1        4.005   2.125  -0.614  0.00  0.00    +0.270 C 
ATOM      6  N   LIG    1        3.541   1.800   0.751  0.00  0.00    -0.600 N 
ATOM      7  C   LIG    1        4.051   2.269   1.907  0.00  0.00    +0.630 C 
ATOM      8  O   LIG    1        3.572   1.919   2.970  0.00  0.00    -0.540 OA
ATOM      9  C   LIG    1        2.399   0.853   0.601  0.00  0.00    +0.260 C 
ENDROOT
BRANCH   7  10
ATOM     10  C   LIG    1        5.184   3.201   1.885  0.00  0.00    -0.100 A 
ATOM     11  C   LIG    1        5.809   3.770   3.005  0.00  0.00    +0.130 A 
ATOM     12  C   LIG    1        5.611   3.657   4.387  0.00  0.00    +0.080 A 
ATOM     13  C   LIG    1        6.419   4.357   5.234  0.00  0.00    +0.090 A 
ATOM     14  C   LIG    1        7.433   5.170   4.707  0.00  0.00    +0.040 A 
ATOM     15  C   LIG    1        7.611   5.261   3.370  0.00  0.00    +0.280 A 
ATOM     16  N   LIG    1        6.810   4.566   2.517  0.00  0.00    -0.280 N 
ATOM     17  N   LIG    1        6.756   4.464   1.121  0.00  0.00    -0.100 NA
ATOM     18  N   LIG    1        5.803   3.665   0.792  0.00  0.00    -0.170 NA
ENDBRANCH   7  10
BRANCH   1  20
ATOM     19  C   LIG    1       -1.187   1.624   0.017  0.00  0.00    +0.510 C 
ATOM     20  N   LIG    1       -0.011   0.966   0.007  0.00  0.00    -0.730 N 
ATOM     21  H   LIG    1        0.002  -0.004   0.002  0.00  0.00    +0.400 HD
ATOM     22  O   LIG    1       -1.204   2.837   0.023  0.00  0.00    -0.520 OA
BRANCH  19  23
ATOM     23  C   LIG    1       -2.482   0.853   0.018  0.00  0.00    +0.020 C 
BRANCH  23  24
ATOM     24  C   LIG    1       -3.658   1.831   0.029  0.00  0.00    +0.220 C 
BRANCH  24  25
ATOM     25  O   LIG    1       -3.666   2.580  -1.188  0.00  0.00    -0.540 OA
ATOM     26  H   LIG    1       -3.754   2.037  -1.983  0.00  0.00    +0.370 HD
ENDBRANCH  24  25
BRANCH  24  27
ATOM     27  C   LIG    1       -4.969   1.052   0.157  0.00  0.00    -0.010 C 
BRANCH  27  29
ATOM     28  C   LIG    1       -7.445   1.254   0.421  0.00  0.00    +0.000 C 
ATOM     29  C   LIG    1       -6.135   2.033   0.293  0.00  0.00    +0.010 C 
ENDBRANCH  27  29
ENDBRANCH  24  27
ENDBRANCH  23  24
ENDBRANCH  19  23
ENDBRANCH   1  20
TORSDOF 7
