REMARK  Name = ZINCrH000004pP85.1
REMARK                            x       y       z     vdW  Elec       q    Type
REMARK                         _______ _______ _______ _____ _____    ______ ____
ROOT
ATOM      1  C   LIG    1       -1.236   3.141   0.030  0.00  0.00    +0.060 A 
ATOM      2  C   LIG    1       -0.041   3.846   0.022  0.00  0.00    +0.010 A 
ATOM      3  C   LIG    1        1.162   3.165   0.007  0.00  0.00    +0.030 A 
ATOM      4  C   LIG    1        1.176   1.783   0.000  0.00  0.00    -0.080 A 
ATOM      5  C   LIG    1       -0.013   1.076   0.008  0.00  0.00    +0.010 A 
ATOM      6  C   LIG    1       -1.219   1.750   0.017  0.00  0.00    +0.130 A 
ATOM      7  F   LIG    1       -2.380   1.060   0.019  0.00  0.00    -0.120 F 
ENDROOT
BRANCH   1  11
ATOM      8  C   LIG    1       -5.035   4.304   1.345  0.00  0.00    +0.020 C 
ATOM      9  C   LIG    1       -3.935   5.363   1.245  0.00  0.00    +0.200 C 
ATOM     10  C   LIG    1       -2.566   4.678   1.239  0.00  0.00    +0.170 C 
ATOM     11  N   LIG    1       -2.454   3.827   0.045  0.00  0.00    -0.500 N 
ATOM     12  C   LIG    1       -2.626   4.623  -1.180  0.00  0.00    +0.170 C 
ATOM     13  C   LIG    1       -3.994   5.309  -1.149  0.00  0.00    +0.160 C 
ATOM     14  C   LIG    1       -4.146   6.202  -2.382  0.00  0.00    +0.050 C 
ATOM     15  O   LIG    1       -4.096   6.106   0.034  0.00  0.00    -0.370 OA
ENDBRANCH   1  11
BRANCH   4  16
ATOM     16  C   LIG    1        2.490   1.045  -0.016  0.00  0.00    +0.330 C 
BRANCH  16  17
ATOM     17  N   LIG    1        2.902   0.813  -1.403  0.00  0.00    -0.720 N 
ATOM     18  H   LIG    1        2.346   1.126  -2.133  0.00  0.00    +0.400 HD
ATOM     19  C   LIG    1        4.055   0.166  -1.663  0.00  0.00    +0.560 C 
ATOM     20  O   LIG    1        4.753  -0.226  -0.748  0.00  0.00    -0.530 OA
BRANCH  19  21
ATOM     21  C   LIG    1        4.471  -0.068  -3.060  0.00  0.00    -0.140 A 
ATOM     22  C   LIG    1        5.666  -0.739  -3.333  0.00  0.00    +0.110 A 
ATOM     23  C   LIG    1        6.050  -0.956  -4.637  0.00  0.00    +0.010 A 
ATOM     24  C   LIG    1        5.252  -0.508  -5.683  0.00  0.00    +0.150 A 
ATOM     25  C   LIG    1        4.061   0.160  -5.416  0.00  0.00    -0.070 A 
ATOM     26 CL   LIG    1        3.067   0.716  -6.726  0.00  0.00    -0.050 Cl
ATOM     27  C   LIG    1        3.667   0.377  -4.114  0.00  0.00    +0.080 A 
BRANCH  24  28
ATOM     28  O   LIG    1        5.634  -0.724  -6.967  0.00  0.00    -0.480 OA
ATOM     29  H   LIG    1        5.313  -1.557  -7.338  0.00  0.00    +0.400 HD
ENDBRANCH  24  28
ENDBRANCH  19  21
ENDBRANCH  16  17
ENDBRANCH   4  16
TORSDOF 5
