REMARK  Name = ZINCpk00000e9Jcg.0
REMARK                            x       y       z     vdW  Elec       q    Type
REMARK                         _______ _______ _______ _____ _____    ______ ____
ROOT
ATOM      1  C   LIG    1       -0.080   6.029   0.033  0.00  0.00    +0.300 C 
ENDROOT
BRANCH   1   5
ATOM      2  C   LIG    1       -0.022   1.758   0.012  0.00  0.00    -0.660 A 
ATOM      3  C   LIG    1       -1.228   2.433   0.021  0.00  0.00    +0.130 A 
ATOM      4  C   LIG    1       -1.247   3.815   0.034  0.00  0.00    +0.030 A 
ATOM      5  C   LIG    1       -0.059   4.522   0.026  0.00  0.00    -0.050 A 
ATOM      6  C   LIG    1        1.147   3.847   0.011  0.00  0.00    +0.030 A 
ATOM      7  C   LIG    1        1.166   2.465   0.004  0.00  0.00    +0.130 A 
BRANCH   2   8
ATOM      8  S   LIG    1        0.002  -0.004   0.002  0.00  0.00    +2.690 S 
ATOM      9  O   LIG    1        1.252  -0.385  -0.556  0.00  0.00    -0.950 OA
ATOM     10  O   LIG    1       -1.247  -0.419  -0.533  0.00  0.00    -0.950 OA
BRANCH   8  12
ATOM     11  C   LIG    1       -1.235  -0.741   2.292  0.00  0.00    +0.300 C 
ATOM     12  N   LIG    1        0.024  -0.503   1.581  0.00  0.00    -1.000 NA
ATOM     13  C   LIG    1        1.302  -0.706   2.267  0.00  0.00    +0.310 C 
ENDBRANCH   8  12
ENDBRANCH   2   8
ENDBRANCH   1   5
BRANCH   1  14
ATOM     14  O   LIG    1       -0.099   6.512  -1.312  0.00  0.00    -0.290 OA
BRANCH  14  15
ATOM     15  C   LIG    1       -0.119   7.853  -1.482  0.00  0.00    +0.420 A 
ATOM     16  C   LIG    1       -0.120   8.690  -0.401  0.00  0.00    -0.140 A 
ATOM     17  C   LIG    1       -0.140  10.069  -0.605  0.00  0.00    +0.420 A 
ATOM     18  N   LIG    1       -0.159  10.557  -1.828  0.00  0.00    -0.490 NA
ATOM     19  C   LIG    1       -0.158   9.751  -2.891  0.00  0.00    +0.350 A 
ATOM     20  C   LIG    1       -0.174  10.002  -4.275  0.00  0.00    -0.190 A 
ATOM     21  C   LIG    1       -0.163   8.751  -4.919  0.00  0.00    +0.380 A 
ATOM     22  N   LIG    1       -0.142   7.812  -4.011  0.00  0.00    -0.290 NA
ATOM     23  N   LIG    1       -0.133   8.392  -2.738  0.00  0.00    -0.310 N 
BRANCH  20  24
ATOM     24  C   LIG    1       -0.198  11.286  -4.909  0.00  0.00    +0.300 C 
ATOM     25  N   LIG    1       -0.216  12.305  -5.411  0.00  0.00    -0.420 NA
ENDBRANCH  20  24
ENDBRANCH  14  15
ENDBRANCH   1  14
TORSDOF 6
