REMARK  Name = ZINC5d0000002or6.0
REMARK                            x       y       z     vdW  Elec       q    Type
REMARK                         _______ _______ _______ _____ _____    ______ ____
ROOT
ATOM      1  C   LIG    1       -0.729   1.579   1.267  0.00  0.00    +0.200 C 
ATOM      2  C   LIG    1       -0.013   1.086   0.008  0.00  0.00    +0.000 C 
ENDROOT
BRANCH   1   4
ATOM      3  C   LIG    1       -2.918   1.643   2.470  0.00  0.00    +0.010 C 
ATOM      4  C   LIG    1       -2.164   1.050   1.278  0.00  0.00    -0.030 C 
ENDBRANCH   1   4
BRANCH   1   5
ATOM      5  O   LIG    1       -0.038   1.106   2.425  0.00  0.00    -0.560 OA
ATOM      6  H   LIG    1        0.014   0.142   2.485  0.00  0.00    +0.370 HD
ENDBRANCH   1   5
TORSDOF 2
