REMARK  Name = ZINCpk00000FcgxG.0
REMARK                            x       y       z     vdW  Elec       q    Type
REMARK                         _______ _______ _______ _____ _____    ______ ____
ROOT
ATOM      1  C   LIG    1        0.787   2.383   3.478  0.00  0.00    +0.050 C 
ATOM      2  C   LIG    1       -0.566   3.079   3.642  0.00  0.00    +0.230 C 
ATOM      3  C   LIG    1       -0.850   3.968   2.413  0.00  0.00    +0.130 C 
ATOM      4  C   LIG    1       -0.405   5.375   2.892  0.00  0.00    +0.060 C 
ATOM      5  C   LIG    1       -0.814   5.339   4.386  0.00  0.00    +0.260 C 
ATOM      6  N   LIG    1       -0.537   3.958   4.820  0.00  0.00    -0.610 N 
ATOM      7  C   LIG    1       -0.297   3.566   6.087  0.00  0.00    +0.620 C 
ATOM      8  O   LIG    1        0.025   2.415   6.317  0.00  0.00    -0.520 OA
ENDROOT
BRANCH   3   9
ATOM      9  N   LIG    1       -0.050   3.534   1.261  0.00  0.00    -0.520 NA
ATOM     10  C   LIG    1       -0.541   2.253   0.731  0.00  0.00    +0.150 C 
ATOM     11  C   LIG    1        0.355   1.810  -0.429  0.00  0.00    +0.220 C 
ATOM     12  O   LIG    1        0.380   2.836  -1.425  0.00  0.00    -0.380 OA
ATOM     13  C   LIG    1        0.854   4.096  -0.943  0.00  0.00    +0.220 C 
ATOM     14  C   LIG    1       -0.037   4.563   0.211  0.00  0.00    +0.150 C 
ENDBRANCH   3   9
BRANCH   7  15
ATOM     15  C   LIG    1       -0.425   4.524   7.187  0.00  0.00    -0.320 A 
ATOM     16  C   LIG    1       -0.103   4.296   8.497  0.00  0.00    +0.330 A 
ATOM     17  N   LIG    1       -0.311   5.319   9.283  0.00  0.00    -0.490 NA
ATOM     18  C   LIG    1       -0.787   6.404   8.737  0.00  0.00    +0.140 A 
ATOM     19  S   LIG    1       -1.013   6.180   7.058  0.00  0.00    +0.190 S 
BRANCH  18  20
ATOM     20  C   LIG    1       -1.083   7.654   9.467  0.00  0.00    -0.200 A 
ATOM     21  C   LIG    1       -0.908   7.873  10.817  0.00  0.00    +0.320 A 
ATOM     22  N   LIG    1       -1.297   9.136  11.074  0.00  0.00    -0.360 N 
ATOM     23  N   LIG    1       -1.720   9.720   9.874  0.00  0.00    -0.290 NA
ATOM     24  C   LIG    1       -1.279   9.788  12.385  0.00  0.00    +0.360 C 
ATOM     25  C   LIG    1       -1.592   8.847   8.912  0.00  0.00    +0.270 A 
ENDBRANCH  18  20
ENDBRANCH   7  15
TORSDOF 3
