REMARK  Name = ZINCqH0000005D1Q.0
REMARK                            x       y       z     vdW  Elec       q    Type
REMARK                         _______ _______ _______ _____ _____    ______ ____
ROOT
ATOM      1  C   LIG    1        0.613  -1.125  -3.514  0.00  0.00    -0.120 A 
ATOM      2  C   LIG    1        1.996  -1.303  -3.610  0.00  0.00    +0.110 A 
ATOM      3  C   LIG    1        2.550  -1.762  -4.784  0.00  0.00    -0.010 A 
ATOM      4  C   LIG    1        1.736  -2.039  -5.877  0.00  0.00    +0.110 A 
ATOM      5  C   LIG    1        0.360  -1.859  -5.788  0.00  0.00    +0.030 A 
ATOM      6  C   LIG    1       -0.202  -1.405  -4.616  0.00  0.00    +0.120 A 
ENDROOT
BRANCH   1   7
ATOM      7  C   LIG    1        0.015  -0.639  -2.257  0.00  0.00    +0.510 C 
ATOM      8  O   LIG    1       -1.187  -0.480  -2.178  0.00  0.00    -0.490 OA
BRANCH   7   9
ATOM      9  O   LIG    1        0.802  -0.370  -1.197  0.00  0.00    -0.330 OA
BRANCH   9  10
ATOM     10  C   LIG    1        0.145   0.105   0.008  0.00  0.00    +0.230 C 
ATOM     11  C   LIG    1        0.064   1.633  -0.025  0.00  0.00    +0.080 C 
BRANCH  10  12
ATOM     12  C   LIG    1        0.935  -0.330   1.215  0.00  0.00    +0.460 C 
ATOM     13  O   LIG    1        1.993  -0.896   1.074  0.00  0.00    -0.480 OA
BRANCH  12  15
ATOM     14  C   LIG    1        1.275  -0.537   3.565  0.00  0.00    +0.290 C 
ATOM     15  O   LIG    1        0.462  -0.089   2.448  0.00  0.00    -0.350 OA
ENDBRANCH  12  15
ENDBRANCH  10  12
ENDBRANCH   9  10
ENDBRANCH   7   9
ENDBRANCH   1   7
BRANCH   4  16
ATOM     16  O   LIG    1        2.286  -2.486  -7.034  0.00  0.00    -0.220 OA
BRANCH  16  17
ATOM     17  C   LIG    1        2.845  -3.725  -7.037  0.00  0.00    +0.190 A 
ATOM     18  C   LIG    1        2.729  -4.543  -5.922  0.00  0.00    -0.030 A 
ATOM     19  C   LIG    1        3.297  -5.802  -5.928  0.00  0.00    +0.140 A 
ATOM     20  C   LIG    1        3.981  -6.248  -7.044  0.00  0.00    -0.070 A 
ATOM     21  C   LIG    1        4.098  -5.434  -8.158  0.00  0.00    +0.160 A 
ATOM     22 CL   LIG    1        4.695  -7.831  -7.048  0.00  0.00    -0.030 Cl
ATOM     23  C   LIG    1        3.527  -4.177  -8.158  0.00  0.00    -0.060 A 
BRANCH  23  24
ATOM     24  N   LIG    1        3.647  -3.309  -9.351  0.00  0.00    +0.030 N 
ATOM     25  O   LIG    1        3.147  -2.199  -9.350  0.00  0.00    -0.130 OA
ATOM     26  O   LIG    1        4.246  -3.706 -10.335  0.00  0.00    -0.160 OA
ENDBRANCH  23  24
ENDBRANCH  16  17
ENDBRANCH   4  16
TORSDOF 8
