REMARK  Name = ZINCpe00000VTN3w.0
REMARK                            x       y       z     vdW  Elec       q    Type
REMARK                         _______ _______ _______ _____ _____    ______ ____
ROOT
ATOM      1  C   LIG    1       -0.828   1.650   3.752  0.00  0.00    +0.340 C 
ATOM      2  C   LIG    1        0.067   1.069   4.867  0.00  0.00    +0.060 C 
ATOM      3  C   LIG    1        1.421   0.847   4.144  0.00  0.00    +0.050 C 
ATOM      4  C   LIG    1        0.951   0.420   2.729  0.00  0.00    +0.260 C 
ATOM      5  N   LIG    1       -0.242   1.246   2.466  0.00  0.00    -0.610 N 
ATOM      6  C   LIG    1       -0.718   1.572   1.248  0.00  0.00    +0.520 C 
ATOM      7  O   LIG    1       -1.714   2.256   1.150  0.00  0.00    -0.510 OA
ENDROOT
BRANCH   1  11
ATOM      8  C   LIG    1       -5.737   1.174   4.619  0.00  0.00    +0.250 C 
ATOM      9  C   LIG    1       -4.301   0.913   4.244  0.00  0.00    +0.180 A 
ATOM     10  N   LIG    1       -3.311   1.771   4.301  0.00  0.00    -0.470 NA
ATOM     11  C   LIG    1       -2.226   1.101   3.873  0.00  0.00    +0.170 A 
ATOM     12  N   LIG    1       -2.606  -0.107   3.578  0.00  0.00    -0.370 NA
ATOM     13  O   LIG    1       -3.793  -0.236   3.789  0.00  0.00    +0.080 OA
ENDBRANCH   1  11
BRANCH   6  14
ATOM     14  C   LIG    1       -0.013   1.086   0.008  0.00  0.00    +0.410 C 
BRANCH  14  15
ATOM     15  N   LIG    1       -0.721   1.571  -1.179  0.00  0.00    -0.450 N 
ATOM     16  N   LIG    1       -1.760   0.911  -1.855  0.00  0.00    -0.270 NA
ATOM     17  C   LIG    1       -2.126   1.648  -2.841  0.00  0.00    +0.280 A 
ATOM     18  C   LIG    1       -3.208   1.384  -3.869  0.00  0.00    +0.170 C 
ATOM     19  C   LIG    1       -2.522   1.184  -5.225  0.00  0.00    +0.030 C 
ATOM     20  C   LIG    1       -2.187   2.505  -5.877  0.00  0.00    +0.010 C 
ATOM     21  C   LIG    1       -1.076   3.284  -5.215  0.00  0.00    +0.020 C 
ATOM     22  C   LIG    1       -1.511   3.855  -3.862  0.00  0.00    +0.320 C 
ATOM     23  N   LIG    1       -1.350   2.795  -2.853  0.00  0.00    -0.560 N 
ATOM     24  C   LIG    1       -0.491   2.735  -1.829  0.00  0.00    +0.660 A 
ATOM     25  O   LIG    1        0.343   3.573  -1.536  0.00  0.00    -0.550 OA
ENDBRANCH  14  15
ENDBRANCH   6  14
TORSDOF 3
