REMARK  Name = ZINCvU00000004OL.0
REMARK                            x       y       z     vdW  Elec       q    Type
REMARK                         _______ _______ _______ _____ _____    ______ ____
ROOT
ATOM      1  C   LIG    1        7.826  -1.263   0.811  0.00  0.00    +0.600 C 
ATOM      2  N   LIG    1        8.038  -1.420   2.132  0.00  0.00    -0.720 N 
ATOM      3  H   LIG    1        7.454  -0.984   2.772  0.00  0.00    +0.400 HD
ATOM      4  O   LIG    1        8.559  -1.810   0.008  0.00  0.00    -0.510 OA
ENDROOT
BRANCH   1   7
ATOM      5  C   LIG    1        7.157  -0.769  -2.115  0.00  0.00    +0.170 C 
ATOM      6  C   LIG    1        6.386  -0.192  -0.955  0.00  0.00    +0.160 A 
ATOM      7  C   LIG    1        6.712  -0.433   0.340  0.00  0.00    -0.300 A 
ATOM      8  S   LIG    1        5.561   0.434   1.354  0.00  0.00    +0.200 S 
ATOM      9  C   LIG    1        4.761   1.020  -0.039  0.00  0.00    +0.060 A 
ATOM     10  N   LIG    1        5.343   0.585  -1.110  0.00  0.00    -0.450 NA
BRANCH   9  11
ATOM     11  C   LIG    1        3.553   1.920  -0.022  0.00  0.00    +0.320 C 
BRANCH  11  12
ATOM     12  O   LIG    1        2.366   1.124  -0.015  0.00  0.00    -0.300 OA
BRANCH  12  13
ATOM     13  C   LIG    1        1.179   1.786   0.000  0.00  0.00    +0.130 A 
ATOM     14  C   LIG    1       -0.013   1.076   0.008  0.00  0.00    +0.010 A 
ATOM     15  C   LIG    1       -1.218   1.751   0.017  0.00  0.00    +0.070 A 
ATOM     16  C   LIG    1       -1.237   3.134   0.030  0.00  0.00    -0.070 A 
ATOM     17  C   LIG    1       -0.050   3.844   0.023  0.00  0.00    +0.070 A 
ATOM     18 CL   LIG    1       -2.753   3.980   0.049  0.00  0.00    -0.070 Cl
ATOM     19  C   LIG    1        1.158   3.173   0.008  0.00  0.00    -0.060 A 
ENDBRANCH  12  13
ENDBRANCH  11  12
ENDBRANCH   9  11
ENDBRANCH   1   7
BRANCH   2  20
ATOM     20  C   LIG    1        9.151  -2.248   2.603  0.00  0.00    +0.350 C 
BRANCH  20  21
ATOM     21  C   LIG    1       10.410  -1.421   2.646  0.00  0.00    -0.150 A 
ATOM     22  C   LIG    1       11.621  -1.966   2.249  0.00  0.00    +0.080 A 
ATOM     23  C   LIG    1       12.753  -1.166   2.300  0.00  0.00    -0.030 A 
ATOM     24  C   LIG    1       12.638   0.135   2.752  0.00  0.00    +0.260 A 
ATOM     25  N   LIG    1       11.470   0.619   3.127  0.00  0.00    -0.480 NA
ATOM     26  C   LIG    1       10.372  -0.112   3.087  0.00  0.00    +0.270 A 
ENDBRANCH  20  21
BRANCH  20  27
ATOM     27  C   LIG    1        8.842  -2.766   3.984  0.00  0.00    -0.090 A 
ATOM     28  C   LIG    1        8.234  -1.941   4.912  0.00  0.00    +0.010 A 
ATOM     29  C   LIG    1        7.947  -2.417   6.177  0.00  0.00    +0.020 A 
ATOM     30  C   LIG    1        8.277  -3.716   6.518  0.00  0.00    +0.020 A 
ATOM     31  C   LIG    1        8.890  -4.539   5.593  0.00  0.00    +0.020 A 
ATOM     32  C   LIG    1        9.173  -4.064   4.326  0.00  0.00    +0.030 A 
ENDBRANCH  20  27
ENDBRANCH   2  20
TORSDOF 7
