REMARK  Name = ZINCrH000004q5qM.0
REMARK                            x       y       z     vdW  Elec       q    Type
REMARK                         _______ _______ _______ _____ _____    ______ ____
ROOT
ATOM      1  N   LIG    1        4.542   6.762   2.932  0.00  0.00    -0.640 N 
ATOM      2  H   LIG    1        4.367   6.148   3.662  0.00  0.00    +0.420 HD
ATOM      3  C   LIG    1        4.072   6.492   1.698  0.00  0.00    +0.700 C 
ATOM      4  N   LIG    1        3.358   5.370   1.478  0.00  0.00    -0.740 N 
ATOM      5  H   LIG    1        3.183   4.756   2.208  0.00  0.00    +0.400 HD
ATOM      6  O   LIG    1        4.291   7.262   0.782  0.00  0.00    -0.540 OA
ENDROOT
BRANCH   1  12
ATOM      7  C   LIG    1        5.771   7.655   5.728  0.00  0.00    +0.150 C 
ATOM      8  C   LIG    1        5.839   8.347   4.390  0.00  0.00    -0.190 A 
ATOM      9  C   LIG    1        6.453   9.528   4.082  0.00  0.00    +0.020 A 
ATOM     10  O   LIG    1        6.241   9.732   2.769  0.00  0.00    +0.120 OA
ATOM     11  N   LIG    1        5.597   8.835   2.276  0.00  0.00    -0.340 NA
ATOM     12  C   LIG    1        5.280   7.924   3.159  0.00  0.00    +0.260 A 
BRANCH   9  13
ATOM     13  C   LIG    1        7.201  10.406   5.006  0.00  0.00    -0.060 A 
ATOM     14  C   LIG    1        8.143   9.863   5.880  0.00  0.00    +0.080 A 
ATOM     15  C   LIG    1        8.843  10.688   6.737  0.00  0.00    +0.010 A 
ATOM     16  C   LIG    1        8.604  12.051   6.739  0.00  0.00    +0.070 A 
ATOM     17  C   LIG    1        7.667  12.598   5.880  0.00  0.00    -0.010 A 
ATOM     18  C   LIG    1        6.963  11.783   5.013  0.00  0.00    +0.130 A 
ATOM     19  F   LIG    1        6.049  12.317   4.174  0.00  0.00    -0.130 F 
ENDBRANCH   9  13
ENDBRANCH   1  12
BRANCH   4  20
ATOM     20  C   LIG    1        2.848   5.077   0.137  0.00  0.00    +0.360 C 
BRANCH  20  21
ATOM     21  C   LIG    1        2.090   3.775   0.161  0.00  0.00    -0.100 A 
ATOM     22  C   LIG    1        0.740   3.772   0.322  0.00  0.00    +0.100 A 
ATOM     23  C   LIG    1        0.049   2.544   0.342  0.00  0.00    +0.210 A 
ATOM     24  N   LIG    1       -1.235   2.244   0.480  0.00  0.00    -0.490 NA
ATOM     25  C   LIG    1       -1.382   0.918   0.430  0.00  0.00    +0.210 A 
ATOM     26  C   LIG    1       -0.167   0.354   0.257  0.00  0.00    +0.100 A 
ATOM     27  N   LIG    1        0.746   1.372   0.200  0.00  0.00    -0.360 N 
ATOM     28  C   LIG    1        2.101   1.389   0.039  0.00  0.00    +0.230 A 
ATOM     29  C   LIG    1        2.776   2.557   0.017  0.00  0.00    +0.020 A 
ENDBRANCH  20  21
ENDBRANCH   4  20
TORSDOF 4
