REMARK  Name = ZINCpk000004ZdXC.0
REMARK                            x       y       z     vdW  Elec       q    Type
REMARK                         _______ _______ _______ _____ _____    ______ ____
ROOT
ATOM      1  C   LIG    1        0.000   1.080   2.488  0.00  0.00    +0.520 C 
ATOM      2  N   LIG    1       -0.453   1.393   3.718  0.00  0.00    -0.620 N 
ATOM      3  C   LIG    1       -1.653   2.225   3.891  0.00  0.00    +0.280 C 
ATOM      4  C   LIG    1       -2.607   1.500   4.854  0.00  0.00    +0.150 C 
ATOM      5  N   LIG    1       -1.891   1.179   6.096  0.00  0.00    -0.530 NA
ATOM      6  C   LIG    1       -0.782   0.248   5.845  0.00  0.00    +0.180 C 
ATOM      7  C   LIG    1        0.243   0.916   4.923  0.00  0.00    +0.300 C 
ATOM      8  O   LIG    1        0.994   0.397   2.363  0.00  0.00    -0.530 OA
ENDROOT
BRANCH   1   9
ATOM      9  C   LIG    1       -0.729   1.579   1.267  0.00  0.00    +0.050 C 
BRANCH   9  10
ATOM     10  C   LIG    1       -0.013   1.086   0.008  0.00  0.00    +0.060 C 
BRANCH  10  11
ATOM     11  C   LIG    1       -0.753   1.593  -1.232  0.00  0.00    +0.160 C 
BRANCH  11  12
ATOM     12  O   LIG    1       -0.084   1.132  -2.407  0.00  0.00    -0.390 OA
BRANCH  12  14
ATOM     13  C   LIG    1        0.098   1.004  -4.814  0.00  0.00    +0.040 C 
ATOM     14  C   LIG    1       -0.698   1.552  -3.627  0.00  0.00    +0.160 C 
ENDBRANCH  12  14
ENDBRANCH  11  12
ENDBRANCH  10  11
ENDBRANCH   9  10
ENDBRANCH   1   9
BRANCH   5  15
ATOM     15  C   LIG    1       -2.808   0.643   7.110  0.00  0.00    +0.320 C 
BRANCH  15  16
ATOM     16  C   LIG    1       -3.786   1.715   7.519  0.00  0.00    +0.180 A 
ATOM     17  N   LIG    1       -3.633   2.574   8.492  0.00  0.00    -0.270 NA
ATOM     18  N   LIG    1       -4.660   3.348   8.553  0.00  0.00    -0.290 NA
ATOM     19  C   LIG    1       -5.512   3.015   7.625  0.00  0.00    +0.180 A 
ATOM     20  C   LIG    1       -6.837   3.669   7.329  0.00  0.00    +0.150 C 
ATOM     21  C   LIG    1       -7.904   2.583   7.159  0.00  0.00    +0.020 C 
ATOM     22  C   LIG    1       -7.944   2.129   5.704  0.00  0.00    +0.020 C 
ATOM     23  C   LIG    1       -6.548   2.188   5.085  0.00  0.00    +0.030 C 
ATOM     24  C   LIG    1       -5.608   1.244   5.840  0.00  0.00    +0.280 C 
ATOM     25  N   LIG    1       -4.987   1.965   6.952  0.00  0.00    -0.470 N 
ENDBRANCH  15  16
ENDBRANCH   5  15
TORSDOF 7
