REMARK  Name = ZINCrg00000fSva6.0
REMARK                            x       y       z     vdW  Elec       q    Type
REMARK                         _______ _______ _______ _____ _____    ______ ____
ROOT
ATOM      1  C   LIG    1       -6.995  -0.316   2.973  0.00  0.00    +0.270 C 
ATOM      2  C   LIG    1       -7.667   0.941   3.564  0.00  0.00    +0.100 C 
ATOM      3  C   LIG    1       -8.871   0.356   4.348  0.00  0.00    +0.180 C 
ATOM      4  C   LIG    1       -9.285  -0.830   3.442  0.00  0.00    +0.250 C 
ATOM      5  N   LIG    1       -8.014  -1.376   2.931  0.00  0.00    -0.600 N 
ATOM      6  C   LIG    1       -7.819  -2.637   2.497  0.00  0.00    +0.540 C 
ATOM      7  O   LIG    1       -6.726  -2.977   2.095  0.00  0.00    -0.520 OA
ENDROOT
BRANCH   1   8
ATOM      8  C   LIG    1       -6.501  -0.026   1.579  0.00  0.00    +0.460 C 
ATOM      9  O   LIG    1       -7.147  -0.382   0.622  0.00  0.00    -0.490 OA
BRANCH   8  10
ATOM     10  O   LIG    1       -5.343   0.629   1.401  0.00  0.00    -0.350 OA
BRANCH  10  11
ATOM     11  C   LIG    1       -4.928   0.874   0.031  0.00  0.00    +0.280 C 
BRANCH  11  14
ATOM     12  C   LIG    1       -1.224   1.644   0.017  0.00  0.00    +0.400 A 
ATOM     13  C   LIG    1       -2.416   0.926   0.018  0.00  0.00    -0.080 A 
ATOM     14  C   LIG    1       -3.616   1.615   0.028  0.00  0.00    -0.010 A 
ATOM     15  C   LIG    1       -3.584   3.003   0.036  0.00  0.00    -0.080 A 
ATOM     16  C   LIG    1       -2.365   3.651   0.034  0.00  0.00    +0.310 A 
ATOM     17  N   LIG    1       -1.235   2.969   0.030  0.00  0.00    -0.540 NA
BRANCH  12  18
ATOM     18  N   LIG    1       -0.011   0.966   0.007  0.00  0.00    -0.850 N 
ATOM     19  H   LIG    1        0.822   1.462   0.002  0.00  0.00    +0.410 HD
ATOM     20  H   LIG    1        0.002  -0.004   0.002  0.00  0.00    +0.410 HD
ENDBRANCH  12  18
ENDBRANCH  11  14
ENDBRANCH  10  11
ENDBRANCH   8  10
ENDBRANCH   1   8
BRANCH   3  21
ATOM     21  O   LIG    1       -8.468  -0.102   5.640  0.00  0.00    -0.550 OA
ATOM     22  H   LIG    1       -9.187  -0.476   6.167  0.00  0.00    +0.390 HD
ENDBRANCH   3  21
BRANCH   6  23
ATOM     23  C   LIG    1       -8.957  -3.623   2.510  0.00  0.00    +0.130 C 
BRANCH  23  24
ATOM     24  C   LIG    1       -8.479  -4.950   1.978  0.00  0.00    -0.110 A 
ATOM     25  C   LIG    1       -8.151  -5.968   2.854  0.00  0.00    +0.050 A 
ATOM     26  C   LIG    1       -7.713  -7.185   2.366  0.00  0.00    +0.000 A 
ATOM     27  C   LIG    1       -7.601  -7.385   1.003  0.00  0.00    +0.040 A 
ATOM     28  C   LIG    1       -7.928  -6.368   0.126  0.00  0.00    -0.010 A 
ATOM     29  C   LIG    1       -8.373  -5.151   0.613  0.00  0.00    +0.120 A 
ATOM     30  F   LIG    1       -8.700  -4.159  -0.244  0.00  0.00    -0.130 F 
ENDBRANCH  23  24
ENDBRANCH   6  23
TORSDOF 8
