REMARK  Name = ZINCqH0000007vJs.0
REMARK                            x       y       z     vdW  Elec       q    Type
REMARK                         _______ _______ _______ _____ _____    ______ ____
ROOT
ATOM      1  C   LIG    1        2.274   4.164   0.004  0.00  0.00    +0.190 A 
ATOM      2  C   LIG    1        3.502   3.506  -0.012  0.00  0.00    -0.090 A 
ATOM      3  C   LIG    1        3.556   2.142  -0.020  0.00  0.00    +0.130 A 
ATOM      4  C   LIG    1        2.370   1.400  -0.013  0.00  0.00    -0.190 A 
ATOM      5  C   LIG    1        1.126   2.058   0.002  0.00  0.00    +0.190 A 
ATOM      6  O   LIG    1       -0.016   1.338   0.009  0.00  0.00    -0.270 OA
ATOM      7  C   LIG    1        0.002  -0.004   0.002  0.00  0.00    +0.520 A 
ATOM      8  C   LIG    1        1.212  -0.728  -0.013  0.00  0.00    -0.230 A 
ATOM      9  O   LIG    1       -1.053  -0.612   0.008  0.00  0.00    -0.460 OA
ATOM     10  C   LIG    1        2.397  -0.065  -0.021  0.00  0.00    +0.040 A 
ATOM     11  C   LIG    1        3.704  -0.814  -0.038  0.00  0.00    +0.130 C 
ATOM     12  C   LIG    1        1.090   3.444   0.010  0.00  0.00    -0.030 A 
ENDROOT
BRANCH   1  14
ATOM     13  C   LIG    1        3.492   6.204   0.004  0.00  0.00    +0.250 C 
ATOM     14  O   LIG    1        2.237   5.521   0.012  0.00  0.00    -0.310 OA
ENDBRANCH   1  14
BRANCH   8  15
ATOM     15  C   LIG    1        1.190  -2.235  -0.021  0.00  0.00    +0.140 C 
BRANCH  15  16
ATOM     16  C   LIG    1        1.071  -2.751   1.415  0.00  0.00    +0.050 C 
BRANCH  16  17
ATOM     17  C   LIG    1        1.049  -4.258   1.407  0.00  0.00    +0.520 C 
ATOM     18  N   LIG    1        0.949  -4.936   2.568  0.00  0.00    -0.610 N 
ATOM     19  C   LIG    1        0.861  -4.208   3.836  0.00  0.00    +0.280 C 
ATOM     20  O   LIG    1        1.122  -4.860   0.357  0.00  0.00    -0.530 OA
BRANCH  18  21
ATOM     21  C   LIG    1        0.928  -6.401   2.561  0.00  0.00    +0.350 C 
BRANCH  21  22
ATOM     22  C   LIG    1        2.337  -6.924   2.668  0.00  0.00    -0.130 A 
ATOM     23  C   LIG    1        3.093  -7.174   1.598  0.00  0.00    -0.010 A 
ATOM     24  S   LIG    1        4.667  -7.766   2.113  0.00  0.00    +0.100 S 
ATOM     25  C   LIG    1        4.192  -7.646   3.803  0.00  0.00    -0.060 A 
ATOM     26  C   LIG    1        2.943  -7.187   3.885  0.00  0.00    +0.010 A 
ENDBRANCH  21  22
ENDBRANCH  18  21
ENDBRANCH  16  17
ENDBRANCH  15  16
ENDBRANCH   8  15
TORSDOF 6
