REMARK  Name = ZINCqH0000007LrJ.0
REMARK                            x       y       z     vdW  Elec       q    Type
REMARK                         _______ _______ _______ _____ _____    ______ ____
ROOT
ATOM      1  C   LIG    1        6.964   6.064   5.665  0.00  0.00    +0.130 A 
ATOM      2  C   LIG    1        6.468   7.201   6.288  0.00  0.00    -0.080 A 
ATOM      3  C   LIG    1        5.116   7.484   6.231  0.00  0.00    +0.040 A 
ATOM      4  C   LIG    1        4.258   6.636   5.554  0.00  0.00    -0.030 A 
ATOM      5  C   LIG    1        4.755   5.502   4.935  0.00  0.00    -0.050 A 
ATOM      6  C   LIG    1        3.808   4.581   4.199  0.00  0.00    +0.070 C 
ATOM      7  C   LIG    1        4.066   4.713   2.694  0.00  0.00    +0.280 C 
ATOM      8  N   LIG    1        5.222   3.905   2.320  0.00  0.00    -0.620 N 
ATOM      9  C   LIG    1        5.032   2.856   1.495  0.00  0.00    +0.710 C 
ATOM     10  N   LIG    1        3.817   2.635   0.955  0.00  0.00    -0.730 N 
ATOM     11  H   LIG    1        3.062   3.182   1.221  0.00  0.00    +0.400 HD
ATOM     12  O   LIG    1        5.957   2.109   1.238  0.00  0.00    -0.580 OA
ATOM     13  C   LIG    1        6.574   4.175   2.800  0.00  0.00    +0.310 C 
ATOM     14  C   LIG    1        6.640   3.978   4.313  0.00  0.00    +0.080 C 
ATOM     15  C   LIG    1        6.096   5.217   4.989  0.00  0.00    -0.110 A 
ENDROOT
BRANCH   1  17
ATOM     16  C   LIG    1        9.123   6.699   6.432  0.00  0.00    +0.250 C 
ATOM     17  O   LIG    1        8.292   5.781   5.718  0.00  0.00    -0.310 OA
ENDBRANCH   1  17
BRANCH  10  18
ATOM     18  C   LIG    1        3.638   1.567  -0.032  0.00  0.00    +0.390 C 
BRANCH  18  19
ATOM     19  C   LIG    1        2.201   1.112  -0.024  0.00  0.00    +0.030 A 
ATOM     20  N   LIG    1        1.177   1.897  -0.005  0.00  0.00    -0.460 NA
ATOM     21  C   LIG    1       -0.013   1.331   0.000  0.00  0.00    +0.210 A 
ATOM     22  C   LIG    1        0.008  -0.005  -0.015  0.00  0.00    -0.220 A 
ATOM     23  C   LIG    1       -1.197  -0.910  -0.014  0.00  0.00    +0.150 C 
ATOM     24  S   LIG    1        1.692  -0.521  -0.038  0.00  0.00    +0.150 S 
ENDBRANCH  18  19
BRANCH  18  25
ATOM     25  C   LIG    1        3.997   2.094  -1.423  0.00  0.00    -0.060 C 
ATOM     26  C   LIG    1        4.986   1.274  -2.255  0.00  0.00    +0.030 C 
ATOM     27  C   LIG    1        5.423   2.606  -1.638  0.00  0.00    +0.040 C 
ENDBRANCH  18  25
ENDBRANCH  10  18
TORSDOF 4
