REMARK  Name = ZINCtV00001bB3ot.0
REMARK                            x       y       z     vdW  Elec       q    Type
REMARK                         _______ _______ _______ _____ _____    ______ ____
ROOT
ATOM      1  N   LIG    1       -2.459   3.824   0.046  0.00  0.00    -0.400 N 
ATOM      2  C   LIG    1       -3.142   4.208   1.165  0.00  0.00    +0.020 A 
ATOM      3  C   LIG    1       -4.267   4.840   0.774  0.00  0.00    -0.040 A 
ATOM      4  C   LIG    1       -4.281   4.848  -0.635  0.00  0.00    -0.160 A 
ATOM      5  C   LIG    1       -2.712   3.967   2.589  0.00  0.00    +0.130 C 
ATOM      6  C   LIG    1       -3.161   4.225  -1.054  0.00  0.00    +0.060 A 
ATOM      7  C   LIG    1       -2.756   4.006  -2.489  0.00  0.00    +0.140 C 
ENDROOT
BRANCH   1  12
ATOM      8  C   LIG    1        2.490   1.045  -0.015  0.00  0.00    +0.100 C 
ATOM      9  C   LIG    1        1.176   1.783   0.000  0.00  0.00    -0.070 A 
ATOM     10  C   LIG    1       -0.013   1.076   0.008  0.00  0.00    +0.010 A 
ATOM     11  C   LIG    1       -1.219   1.750   0.017  0.00  0.00    +0.040 A 
ATOM     12  C   LIG    1       -1.236   3.137   0.030  0.00  0.00    +0.100 A 
ATOM     13  C   LIG    1       -0.042   3.845   0.023  0.00  0.00    -0.060 A 
ATOM     14  C   LIG    1       -0.057   5.351   0.030  0.00  0.00    +0.090 C 
ATOM     15  C   LIG    1        1.161   3.166   0.007  0.00  0.00    +0.010 A 
ENDBRANCH   1  12
BRANCH   4  16
ATOM     16  C   LIG    1       -5.349   5.448  -1.513  0.00  0.00    +0.270 C 
BRANCH  16  17
ATOM     17  N   LIG    1       -6.240   4.389  -1.992  0.00  0.00    -0.160 NA
ATOM     18  N   LIG    1       -7.449   4.425  -1.719  0.00  0.00    -0.210 NA
BRANCH  18  19
ATOM     19  C   LIG    1       -8.284   3.433  -2.168  0.00  0.00    +0.290 A 
ATOM     20  N   LIG    1       -7.785   2.449  -2.893  0.00  0.00    -0.460 NA
ATOM     21  C   LIG    1       -8.559   1.461  -3.345  0.00  0.00    +0.130 A 
ATOM     22  C   LIG    1       -8.019   0.412  -4.112  0.00  0.00    +0.050 A 
ATOM     23  C   LIG    1       -8.832  -0.581  -4.565  0.00  0.00    +0.030 A 
ATOM     24  C   LIG    1      -10.197  -0.578  -4.282  0.00  0.00    +0.020 A 
ATOM     25  C   LIG    1      -10.756   0.419  -3.542  0.00  0.00    +0.030 A 
ATOM     26  C   LIG    1       -9.949   1.460  -3.058  0.00  0.00    -0.090 A 
ATOM     27  C   LIG    1      -10.491   2.509  -2.290  0.00  0.00    -0.030 A 
ATOM     28  C   LIG    1      -11.962   2.547  -1.963  0.00  0.00    +0.120 C 
ATOM     29  C   LIG    1       -9.652   3.490  -1.850  0.00  0.00    +0.020 A 
ENDBRANCH  18  19
ENDBRANCH  16  17
ENDBRANCH   4  16
TORSDOF 4
