REMARK  Name = ZINCtV00001bB3ot.1
REMARK                            x       y       z     vdW  Elec       q    Type
REMARK                         _______ _______ _______ _____ _____    ______ ____
ROOT
ATOM      1  N   LIG    1       -2.458   3.824   0.046  0.00  0.00    -0.400 N 
ATOM      2  C   LIG    1       -3.131   4.201   1.173  0.00  0.00    +0.030 A 
ATOM      3  C   LIG    1       -4.261   4.837   0.813  0.00  0.00    -0.020 A 
ATOM      4  C   LIG    1       -4.285   4.851  -0.653  0.00  0.00    -0.150 A 
ATOM      5  C   LIG    1       -2.680   3.948   2.588  0.00  0.00    +0.120 C 
ATOM      6  C   LIG    1       -3.147   4.218  -1.061  0.00  0.00    +0.100 A 
ATOM      7  C   LIG    1       -2.727   3.990  -2.490  0.00  0.00    +0.150 C 
ENDROOT
BRANCH   1  12
ATOM      8  C   LIG    1        2.490   1.045  -0.016  0.00  0.00    +0.100 C 
ATOM      9  C   LIG    1        1.176   1.783   0.000  0.00  0.00    -0.070 A 
ATOM     10  C   LIG    1       -0.013   1.076   0.008  0.00  0.00    +0.010 A 
ATOM     11  C   LIG    1       -1.218   1.750   0.017  0.00  0.00    +0.040 A 
ATOM     12  C   LIG    1       -1.236   3.138   0.030  0.00  0.00    +0.100 A 
ATOM     13  C   LIG    1       -0.041   3.845   0.023  0.00  0.00    -0.060 A 
ATOM     14  C   LIG    1       -0.057   5.351   0.031  0.00  0.00    +0.100 C 
ATOM     15  C   LIG    1        1.161   3.166   0.008  0.00  0.00    +0.010 A 
ENDBRANCH   1  12
BRANCH   4  16
ATOM     16  C   LIG    1       -5.329   5.438  -1.514  0.00  0.00    +0.250 C 
ATOM     17  N   LIG    1       -5.215   5.375  -2.806  0.00  0.00    -0.230 NA
BRANCH  17  18
ATOM     18  N   LIG    1       -6.206   5.932  -3.624  0.00  0.00    -0.570 N 
ATOM     19  H   LIG    1       -6.977   6.365  -3.226  0.00  0.00    +0.390 HD
BRANCH  18  20
ATOM     20  C   LIG    1       -6.085   5.865  -5.003  0.00  0.00    +0.440 A 
ATOM     21  N   LIG    1       -5.028   5.278  -5.528  0.00  0.00    -0.510 NA
ATOM     22  C   LIG    1       -4.873   5.185  -6.854  0.00  0.00    +0.180 A 
ATOM     23  C   LIG    1       -3.747   4.553  -7.408  0.00  0.00    +0.020 A 
ATOM     24  C   LIG    1       -3.612   4.478  -8.761  0.00  0.00    +0.040 A 
ATOM     25  C   LIG    1       -4.574   5.019  -9.610  0.00  0.00    -0.020 A 
ATOM     26  C   LIG    1       -5.679   5.639  -9.108  0.00  0.00    +0.050 A 
ATOM     27  C   LIG    1       -5.851   5.735  -7.720  0.00  0.00    -0.140 A 
ATOM     28  C   LIG    1       -6.981   6.370  -7.164  0.00  0.00    +0.010 A 
ATOM     29  C   LIG    1       -8.044   6.967  -8.049  0.00  0.00    +0.120 C 
ATOM     30  C   LIG    1       -7.087   6.428  -5.807  0.00  0.00    -0.090 A 
ENDBRANCH  18  20
ENDBRANCH  17  18
ENDBRANCH   4  16
TORSDOF 4
