REMARK  Name = ZINCpe000000WPj3.0
REMARK                            x       y       z     vdW  Elec       q    Type
REMARK                         _______ _______ _______ _____ _____    ______ ____
ROOT
ATOM      1  N   LIG    1       -0.698   1.558   1.213  0.00  0.00    -0.720 N 
ATOM      2  H   LIG    1       -1.495   2.106   1.135  0.00  0.00    +0.400 HD
ATOM      3  C   LIG    1       -0.222   1.232   2.431  0.00  0.00    +0.500 C 
ATOM      4  O   LIG    1        0.774   0.548   2.529  0.00  0.00    -0.510 OA
ENDROOT
BRANCH   1   5
ATOM      5  C   LIG    1       -0.013   1.086   0.008  0.00  0.00    +0.280 C 
BRANCH   5   7
ATOM      6  C   LIG    1        0.031   1.205  -2.487  0.00  0.00    +0.050 C 
ATOM      7  C   LIG    1       -0.753   1.593  -1.232  0.00  0.00    +0.220 C 
BRANCH   7   8
ATOM      8  N   LIG    1       -0.877   3.051  -1.164  0.00  0.00    -0.610 N 
ATOM      9  C   LIG    1       -2.218   3.623  -1.160  0.00  0.00    +0.250 C 
ATOM     10  C   LIG    1       -2.188   5.054  -0.622  0.00  0.00    +0.020 C 
ATOM     11  C   LIG    1       -1.106   5.838  -1.374  0.00  0.00    +0.030 C 
ATOM     12  C   LIG    1        0.261   5.269  -0.989  0.00  0.00    +0.060 C 
ATOM     13  C   LIG    1        0.243   3.772  -1.104  0.00  0.00    +0.520 C 
ATOM     14  O   LIG    1        1.305   3.187  -1.151  0.00  0.00    -0.540 OA
ENDBRANCH   7   8
ENDBRANCH   5   7
ENDBRANCH   1   5
BRANCH   3  15
ATOM     15  C   LIG    1       -0.927   1.718   3.671  0.00  0.00    +0.410 C 
BRANCH  15  16
ATOM     16  N   LIG    1       -0.219   1.233   4.858  0.00  0.00    -0.130 N 
ATOM     17  N   LIG    1        0.736   1.852   5.460  0.00  0.00    -0.040 NA
ATOM     18  N   LIG    1        1.128   1.142   6.463  0.00  0.00    -0.270 NA
ATOM     19  C   LIG    1        0.379   0.031   6.481  0.00  0.00    +0.220 A 
ATOM     20  N   LIG    1       -0.457   0.122   5.466  0.00  0.00    -0.290 NA
BRANCH  19  21
ATOM     21  C   LIG    1        0.469  -1.084   7.458  0.00  0.00    -0.020 A 
ATOM     22  C   LIG    1       -0.387  -2.178   7.351  0.00  0.00    +0.050 A 
ATOM     23  C   LIG    1       -0.296  -3.213   8.259  0.00  0.00    +0.010 A 
ATOM     24  C   LIG    1        0.636  -3.161   9.280  0.00  0.00    +0.030 A 
ATOM     25  C   LIG    1        1.484  -2.075   9.394  0.00  0.00    +0.010 A 
ATOM     26  C   LIG    1        1.405  -1.036   8.488  0.00  0.00    +0.060 A 
ENDBRANCH  19  21
ENDBRANCH  15  16
ENDBRANCH   3  15
TORSDOF 6
