REMARK  Name = ZINCpk00000xI2YO.0
REMARK                            x       y       z     vdW  Elec       q    Type
REMARK                         _______ _______ _______ _____ _____    ______ ____
ROOT
ATOM      1  C   LIG    1       -0.024   1.195   0.008  0.00  0.00    +0.590 C 
ATOM      2  N   LIG    1        1.142   1.868  -0.056  0.00  0.00    -0.610 N 
ATOM      3  C   LIG    1        1.162   3.330  -0.219  0.00  0.00    +0.300 C 
ATOM      4  C   LIG    1        2.068   3.929   0.862  0.00  0.00    +0.190 C 
ATOM      5  N   LIG    1        3.384   3.280   0.807  0.00  0.00    -0.530 NA
ATOM      6  C   LIG    1        3.284   1.845   1.108  0.00  0.00    +0.270 C 
ATOM      7  C   LIG    1        4.335   3.942   1.711  0.00  0.00    +0.200 C 
ATOM      8  C   LIG    1        2.428   1.162   0.043  0.00  0.00    +0.320 C 
ATOM      9  O   LIG    1       -0.022  -0.020   0.055  0.00  0.00    -0.520 OA
ENDROOT
BRANCH   1  12
ATOM     10  C   LIG    1       -1.146   2.111  -2.471  0.00  0.00    +0.140 C 
ATOM     11  C   LIG    1       -1.853   2.378  -1.167  0.00  0.00    +0.210 A 
ATOM     12  C   LIG    1       -1.301   1.932   0.016  0.00  0.00    -0.240 A 
ATOM     13  C   LIG    1       -1.968   2.192   1.238  0.00  0.00    +0.150 A 
ATOM     14  C   LIG    1       -3.144   2.873   1.215  0.00  0.00    -0.080 A 
ATOM     15  C   LIG    1       -3.672   3.304  -0.017  0.00  0.00    +0.520 A 
ATOM     16  O   LIG    1       -4.727   3.915  -0.042  0.00  0.00    -0.540 OA
ATOM     17  N   LIG    1       -3.022   3.046  -1.166  0.00  0.00    -0.590 N 
ATOM     18  H   LIG    1       -3.400   3.349  -2.006  0.00  0.00    +0.420 HD
ENDBRANCH   1  12
BRANCH   6  19
ATOM     19  C   LIG    1        4.662   1.236   1.116  0.00  0.00    +0.190 A 
ATOM     20  N   LIG    1        5.143   0.403   2.007  0.00  0.00    -0.470 NA
ATOM     21  C   LIG    1        6.399   0.131   1.609  0.00  0.00    +0.200 A 
ATOM     22  N   LIG    1        6.613   0.800   0.516  0.00  0.00    -0.380 NA
ATOM     23  O   LIG    1        5.627   1.436   0.212  0.00  0.00    +0.100 OA
BRANCH  21  24
ATOM     24  C   LIG    1        7.376  -0.782   2.303  0.00  0.00    +0.060 C 
ATOM     25  C   LIG    1        8.818  -0.793   1.791  0.00  0.00    +0.050 C 
ATOM     26  C   LIG    1        7.900  -1.986   1.516  0.00  0.00    +0.060 C 
ENDBRANCH  21  24
ENDBRANCH   6  19
TORSDOF 3
