REMARK  Name = ZINCqH0000003MLL.0
REMARK                            x       y       z     vdW  Elec       q    Type
REMARK                         _______ _______ _______ _____ _____    ______ ____
ROOT
ATOM      1  S   LIG    1        0.222  -4.702  -0.014  0.00  0.00    +2.700 S 
ATOM      2  O   LIG    1       -0.639  -4.980   1.082  0.00  0.00    -0.950 OA
ATOM      3  O   LIG    1        1.506  -5.294  -0.162  0.00  0.00    -0.960 OA
ENDROOT
BRANCH   1   7
ATOM      4  C   LIG    1        0.915  -0.196  -0.027  0.00  0.00    +0.210 A 
ATOM      5  C   LIG    1        1.957  -1.076  -0.105  0.00  0.00    -0.120 A 
ATOM      6  C   LIG    1        1.735  -2.451  -0.100  0.00  0.00    +0.200 A 
ATOM      7  C   LIG    1        0.474  -2.958  -0.019  0.00  0.00    -0.720 A 
ATOM      8  C   LIG    1       -0.625  -2.086   0.062  0.00  0.00    +0.060 A 
ATOM      9  C   LIG    1       -1.939  -2.576   0.147  0.00  0.00    -0.010 A 
ATOM     10  C   LIG    1       -2.980  -1.701   0.223  0.00  0.00    +0.060 A 
ATOM     11  C   LIG    1       -2.762  -0.325   0.218  0.00  0.00    +0.000 A 
ATOM     12  C   LIG    1       -1.502   0.184   0.138  0.00  0.00    +0.070 A 
ATOM     13  C   LIG    1       -0.404  -0.686   0.064  0.00  0.00    -0.090 A 
BRANCH   4  14
ATOM     14  O   LIG    1        1.148   1.142  -0.032  0.00  0.00    -0.300 OA
BRANCH  14  16
ATOM     15  C   LIG    1        2.574   3.091  -0.112  0.00  0.00    +0.070 C 
ATOM     16  C   LIG    1        2.511   1.563  -0.120  0.00  0.00    +0.190 C 
ENDBRANCH  14  16
ENDBRANCH   4  14
ENDBRANCH   1   7
BRANCH   1  17
ATOM     17  N   LIG    1       -0.628  -5.078  -1.384  0.00  0.00    -1.110 NA
ATOM     18  H   LIG    1       -1.521  -5.450  -1.314  0.00  0.00    +0.420 HD
BRANCH  17  19
ATOM     19  C   LIG    1       -0.031  -4.849  -2.702  0.00  0.00    +0.320 C 
BRANCH  19  20
ATOM     20  C   LIG    1       -0.802  -5.619  -3.744  0.00  0.00    -0.140 A 
ATOM     21  C   LIG    1       -0.430  -6.912  -4.062  0.00  0.00    +0.070 A 
ATOM     22  C   LIG    1       -1.139  -7.622  -5.012  0.00  0.00    -0.080 A 
ATOM     23  C   LIG    1       -2.217  -7.032  -5.655  0.00  0.00    +0.140 A 
ATOM     24  C   LIG    1       -2.584  -5.732  -5.338  0.00  0.00    -0.020 A 
ATOM     25  C   LIG    1       -1.876  -5.029  -4.383  0.00  0.00    +0.070 A 
BRANCH  23  26
ATOM     26  O   LIG    1       -2.912  -7.725  -6.595  0.00  0.00    -0.320 OA
ATOM     27  C   LIG    1       -2.477  -9.059  -6.870  0.00  0.00    +0.250 C 
ENDBRANCH  23  26
ENDBRANCH  19  20
ENDBRANCH  17  19
ENDBRANCH   1  17
TORSDOF 7
