REMARK  Name = ZINCpk00000y4Zre.0
REMARK                            x       y       z     vdW  Elec       q    Type
REMARK                         _______ _______ _______ _____ _____    ______ ____
ROOT
ATOM      1  N   LIG    1       -0.849  -5.641   0.133  0.00  0.00    -0.540 N 
ATOM      2  C   LIG    1       -0.373  -6.115  -1.160  0.00  0.00    +0.270 C 
ATOM      3  C   LIG    1       -0.096  -4.936  -2.094  0.00  0.00    +0.040 C 
ATOM      4  C   LIG    1        0.795  -3.928  -1.360  0.00  0.00    +0.060 C 
ATOM      5  C   LIG    1       -0.013  -3.312  -0.215  0.00  0.00    +0.260 C 
ATOM      6  C   LIG    1       -0.678  -4.397   0.582  0.00  0.00    +0.500 C 
ATOM      7  O   LIG    1       -1.083  -4.127   1.694  0.00  0.00    -0.480 OA
ENDROOT
BRANCH   1  12
ATOM      8  N   LIG    1       -2.866  -6.705   1.030  0.00  0.00    -0.360 N 
ATOM      9  N   LIG    1       -3.126  -7.712   1.969  0.00  0.00    -0.280 NA
ATOM     10  C   LIG    1       -1.983  -8.141   2.440  0.00  0.00    +0.240 A 
ATOM     11  C   LIG    1       -0.955  -7.429   1.816  0.00  0.00    -0.100 A 
ATOM     12  C   LIG    1       -1.525  -6.545   0.953  0.00  0.00    +0.300 A 
BRANCH   8  14
ATOM     13  C   LIG    1       -4.257  -6.757  -0.981  0.00  0.00    +0.040 C 
ATOM     14  C   LIG    1       -3.869  -5.959   0.266  0.00  0.00    +0.310 C 
ENDBRANCH   8  14
ENDBRANCH   1  12
BRANCH   5  15
ATOM     15  N   LIG    1       -1.033  -2.417  -0.766  0.00  0.00    -1.100 NA
ATOM     16  H   LIG    1       -1.470  -2.636  -1.603  0.00  0.00    +0.420 HD
BRANCH  15  17
ATOM     17  S   LIG    1       -1.441  -1.030   0.042  0.00  0.00    +2.720 S 
ATOM     18  O   LIG    1       -2.417  -0.374  -0.756  0.00  0.00    -0.940 OA
ATOM     19  O   LIG    1       -1.665  -1.404   1.394  0.00  0.00    -0.920 OA
BRANCH  17  20
ATOM     20  C   LIG    1       -0.019   0.011   0.043  0.00  0.00    -0.840 A 
ATOM     21  C   LIG    1       -0.042   1.347   0.056  0.00  0.00    +0.250 A 
ATOM     22  C   LIG    1        1.206   1.951   0.054  0.00  0.00    -0.060 A 
ATOM     23  C   LIG    1        2.239   1.106   0.040  0.00  0.00    +0.040 A 
ATOM     24  S   LIG    1        1.648  -0.551   0.027  0.00  0.00    +0.200 S 
BRANCH  21  25
ATOM     25  O   LIG    1       -1.202   2.061   0.064  0.00  0.00    -0.290 OA
ATOM     26  C   LIG    1       -1.087   3.485   0.079  0.00  0.00    +0.250 C 
ENDBRANCH  21  25
ENDBRANCH  17  20
ENDBRANCH  15  17
ENDBRANCH   5  15
TORSDOF 6
