REMARK  Name = ZINCvU0000000Ffd.0
REMARK                            x       y       z     vdW  Elec       q    Type
REMARK                         _______ _______ _______ _____ _____    ______ ____
ROOT
ATOM      1  C   LIG    1       -5.977  -3.938   1.228  0.00  0.00    +0.120 C 
ATOM      2  C   LIG    1       -4.665  -4.617   0.932  0.00  0.00    -0.220 A 
ATOM      3  C   LIG    1       -3.491  -3.997   0.630  0.00  0.00    +0.290 A 
ATOM      4  N   LIG    1       -2.562  -4.959   0.430  0.00  0.00    -0.370 N 
ATOM      5  N   LIG    1       -3.179  -6.202   0.623  0.00  0.00    -0.270 NA
ATOM      6  C   LIG    1       -4.436  -5.996   0.919  0.00  0.00    +0.250 A 
ENDROOT
BRANCH   4   7
ATOM      7  C   LIG    1       -1.157  -4.740   0.078  0.00  0.00    +0.310 C 
ATOM      8  C   LIG    1       -0.265  -5.418   1.117  0.00  0.00    +0.030 C 
ATOM      9  C   LIG    1        1.184  -5.365   0.618  0.00  0.00    +0.030 C 
ATOM     10  C   LIG    1        1.315  -6.305  -0.579  0.00  0.00    +0.070 C 
ATOM     11  C   LIG    1        0.243  -6.019  -1.597  0.00  0.00    -0.060 A 
ATOM     12  C   LIG    1        0.426  -6.506  -2.884  0.00  0.00    +0.010 A 
ATOM     13  C   LIG    1       -0.523  -6.283  -3.860  0.00  0.00    +0.030 A 
ATOM     14  C   LIG    1       -1.666  -5.569  -3.555  0.00  0.00    +0.000 A 
ATOM     15  C   LIG    1       -1.849  -5.082  -2.277  0.00  0.00    +0.010 A 
ATOM     16  C   LIG    1       -0.895  -5.304  -1.294  0.00  0.00    -0.100 A 
ENDBRANCH   4   7
BRANCH   3  17
ATOM     17  N   LIG    1       -3.286  -2.621   0.538  0.00  0.00    -0.650 N 
ATOM     18  H   LIG    1       -2.420  -2.244   0.758  0.00  0.00    +0.410 HD
ATOM     19  C   LIG    1       -4.292  -1.815   0.143  0.00  0.00    +0.510 C 
ATOM     20  O   LIG    1       -5.338  -2.294  -0.240  0.00  0.00    -0.460 OA
BRANCH  19  21
ATOM     21  C   LIG    1       -4.115  -0.319   0.176  0.00  0.00    +0.000 C 
ATOM     22  C   LIG    1       -4.322   0.188   1.605  0.00  0.00    +0.120 C 
BRANCH  21  23
ATOM     23  S   LIG    1       -5.332   0.458  -0.923  0.00  0.00    +0.010 S 
BRANCH  23  24
ATOM     24  C   LIG    1       -4.786  -0.029  -2.526  0.00  0.00    -0.040 A 
ATOM     25  C   LIG    1       -3.589  -0.719  -2.674  0.00  0.00    -0.010 A 
ATOM     26  C   LIG    1       -3.167  -1.104  -3.932  0.00  0.00    +0.120 A 
ATOM     27  C   LIG    1       -3.929  -0.794  -5.043  0.00  0.00    -0.050 A 
ATOM     28  C   LIG    1       -5.118  -0.103  -4.900  0.00  0.00    +0.130 A 
ATOM     29  C   LIG    1       -5.549   0.280  -3.646  0.00  0.00    +0.050 A 
BRANCH  27  30
ATOM     30  N   LIG    1       -3.470  -1.203  -6.390  0.00  0.00    +0.030 N 
ATOM     31  O   LIG    1       -2.423  -1.812  -6.518  0.00  0.00    -0.160 OA
ATOM     32  O   LIG    1       -4.140  -0.931  -7.370  0.00  0.00    -0.160 OA
ENDBRANCH  27  30
ENDBRANCH  23  24
ENDBRANCH  21  23
ENDBRANCH  19  21
ENDBRANCH   3  17
TORSDOF 6
