REMARK  Name = ZINCvU0000000CDv.0
REMARK                            x       y       z     vdW  Elec       q    Type
REMARK                         _______ _______ _______ _____ _____    ______ ____
ROOT
ATOM      1  C   LIG    1       -0.012   1.413   0.519  0.00  0.00    +0.100 A 
ATOM      2  C   LIG    1        1.179   2.135   0.537  0.00  0.00    +0.000 A 
ATOM      3  C   LIG    1        1.171   3.506   0.407  0.00  0.00    +0.010 A 
ATOM      4  C   LIG    1       -0.036   4.183   0.258  0.00  0.00    +0.170 A 
ATOM      5  N   LIG    1       -0.078   5.548   0.128  0.00  0.00    -0.610 N 
ATOM      6  H   LIG    1        0.757   6.042   0.135  0.00  0.00    +0.420 HD
ATOM      7  C   LIG    1       -1.246   6.241  -0.011  0.00  0.00    +0.200 A 
ATOM      8  C   LIG    1       -2.436   5.611  -0.043  0.00  0.00    -0.190 A 
ATOM      9  C   LIG    1       -2.495   4.198   0.081  0.00  0.00    +0.350 A 
ATOM     10  N   LIG    1       -3.669   3.559   0.053  0.00  0.00    -0.580 NA
ATOM     11  C   LIG    1       -3.747   6.334  -0.216  0.00  0.00    +0.110 C 
ATOM     12  C   LIG    1       -3.591   7.821   0.092  0.00  0.00    +0.010 C 
ATOM     13  C   LIG    1       -2.394   8.350  -0.709  0.00  0.00    +0.030 C 
ATOM     14  C   LIG    1       -1.122   7.742  -0.122  0.00  0.00    +0.100 C 
ATOM     15  C   LIG    1       -1.239   3.454   0.240  0.00  0.00    -0.130 A 
ATOM     16  C   LIG    1       -1.220   2.065   0.366  0.00  0.00    +0.060 A 
ENDROOT
BRANCH   1  18
ATOM     17  C   LIG    1        1.298  -0.552   0.797  0.00  0.00    +0.240 C 
ATOM     18  O   LIG    1        0.015   0.060   0.648  0.00  0.00    -0.310 OA
ENDBRANCH   1  18
BRANCH  10  19
ATOM     19  C   LIG    1       -3.764   2.316   0.533  0.00  0.00    +0.580 C 
ATOM     20  O   LIG    1       -3.464   2.086   1.693  0.00  0.00    -0.510 OA
BRANCH  19  21
ATOM     21  C   LIG    1       -4.231   1.220  -0.341  0.00  0.00    +0.010 A 
ATOM     22  C   LIG    1       -4.340  -0.054   0.092  0.00  0.00    -0.030 A 
ATOM     23  S   LIG    1       -4.911  -1.034  -1.188  0.00  0.00    +0.180 S 
ATOM     24  C   LIG    1       -4.961   0.363  -2.257  0.00  0.00    +0.090 A 
ATOM     25  N   LIG    1       -4.568   1.417  -1.607  0.00  0.00    -0.410 NA
BRANCH  24  26
ATOM     26  C   LIG    1       -5.384   0.342  -3.674  0.00  0.00    -0.030 A 
ATOM     27  C   LIG    1       -5.388   1.520  -4.423  0.00  0.00    +0.070 A 
ATOM     28  C   LIG    1       -5.780   1.492  -5.745  0.00  0.00    +0.010 A 
ATOM     29  C   LIG    1       -6.178   0.301  -6.327  0.00  0.00    -0.070 A 
ATOM     30  C   LIG    1       -6.182  -0.869  -5.589  0.00  0.00    +0.010 A 
ATOM     31  C   LIG    1       -6.610   0.279  -7.771  0.00  0.00    +0.090 C 
ATOM     32  C   LIG    1       -5.787  -0.856  -4.267  0.00  0.00    +0.030 A 
ENDBRANCH  24  26
ENDBRANCH  19  21
ENDBRANCH  10  19
TORSDOF 4
