REMARK  Name = ZINCvU0000000BXf.0
REMARK                            x       y       z     vdW  Elec       q    Type
REMARK                         _______ _______ _______ _____ _____    ______ ____
ROOT
ATOM      1  C   LIG    1       -1.223   1.752   0.012  0.00  0.00    +0.120 A 
ATOM      2  C   LIG    1       -0.021   1.083  -0.177  0.00  0.00    +0.060 A 
ATOM      3  C   LIG    1        1.166   1.789  -0.190  0.00  0.00    +0.010 A 
ATOM      4  C   LIG    1        1.158   3.164  -0.009  0.00  0.00    +0.120 A 
ATOM      5  C   LIG    1       -0.042   3.832   0.186  0.00  0.00    -0.060 A 
ATOM      6  C   LIG    1       -1.230   3.128   0.199  0.00  0.00    +0.030 A 
ENDROOT
BRANCH   1   8
ATOM      7  C   LIG    1       -2.464  -0.219   0.505  0.00  0.00    +0.560 C 
ATOM      8  N   LIG    1       -2.428   1.038   0.019  0.00  0.00    -0.670 N 
ATOM      9  H   LIG    1       -3.236   1.448  -0.326  0.00  0.00    +0.410 HD
ATOM     10  O   LIG    1       -1.475  -0.698   1.025  0.00  0.00    -0.500 OA
BRANCH   7  16
ATOM     11  C   LIG    1       -3.743  -2.322   0.905  0.00  0.00    +0.190 A 
ATOM     12  C   LIG    1       -4.916  -3.057   0.813  0.00  0.00    -0.080 A 
ATOM     13  C   LIG    1       -6.034  -2.504   0.220  0.00  0.00    +0.080 A 
ATOM     14  C   LIG    1       -5.997  -1.213  -0.280  0.00  0.00    -0.040 A 
ATOM     15  C   LIG    1       -4.842  -0.466  -0.191  0.00  0.00    +0.080 A 
ATOM     16  C   LIG    1       -3.703  -1.013   0.406  0.00  0.00    -0.180 A 
BRANCH  11  18
ATOM     17  C   LIG    1       -2.758  -4.204   1.968  0.00  0.00    +0.240 C 
ATOM     18  O   LIG    1       -2.642  -2.865   1.482  0.00  0.00    -0.280 OA
ENDBRANCH  11  18
ENDBRANCH   7  16
ENDBRANCH   1   8
BRANCH   4  19
ATOM     19  O   LIG    1        2.327   3.858  -0.022  0.00  0.00    -0.320 OA
BRANCH  19  20
ATOM     20  C   LIG    1        2.245   5.272   0.171  0.00  0.00    +0.330 C 
BRANCH  20  21
ATOM     21  C   LIG    1        3.629   5.866   0.126  0.00  0.00    -0.020 A 
ATOM     22  C   LIG    1        4.776   5.190  -0.065  0.00  0.00    +0.200 A 
ATOM     23  O   LIG    1        5.780   6.089  -0.037  0.00  0.00    -0.190 OA
ATOM     24  C   LIG    1        5.238   7.301   0.171  0.00  0.00    +0.240 A 
ATOM     25  N   LIG    1        3.936   7.165   0.263  0.00  0.00    -0.460 NA
BRANCH  24  26
ATOM     26  C   LIG    1        5.982   8.574   0.272  0.00  0.00    -0.030 A 
ATOM     27  C   LIG    1        5.297   9.771   0.484  0.00  0.00    +0.110 A 
ATOM     28  C   LIG    1        5.997  10.956   0.581  0.00  0.00    +0.000 A 
ATOM     29  C   LIG    1        7.377  10.960   0.459  0.00  0.00    +0.120 A 
ATOM     30  C   LIG    1        8.062   9.774   0.244  0.00  0.00    +0.000 A 
ATOM     31  F   LIG    1        8.058  12.123   0.551  0.00  0.00    -0.130 F 
ATOM     32  C   LIG    1        7.373   8.584   0.149  0.00  0.00    +0.080 A 
ENDBRANCH  24  26
ENDBRANCH  20  21
ENDBRANCH  19  20
ENDBRANCH   4  19
TORSDOF 7
