REMARK  Name = ZINCrH000004swmq.0
REMARK                            x       y       z     vdW  Elec       q    Type
REMARK                         _______ _______ _______ _____ _____    ______ ____
ROOT
ATOM      1  C   LIG    1        5.151   1.778   1.489  0.00  0.00    +0.610 C 
ATOM      2  N   LIG    1        3.916   1.838   0.952  0.00  0.00    -0.730 N 
ATOM      3  H   LIG    1        3.308   2.546   1.213  0.00  0.00    +0.400 HD
ATOM      4  O   LIG    1        5.914   0.889   1.161  0.00  0.00    -0.500 OA
ENDROOT
BRANCH   1   7
ATOM      5  C   LIG    1        7.880   1.843   2.829  0.00  0.00    +0.170 C 
ATOM      6  C   LIG    1        6.782   2.843   3.084  0.00  0.00    +0.170 A 
ATOM      7  C   LIG    1        5.574   2.784   2.468  0.00  0.00    -0.310 A 
ATOM      8  S   LIG    1        4.609   4.139   3.050  0.00  0.00    +0.160 S 
ATOM      9  C   LIG    1        5.898   4.638   4.055  0.00  0.00    +0.080 A 
ATOM     10  N   LIG    1        6.910   3.844   3.919  0.00  0.00    -0.470 NA
BRANCH   9  11
ATOM     11  C   LIG    1        5.863   5.838   4.967  0.00  0.00    +0.050 C 
ATOM     12  C   LIG    1        6.965   6.822   4.560  0.00  0.00    +0.040 C 
ATOM     13  C   LIG    1        6.970   7.999   5.540  0.00  0.00    -0.010 C 
ATOM     14  C   LIG    1        7.161   7.467   6.963  0.00  0.00    +0.220 C 
ATOM     15  O   LIG    1        6.121   6.535   7.266  0.00  0.00    -0.380 OA
ATOM     16  C   LIG    1        6.097   5.390   6.412  0.00  0.00    +0.250 C 
ENDBRANCH   9  11
ENDBRANCH   1   7
BRANCH   2  17
ATOM     17  C   LIG    1        3.493   0.832  -0.026  0.00  0.00    +0.390 C 
BRANCH  17  18
ATOM     18  C   LIG    1        1.990   0.720  -0.013  0.00  0.00    +0.170 A 
ATOM     19  N   LIG    1        1.291  -0.389  -0.012  0.00  0.00    -0.460 NA
ATOM     20  C   LIG    1        0.002  -0.004   0.002  0.00  0.00    +0.210 A 
ATOM     21  N   LIG    1       -0.015   1.295   0.009  0.00  0.00    -0.380 NA
ATOM     22  O   LIG    1        1.117   1.731   0.001  0.00  0.00    +0.080 OA
BRANCH  20  23
ATOM     23  C   LIG    1       -1.200  -0.912   0.009  0.00  0.00    +0.050 C 
ATOM     24  C   LIG    1       -2.575  -0.267  -0.181  0.00  0.00    +0.050 C 
ATOM     25  C   LIG    1       -2.163  -0.802   1.193  0.00  0.00    +0.060 C 
ENDBRANCH  20  23
ENDBRANCH  17  18
BRANCH  17  26
ATOM     26  C   LIG    1        3.961   1.250  -1.422  0.00  0.00    -0.020 C 
ATOM     27  C   LIG    1        3.519   0.200  -2.443  0.00  0.00    +0.040 C 
ATOM     28  C   LIG    1        5.487   1.365  -1.435  0.00  0.00    +0.050 C 
ENDBRANCH  17  26
ENDBRANCH   2  17
TORSDOF 6
