REMARK  Name = ZINCqH0000035xVA.0
REMARK                            x       y       z     vdW  Elec       q    Type
REMARK                         _______ _______ _______ _____ _____    ______ ____
ROOT
ATOM      1  N   LIG    1        3.843  -3.487  -2.387  0.00  0.00    -0.720 N 
ATOM      2  H   LIG    1        3.630  -4.428  -2.288  0.00  0.00    +0.400 HD
ATOM      3  C   LIG    1        3.166  -2.564  -1.676  0.00  0.00    +0.600 C 
ATOM      4  O   LIG    1        3.434  -1.384  -1.800  0.00  0.00    -0.490 OA
ENDROOT
BRANCH   3   5
ATOM      5  C   LIG    1        2.103  -2.983  -0.752  0.00  0.00    -0.070 A 
ATOM      6  C   LIG    1        1.239  -2.164  -0.031  0.00  0.00    +0.110 A 
ATOM      7  N   LIG    1        0.444  -2.991   0.665  0.00  0.00    -0.250 NA
ATOM      8  N   LIG    1        0.772  -4.207   0.417  0.00  0.00    -0.040 NA
ATOM      9  N   LIG    1        1.752  -4.265  -0.414  0.00  0.00    -0.370 N 
ATOM     10  H   LIG    1        2.168  -5.075  -0.748  0.00  0.00    +0.450 HD
BRANCH   6  11
ATOM     11  C   LIG    1        1.202  -0.682  -0.035  0.00  0.00    -0.030 A 
ATOM     12  C   LIG    1        1.294   0.016  -1.238  0.00  0.00    +0.060 A 
ATOM     13  C   LIG    1        1.258   1.396  -1.236  0.00  0.00    +0.010 A 
ATOM     14  C   LIG    1        1.130   2.086  -0.044  0.00  0.00    +0.020 A 
ATOM     15  C   LIG    1        1.038   1.398   1.153  0.00  0.00    +0.000 A 
ATOM     16  C   LIG    1        1.073   0.018   1.163  0.00  0.00    +0.050 A 
ENDBRANCH   6  11
ENDBRANCH   3   5
BRANCH   1  17
ATOM     17  C   LIG    1        4.903  -3.070  -3.308  0.00  0.00    +0.270 C 
ATOM     18  C   LIG    1        6.216  -2.912  -2.538  0.00  0.00    +0.030 C 
BRANCH  17  19
ATOM     19  C   LIG    1        5.076  -4.127  -4.400  0.00  0.00    +0.200 C 
BRANCH  19  20
ATOM     20  C   LIG    1        6.078  -3.642  -5.415  0.00  0.00    -0.100 A 
ATOM     21  C   LIG    1        7.430  -3.830  -5.196  0.00  0.00    +0.060 A 
ATOM     22  C   LIG    1        8.350  -3.389  -6.129  0.00  0.00    +0.050 A 
ATOM     23  C   LIG    1        7.917  -2.751  -7.278  0.00  0.00    -0.080 A 
ATOM     24  C   LIG    1        6.564  -2.558  -7.494  0.00  0.00    +0.050 A 
ATOM     25 BR   LIG    1        9.175  -2.142  -8.552  0.00  0.00    -0.050 Br
ATOM     26  C   LIG    1        5.646  -3.004  -6.563  0.00  0.00    +0.030 A 
ENDBRANCH  19  20
BRANCH  19  28
ATOM     27  C   LIG    1        5.121  -6.522  -4.505  0.00  0.00    +0.210 C 
ATOM     28  O   LIG    1        5.543  -5.344  -3.814  0.00  0.00    -0.370 OA
ENDBRANCH  19  28
ENDBRANCH  17  19
ENDBRANCH   1  17
TORSDOF 6
