REMARK  Name = ZINCqH0000035xVA.1
REMARK                            x       y       z     vdW  Elec       q    Type
REMARK                         _______ _______ _______ _____ _____    ______ ____
ROOT
ATOM      1  N   LIG    1       -3.202   2.965   1.283  0.00  0.00    -0.710 N 
ATOM      2  H   LIG    1       -3.141   2.240   0.640  0.00  0.00    +0.410 HD
ATOM      3  C   LIG    1       -4.372   3.609   1.464  0.00  0.00    +0.610 C 
ATOM      4  O   LIG    1       -4.448   4.516   2.269  0.00  0.00    -0.510 OA
ENDROOT
BRANCH   3   5
ATOM      5  C   LIG    1       -5.561   3.212   0.684  0.00  0.00    -0.040 A 
ATOM      6  N   LIG    1       -5.640   2.256  -0.228  0.00  0.00    -0.240 NA
ATOM      7  N   LIG    1       -6.843   2.214  -0.680  0.00  0.00    -0.220 N 
ATOM      8  H   LIG    1       -7.150   1.592  -1.358  0.00  0.00    +0.480 HD
ATOM      9  N   LIG    1       -7.584   3.104  -0.124  0.00  0.00    -0.270 NA
ATOM     10  C   LIG    1       -6.860   3.779   0.749  0.00  0.00    +0.110 A 
BRANCH  10  11
ATOM     11  C   LIG    1       -7.309   4.897   1.615  0.00  0.00    -0.030 A 
ATOM     12  C   LIG    1       -6.790   5.038   2.900  0.00  0.00    +0.080 A 
ATOM     13  C   LIG    1       -7.208   6.083   3.699  0.00  0.00    +0.000 A 
ATOM     14  C   LIG    1       -8.149   6.982   3.231  0.00  0.00    +0.020 A 
ATOM     15  C   LIG    1       -8.672   6.843   1.958  0.00  0.00    +0.000 A 
ATOM     16  C   LIG    1       -8.257   5.806   1.148  0.00  0.00    +0.040 A 
ENDBRANCH  10  11
ENDBRANCH   3   5
BRANCH   1  17
ATOM     17  C   LIG    1       -2.022   3.358   2.057  0.00  0.00    +0.260 C 
ATOM     18  C   LIG    1       -2.038   2.644   3.410  0.00  0.00    +0.040 C 
BRANCH  17  19
ATOM     19  C   LIG    1       -0.756   2.970   1.290  0.00  0.00    +0.200 C 
BRANCH  19  20
ATOM     20  C   LIG    1        0.454   3.483   2.026  0.00  0.00    -0.100 A 
ATOM     21  C   LIG    1        1.003   2.741   3.055  0.00  0.00    +0.060 A 
ATOM     22  C   LIG    1        2.117   3.209   3.727  0.00  0.00    +0.040 A 
ATOM     23  C   LIG    1        2.676   4.425   3.376  0.00  0.00    -0.080 A 
ATOM     24  C   LIG    1        2.123   5.169   2.350  0.00  0.00    +0.050 A 
ATOM     25 BR   LIG    1        4.195   5.069   4.300  0.00  0.00    -0.050 Br
ATOM     26  C   LIG    1        1.012   4.698   1.675  0.00  0.00    +0.030 A 
ENDBRANCH  19  20
BRANCH  19  28
ATOM     27  C   LIG    1       -0.013   1.086   0.008  0.00  0.00    +0.200 C 
ATOM     28  O   LIG    1       -0.682   1.547   1.184  0.00  0.00    -0.370 OA
ENDBRANCH  19  28
ENDBRANCH  17  19
ENDBRANCH   1  17
TORSDOF 6
