REMARK  Name = ZINCtV00000vt7NT.0
REMARK                            x       y       z     vdW  Elec       q    Type
REMARK                         _______ _______ _______ _____ _____    ______ ____
ROOT
ATOM      1  C   LIG    1        2.371   1.126  -0.015  0.00  0.00    +0.210 C 
ENDROOT
BRANCH   1   2
ATOM      2  C   LIG    1        2.810   0.851   1.401  0.00  0.00    -0.110 A 
ATOM      3  C   LIG    1        2.603   1.799   2.385  0.00  0.00    +0.040 A 
ATOM      4  C   LIG    1        3.002   1.544   3.684  0.00  0.00    +0.010 A 
ATOM      5  C   LIG    1        3.615   0.345   3.997  0.00  0.00    +0.020 A 
ATOM      6  C   LIG    1        3.826  -0.601   3.011  0.00  0.00    +0.010 A 
ATOM      7  C   LIG    1        3.424  -0.348   1.713  0.00  0.00    +0.020 A 
ENDBRANCH   1   2
BRANCH   1   8
ATOM      8  C   LIG    1        3.446   1.903  -0.731  0.00  0.00    +0.440 C 
ATOM      9  O   LIG    1        3.340   3.105  -0.863  0.00  0.00    -0.430 OA
BRANCH   8  10
ATOM     10  C   LIG    1        4.580   1.230  -1.251  0.00  0.00    -0.270 A 
ATOM     11  C   LIG    1        4.844  -0.121  -1.183  0.00  0.00    +0.320 A 
ATOM     12  N   LIG    1        6.017  -0.384  -1.790  0.00  0.00    -0.560 N 
ATOM     13  H   LIG    1        6.411  -1.266  -1.869  0.00  0.00    +0.420 HD
ATOM     14  C   LIG    1        6.580   0.775  -2.285  0.00  0.00    +0.080 A 
ATOM     15  C   LIG    1        7.758   1.037  -2.978  0.00  0.00    +0.000 A 
ATOM     16  C   LIG    1        8.063   2.328  -3.352  0.00  0.00    +0.030 A 
ATOM     17  C   LIG    1        7.207   3.374  -3.043  0.00  0.00    +0.000 A 
ATOM     18  C   LIG    1        6.036   3.135  -2.357  0.00  0.00    +0.060 A 
ATOM     19  C   LIG    1        5.712   1.835  -1.979  0.00  0.00    -0.050 A 
ENDBRANCH   8  10
ENDBRANCH   1   8
BRANCH   1  20
ATOM     20  O   LIG    1        1.143   1.900   0.001  0.00  0.00    -0.310 OA
BRANCH  20  22
ATOM     21  O   LIG    1        0.002  -0.004   0.002  0.00  0.00    -0.470 OA
ATOM     22  C   LIG    1       -0.014   1.211   0.009  0.00  0.00    +0.520 C 
BRANCH  22  23
ATOM     23  C   LIG    1       -1.302   1.931   0.019  0.00  0.00    -0.090 A 
ATOM     24  C   LIG    1       -1.918   2.286  -1.185  0.00  0.00    +0.010 A 
ATOM     25  C   LIG    1       -3.126   2.955  -1.167  0.00  0.00    +0.050 A 
ATOM     26  C   LIG    1       -3.721   3.284   0.037  0.00  0.00    +0.080 A 
ATOM     27  C   LIG    1       -3.115   2.942   1.233  0.00  0.00    +0.050 A 
ATOM     28 CL   LIG    1       -1.170   1.880  -2.698  0.00  0.00    -0.040 Cl
ATOM     29  C   LIG    1       -1.910   2.268   1.232  0.00  0.00    +0.010 A 
ATOM     30 CL   LIG    1       -1.151   1.839   2.733  0.00  0.00    -0.030 Cl
ENDBRANCH  22  23
ENDBRANCH  20  22
ENDBRANCH   1  20
TORSDOF 6
