REMARK  Name = ZINCAx0000000apv.0
REMARK                            x       y       z     vdW  Elec       q    Type
REMARK                         _______ _______ _______ _____ _____    ______ ____
ROOT
ATOM      1  C   LIG    1        7.942   7.252  -1.668  0.00  0.00    -0.650 A 
ATOM      2  C   LIG    1        8.622   6.833  -0.535  0.00  0.00    +0.130 A 
ATOM      3  C   LIG    1        8.219   5.694   0.128  0.00  0.00    +0.070 A 
ATOM      4  C   LIG    1        7.130   4.962  -0.336  0.00  0.00    -0.150 A 
ATOM      5  S   LIG    1        6.377   3.490   0.274  0.00  0.00    +0.060 S 
ATOM      6  C   LIG    1        5.200   3.535  -1.032  0.00  0.00    +0.380 A 
ATOM      7  N   LIG    1        5.413   4.553  -1.793  0.00  0.00    -0.530 NA
ATOM      8  C   LIG    1        6.435   5.374  -1.477  0.00  0.00    +0.110 A 
ATOM      9  C   LIG    1        6.866   6.542  -2.140  0.00  0.00    +0.170 A 
ENDROOT
BRANCH   1  10
ATOM     10  S   LIG    1        8.463   8.709  -2.510  0.00  0.00    +2.690 S 
ATOM     11  O   LIG    1        9.166   9.494  -1.556  0.00  0.00    -0.950 OA
ATOM     12  O   LIG    1        7.332   9.185  -3.227  0.00  0.00    -0.950 OA
BRANCH  10  13
ATOM     13  N   LIG    1        9.576   8.248  -3.646  0.00  0.00    -1.090 NA
ATOM     14  H   LIG    1       10.497   8.544  -3.572  0.00  0.00    +0.430 HD
BRANCH  13  15
ATOM     15  C   LIG    1        9.171   7.390  -4.763  0.00  0.00    +0.260 C 
BRANCH  15  16
ATOM     16  C   LIG    1        8.812   8.260  -5.969  0.00  0.00    +0.170 C 
BRANCH  16  18
ATOM     17  C   LIG    1        9.753   9.792  -7.554  0.00  0.00    +0.200 C 
ATOM     18  O   LIG    1        9.980   8.948  -6.424  0.00  0.00    -0.380 OA
ENDBRANCH  16  18
ENDBRANCH  15  16
BRANCH  15  19
ATOM     19  C   LIG    1       10.324   6.455  -5.133  0.00  0.00    +0.200 C 
BRANCH  19  20
ATOM     20  N   LIG    1       10.723   5.678  -3.952  0.00  0.00    -0.530 NA
ATOM     21  C   LIG    1       12.078   5.131  -4.113  0.00  0.00    +0.150 C 
ATOM     22  C   LIG    1       12.475   4.380  -2.839  0.00  0.00    +0.220 C 
ATOM     23  O   LIG    1       11.508   3.361  -2.571  0.00  0.00    -0.380 OA
ATOM     24  C   LIG    1       10.177   3.859  -2.408  0.00  0.00    +0.220 C 
ATOM     25  C   LIG    1        9.757   4.604  -3.677  0.00  0.00    +0.140 C 
ENDBRANCH  19  20
ENDBRANCH  15  19
ENDBRANCH  13  15
ENDBRANCH  10  13
ENDBRANCH   1  10
BRANCH   6  26
ATOM     26  N   LIG    1        4.194   2.609  -1.219  0.00  0.00    -0.680 N 
ATOM     27  H   LIG    1        3.582   2.701  -1.965  0.00  0.00    +0.420 HD
BRANCH  26  28
ATOM     28  C   LIG    1        4.052   1.485  -0.289  0.00  0.00    +0.300 C 
ATOM     29  C   LIG    1        4.832   0.248  -0.792  0.00  0.00    +0.270 C 
ATOM     30  O   LIG    1        3.981  -0.844  -0.405  0.00  0.00    -0.280 OA
ATOM     31  C   LIG    1        2.690  -0.413  -0.362  0.00  0.00    +0.190 A 
ATOM     32  C   LIG    1        1.505  -1.143  -0.381  0.00  0.00    -0.030 A 
ATOM     33  C   LIG    1        0.286  -0.495  -0.308  0.00  0.00    +0.190 A 
ATOM     34  C   LIG    1        0.233   0.885  -0.217  0.00  0.00    -0.060 A 
ATOM     35  C   LIG    1        1.409   1.618  -0.200  0.00  0.00    +0.200 A 
ATOM     36  F   LIG    1        1.364   2.966  -0.111  0.00  0.00    -0.120 F 
ATOM     37  F   LIG    1       -0.859  -1.212  -0.328  0.00  0.00    -0.120 F 
ATOM     38  C   LIG    1        2.625   0.972  -0.275  0.00  0.00    -0.260 A 
ENDBRANCH  26  28
ENDBRANCH   6  26
TORSDOF 9
