REMARK  Name = ZINCpe000000XpHX.1
REMARK                            x       y       z     vdW  Elec       q    Type
REMARK                         _______ _______ _______ _____ _____    ______ ____
ROOT
ATOM      1  S   LIG    1       -1.556   2.235   0.022  0.00  0.00    +2.500 S 
ATOM      2  O   LIG    1       -2.467   1.328  -0.584  0.00  0.00    -0.930 OA
ATOM      3  O   LIG    1       -1.263   3.490  -0.578  0.00  0.00    -0.930 OA
ENDROOT
BRANCH   1   4
ATOM      4  C   LIG    1       -0.017   1.378   0.010  0.00  0.00    -0.660 A 
ATOM      5  C   LIG    1        0.002  -0.004   0.002  0.00  0.00    +0.140 A 
ATOM      6  C   LIG    1        1.207  -0.684  -0.013  0.00  0.00    +0.010 A 
ATOM      7  C   LIG    1        2.396   0.025  -0.020  0.00  0.00    +0.120 A 
ATOM      8  O   LIG    1        3.591  -0.633  -0.034  0.00  0.00    -0.320 OA
ATOM      9  C   LIG    1        4.357  -0.511  -1.234  0.00  0.00    +0.230 C 
ATOM     10  C   LIG    1        5.186   0.764  -1.218  0.00  0.00    +0.000 C 
ATOM     11  C   LIG    1        4.322   2.016  -1.221  0.00  0.00    +0.230 C 
ATOM     12  O   LIG    1        3.554   2.104  -0.019  0.00  0.00    -0.310 OA
ATOM     13  C   LIG    1        2.377   1.413  -0.013  0.00  0.00    +0.050 A 
ATOM     14  C   LIG    1        1.170   2.090   0.002  0.00  0.00    +0.140 A 
ENDBRANCH   1   4
BRANCH   1  15
ATOM     15  C   LIG    1       -1.943   2.446   1.781  0.00  0.00    -0.290 C 
BRANCH  15  16
ATOM     16  C   LIG    1       -3.274   3.187   1.925  0.00  0.00    +0.080 C 
BRANCH  16  23
ATOM     17  C   LIG    1       -5.888   5.838   6.851  0.00  0.00    +0.050 C 
ATOM     18  C   LIG    1       -5.389   5.651   5.417  0.00  0.00    +0.110 C 
ATOM     19  C   LIG    1       -5.061   4.173   5.178  0.00  0.00    +0.300 C 
ATOM     20  N   LIG    1       -4.728   3.992   3.757  0.00  0.00    -0.610 N 
ATOM     21  C   LIG    1       -5.661   4.521   2.751  0.00  0.00    +0.270 C 
ATOM     22  C   LIG    1       -5.968   5.980   3.085  0.00  0.00    +0.170 C 
ATOM     23  C   LIG    1       -3.596   3.362   3.387  0.00  0.00    +0.520 C 
ATOM     24  O   LIG    1       -2.835   2.936   4.231  0.00  0.00    -0.530 OA
ATOM     25  N   LIG    1       -6.433   6.075   4.475  0.00  0.00    -0.690 NA
ATOM     26  H   LIG    1       -6.753   7.009   4.686  0.00  0.00    +0.350 HD
ENDBRANCH  16  23
ENDBRANCH  15  16
ENDBRANCH   1  15
TORSDOF 4
