REMARK  Name = ZINCvU0000000Gnd.0
REMARK                            x       y       z     vdW  Elec       q    Type
REMARK                         _______ _______ _______ _____ _____    ______ ____
ROOT
ATOM      1  N   LIG    1       -3.793   2.994  -0.087  0.00  0.00    -0.590 N 
ATOM      2  C   LIG    1       -2.575   3.573  -0.078  0.00  0.00    +0.570 C 
ATOM      3  O   LIG    1       -2.474   4.775   0.070  0.00  0.00    -0.530 OA
ENDROOT
BRANCH   2   4
ATOM      4  C   LIG    1       -1.362   2.744  -0.249  0.00  0.00    -0.130 A 
ATOM      5  C   LIG    1       -1.348   1.422   0.197  0.00  0.00    +0.050 A 
ATOM      6  C   LIG    1       -0.211   0.656   0.039  0.00  0.00    +0.000 A 
ATOM      7  C   LIG    1        0.909   1.193  -0.570  0.00  0.00    -0.050 A 
ATOM      8  C   LIG    1        0.900   2.502  -1.019  0.00  0.00    +0.010 A 
ATOM      9  C   LIG    1       -0.229   3.280  -0.862  0.00  0.00    +0.070 A 
BRANCH   7  10
ATOM     10  C   LIG    1        2.145   0.349  -0.745  0.00  0.00    +0.030 C 
ATOM     11  C   LIG    1        3.317   1.003  -0.010  0.00  0.00    +0.020 C 
ATOM     12  C   LIG    1        4.572   0.145  -0.188  0.00  0.00    +0.000 C 
ATOM     13  C   LIG    1        4.904   0.030  -1.677  0.00  0.00    +0.000 C 
ATOM     14  C   LIG    1        3.732  -0.623  -2.412  0.00  0.00    +0.000 C 
ATOM     15  C   LIG    1        2.478   0.234  -2.234  0.00  0.00    +0.020 C 
ENDBRANCH   7  10
ENDBRANCH   2   4
BRANCH   1  17
ATOM     16  C   LIG    1       -4.179   1.012   1.292  0.00  0.00    +0.040 C 
ATOM     17  C   LIG    1       -3.910   1.535  -0.121  0.00  0.00    +0.270 C 
ENDBRANCH   1  17
BRANCH   1  18
ATOM     18  C   LIG    1       -4.998   3.826  -0.063  0.00  0.00    +0.340 C 
BRANCH  18  19
ATOM     19  C   LIG    1       -5.418   4.144  -1.475  0.00  0.00    +0.500 C 
ATOM     20  N   LIG    1       -6.509   4.902  -1.699  0.00  0.00    -0.680 N 
ATOM     21  H   LIG    1       -7.055   5.199  -0.954  0.00  0.00    +0.410 HD
ATOM     22  O   LIG    1       -4.772   3.719  -2.409  0.00  0.00    -0.500 OA
BRANCH  20  23
ATOM     23  C   LIG    1       -6.855   5.261  -3.006  0.00  0.00    +0.200 A 
ATOM     24  C   LIG    1       -6.546   4.417  -4.065  0.00  0.00    +0.030 A 
ATOM     25  C   LIG    1       -6.894   4.771  -5.354  0.00  0.00    +0.070 A 
ATOM     26  C   LIG    1       -7.540   5.971  -5.592  0.00  0.00    +0.000 A 
ATOM     27  C   LIG    1       -7.844   6.816  -4.541  0.00  0.00    +0.090 A 
ATOM     28  C   LIG    1       -7.504   6.465  -3.249  0.00  0.00    -0.220 A 
BRANCH  28  29
ATOM     29  C   LIG    1       -7.836   7.387  -2.104  0.00  0.00    +0.510 C 
ATOM     30  F   LIG    1       -6.657   7.764  -1.453  0.00  0.00    -0.170 F 
ATOM     31  F   LIG    1       -8.677   6.727  -1.202  0.00  0.00    -0.180 F 
ATOM     32  F   LIG    1       -8.482   8.527  -2.596  0.00  0.00    -0.170 F 
ENDBRANCH  28  29
ENDBRANCH  20  23
ENDBRANCH  18  19
ENDBRANCH   1  18
TORSDOF 7
