REMARK  Name = ZINCkj00000GeONT.0
REMARK                            x       y       z     vdW  Elec       q    Type
REMARK                         _______ _______ _______ _____ _____    ______ ____
ROOT
ATOM      1  N   LIG    1        2.592   1.403  -5.972  0.00  0.00    -0.750 N 
ATOM      2  H   LIG    1        3.135   0.600  -5.938  0.00  0.00    +0.400 HD
ATOM      3  C   LIG    1        1.962   1.838  -4.863  0.00  0.00    +0.710 C 
ATOM      4  N   LIG    1        2.084   1.156  -3.707  0.00  0.00    -0.740 N 
ATOM      5  H   LIG    1        2.627   0.353  -3.672  0.00  0.00    +0.400 HD
ATOM      6  O   LIG    1        1.282   2.845  -4.905  0.00  0.00    -0.580 OA
ENDROOT
BRANCH   4   7
ATOM      7  C   LIG    1        1.399   1.629  -2.501  0.00  0.00    +0.250 C 
ATOM      8  C   LIG    1       -0.037   1.099  -2.490  0.00  0.00    +0.000 C 
ATOM      9  C   LIG    1       -0.753   1.593  -1.232  0.00  0.00    +0.020 C 
ATOM     10  C   LIG    1       -0.013   1.086   0.008  0.00  0.00    -0.010 C 
ATOM     11  C   LIG    1        1.423   1.615  -0.003  0.00  0.00    +0.030 C 
ATOM     12  C   LIG    1        2.139   1.122  -1.262  0.00  0.00    +0.020 C 
BRANCH  10  13
ATOM     13  C   LIG    1       -0.729   1.579   1.267  0.00  0.00    +0.180 C 
BRANCH  13  14
ATOM     14  O   LIG    1       -2.030   0.991   1.336  0.00  0.00    -0.570 OA
ATOM     15  H   LIG    1       -2.542   1.260   2.111  0.00  0.00    +0.380 HD
ENDBRANCH  13  14
ENDBRANCH  10  13
ENDBRANCH   4   7
BRANCH   1  19
ATOM     16  C   LIG    1        3.045   2.144  -9.576  0.00  0.00    +0.170 C 
ATOM     17  C   LIG    1        1.575   1.683  -9.489  0.00  0.00    +0.050 C 
ATOM     18  C   LIG    1        1.203   1.683  -7.996  0.00  0.00    +0.030 C 
ATOM     19  C   LIG    1        2.459   2.144  -7.228  0.00  0.00    +0.280 C 
ATOM     20  C   LIG    1        3.632   1.809  -8.183  0.00  0.00    +0.050 C 
BRANCH  16  22
ATOM     21  C   LIG    1        3.123   1.670 -11.927  0.00  0.00    +0.320 C 
ATOM     22  N   LIG    1        3.755   1.403 -10.628  0.00  0.00    -0.380 N 
ATOM     23  C   LIG    1        5.158   1.834 -10.668  0.00  0.00    +0.320 C 
ATOM     24  H   LIG    1        3.712   0.414 -10.430  0.00  0.00    +0.420 HD
ENDBRANCH  16  22
ENDBRANCH   1  19
TORSDOF 5
