REMARK  Name = ZINCrH000004ssJ0.0
REMARK                            x       y       z     vdW  Elec       q    Type
REMARK                         _______ _______ _______ _____ _____    ______ ____
ROOT
ATOM      1  C   LIG    1       -3.175   2.686   1.531  0.00  0.00    +0.160 A 
ATOM      2  C   LIG    1       -3.143   3.513   2.647  0.00  0.00    -0.070 A 
ATOM      3  C   LIG    1       -4.138   4.445   2.844  0.00  0.00    +0.120 A 
ATOM      4  C   LIG    1       -5.185   4.551   1.925  0.00  0.00    -0.170 A 
ATOM      5  C   LIG    1       -5.216   3.713   0.807  0.00  0.00    +0.090 A 
ATOM      6  C   LIG    1       -4.215   2.788   0.614  0.00  0.00    -0.010 A 
ENDROOT
BRANCH   4   7
ATOM      7  C   LIG    1       -6.256   5.544   2.135  0.00  0.00    +0.570 C 
ATOM      8  N   LIG    1       -6.755   6.229   1.086  0.00  0.00    -0.600 N 
ATOM      9  C   LIG    1       -6.309   5.914  -0.273  0.00  0.00    +0.290 C 
ATOM     10  O   LIG    1       -6.689   5.745   3.253  0.00  0.00    -0.530 OA
BRANCH   8  11
ATOM     11  C   LIG    1       -7.742   7.289   1.306  0.00  0.00    +0.290 C 
ATOM     12  C   LIG    1       -9.031   6.994   0.509  0.00  0.00    +0.040 C 
ATOM     13  C   LIG    1       -8.781   7.748  -0.814  0.00  0.00    +0.070 C 
ATOM     14  C   LIG    1       -7.828   8.869  -0.458  0.00  0.00    -0.090 A 
ATOM     15  C   LIG    1       -7.509  10.027  -1.146  0.00  0.00    +0.010 A 
ATOM     16  C   LIG    1       -6.596  10.919  -0.618  0.00  0.00    +0.020 A 
ATOM     17  C   LIG    1       -5.998  10.655   0.600  0.00  0.00    +0.010 A 
ATOM     18  C   LIG    1       -6.316   9.500   1.288  0.00  0.00    +0.030 A 
ATOM     19  C   LIG    1       -7.231   8.605   0.760  0.00  0.00    -0.110 A 
ENDBRANCH   8  11
ENDBRANCH   4   7
BRANCH   1  20
ATOM     20  O   LIG    1       -2.190   1.772   1.338  0.00  0.00    -0.310 OA
BRANCH  20  21
ATOM     21  C   LIG    1       -1.151   1.720   2.318  0.00  0.00    +0.360 C 
BRANCH  21  25
ATOM     22  C   LIG    1        1.274  -2.638   1.873  0.00  0.00    +0.260 C 
ATOM     23  C   LIG    1        0.861  -1.193   1.762  0.00  0.00    +0.190 A 
ATOM     24  N   LIG    1       -0.195  -0.638   2.308  0.00  0.00    -0.470 NA
ATOM     25  C   LIG    1       -0.155   0.655   1.939  0.00  0.00    +0.160 A 
ATOM     26  N   LIG    1        0.902   0.817   1.202  0.00  0.00    -0.360 NA
ATOM     27  O   LIG    1        1.500  -0.232   1.087  0.00  0.00    +0.090 OA
ENDBRANCH  21  25
ENDBRANCH  20  21
ENDBRANCH   1  20
TORSDOF 5
