REMARK  Name = ZINCqH0000035DIn.0
REMARK                            x       y       z     vdW  Elec       q    Type
REMARK                         _______ _______ _______ _____ _____    ______ ____
ROOT
ATOM      1  C   LIG    1        3.555   1.796  -0.124  0.00  0.00    +0.570 C 
ATOM      2  N   LIG    1        2.402   1.107  -0.015  0.00  0.00    -0.670 N 
ATOM      3  H   LIG    1        2.419   0.140   0.056  0.00  0.00    +0.420 HD
ATOM      4  O   LIG    1        3.541   3.011  -0.118  0.00  0.00    -0.500 OA
ENDROOT
BRANCH   1   7
ATOM      5  C   LIG    1        7.230   1.107  -0.485  0.00  0.00    +0.120 A 
ATOM      6  C   LIG    1        6.033   1.787  -0.371  0.00  0.00    +0.030 A 
ATOM      7  C   LIG    1        4.836   1.074  -0.252  0.00  0.00    -0.100 A 
ATOM      8  C   LIG    1        4.855  -0.323  -0.261  0.00  0.00    +0.040 A 
ATOM      9  C   LIG    1        6.053  -0.996  -0.381  0.00  0.00    -0.030 A 
ATOM     10 CL   LIG    1        6.075  -2.731  -0.390  0.00  0.00    -0.030 Cl
ATOM     11  C   LIG    1        7.242  -0.287  -0.493  0.00  0.00    +0.110 A 
BRANCH   5  13
ATOM     12  C   LIG    1        8.309   3.224  -0.580  0.00  0.00    +0.250 C 
ATOM     13  O   LIG    1        8.396   1.798  -0.596  0.00  0.00    -0.300 OA
ENDBRANCH   5  13
BRANCH  11  14
ATOM     14  O   LIG    1        8.420  -0.954  -0.611  0.00  0.00    -0.310 OA
BRANCH  14  15
ATOM     15  C   LIG    1        8.858  -1.266  -1.935  0.00  0.00    +0.150 C 
ATOM     16  C   LIG    1        8.310  -2.635  -2.344  0.00  0.00    +0.020 C 
ATOM     17  C   LIG    1       10.388  -1.298  -1.971  0.00  0.00    +0.070 C 
ENDBRANCH  14  15
ENDBRANCH  11  14
ENDBRANCH   1   7
BRANCH   2  18
ATOM     18  C   LIG    1        1.180   1.787  -0.006  0.00  0.00    +0.200 A 
ATOM     19  C   LIG    1        0.119   1.300   0.747  0.00  0.00    -0.030 A 
ATOM     20  C   LIG    1       -1.089   1.970   0.749  0.00  0.00    +0.150 A 
ATOM     21  C   LIG    1       -1.238   3.132   0.013  0.00  0.00    -0.680 A 
ATOM     22  C   LIG    1       -0.183   3.619  -0.737  0.00  0.00    +0.150 A 
ATOM     23  C   LIG    1        1.025   2.950  -0.748  0.00  0.00    +0.000 A 
BRANCH  21  24
ATOM     24  S   LIG    1       -2.778   3.989   0.026  0.00  0.00    +2.500 S 
ATOM     25  O   LIG    1       -2.432   5.335  -0.267  0.00  0.00    -0.940 OA
ATOM     26  O   LIG    1       -3.364   3.637   1.272  0.00  0.00    -0.940 OA
ATOM     27  C   LIG    1       -3.713   3.259  -1.347  0.00  0.00    -0.260 C 
ENDBRANCH  21  24
ENDBRANCH   2  18
TORSDOF 6
