REMARK  Name = ZINCrD00000l7Ic4.0
REMARK                            x       y       z     vdW  Elec       q    Type
REMARK                         _______ _______ _______ _____ _____    ______ ____
ROOT
ATOM      1  C   LIG    1       -8.218   3.055   1.439  0.00  0.00    +0.520 C 
ATOM      2  N   LIG    1       -6.945   3.496   1.437  0.00  0.00    -0.520 N 
ATOM      3  H   LIG    1       -6.718   4.327   1.883  0.00  0.00    +0.430 HD
ATOM      4  O   LIG    1       -8.501   2.016   0.882  0.00  0.00    -0.510 OA
ENDROOT
BRANCH   2   5
ATOM      5  N   LIG    1       -5.947   2.753   0.792  0.00  0.00    -0.520 N 
ATOM      6  H   LIG    1       -6.174   1.922   0.346  0.00  0.00    +0.430 HD
ATOM      7  C   LIG    1       -4.674   3.193   0.790  0.00  0.00    +0.520 C 
ATOM      8  O   LIG    1       -4.391   4.233   1.347  0.00  0.00    -0.510 OA
BRANCH   7   9
ATOM      9  C   LIG    1       -3.601   2.394   0.096  0.00  0.00    +0.190 C 
ATOM     10  C   LIG    1       -3.881   2.363  -1.408  0.00  0.00    +0.060 C 
BRANCH   9  11
ATOM     11  O   LIG    1       -2.328   3.000   0.331  0.00  0.00    -0.280 OA
BRANCH  11  12
ATOM     12  C   LIG    1       -1.236   2.197   0.237  0.00  0.00    +0.130 A 
ATOM     13  C   LIG    1        0.019   2.690   0.566  0.00  0.00    +0.010 A 
ATOM     14  C   LIG    1        1.129   1.874   0.465  0.00  0.00    +0.070 A 
ATOM     15  C   LIG    1        0.989   0.563   0.044  0.00  0.00    -0.070 A 
ATOM     16  C   LIG    1       -0.263   0.068  -0.279  0.00  0.00    +0.070 A 
ATOM     17 CL   LIG    1        2.384  -0.463  -0.076  0.00  0.00    -0.070 Cl
ATOM     18  C   LIG    1       -1.374   0.883  -0.184  0.00  0.00    -0.060 A 
ENDBRANCH  11  12
ENDBRANCH   9  11
ENDBRANCH   7   9
ENDBRANCH   2   5
BRANCH   1  19
ATOM     19  C   LIG    1       -9.291   3.854   2.133  0.00  0.00    +0.190 C 
ATOM     20  C   LIG    1       -9.468   5.197   1.422  0.00  0.00    +0.060 C 
BRANCH  19  21
ATOM     21  O   LIG    1      -10.523   3.131   2.097  0.00  0.00    -0.280 OA
BRANCH  21  27
ATOM     22  C   LIG    1      -14.802   2.169   4.238  0.00  0.00    +0.090 C 
ATOM     23  C   LIG    1      -13.532   2.973   4.136  0.00  0.00    -0.050 A 
ATOM     24  C   LIG    1      -13.295   4.006   5.024  0.00  0.00    -0.030 A 
ATOM     25  C   LIG    1      -12.131   4.746   4.933  0.00  0.00    +0.050 A 
ATOM     26  C   LIG    1      -11.201   4.455   3.954  0.00  0.00    -0.080 A 
ATOM     27  C   LIG    1      -11.436   3.419   3.062  0.00  0.00    +0.130 A 
ATOM     28  C   LIG    1      -12.607   2.681   3.152  0.00  0.00    -0.110 A 
ATOM     29  C   LIG    1      -12.868   1.559   2.180  0.00  0.00    +0.100 C 
ENDBRANCH  21  27
ENDBRANCH  19  21
ENDBRANCH   1  19
TORSDOF 7
