REMARK  Name = ZINC9u0000000C5j.0
REMARK                            x       y       z     vdW  Elec       q    Type
REMARK                         _______ _______ _______ _____ _____    ______ ____
ROOT
ATOM      1  C   LIG    1        0.393   4.206   0.021  0.00  0.00    -0.170 A 
ATOM      2  C   LIG    1       -0.893   3.852   0.031  0.00  0.00    +0.020 A 
ATOM      3  C   LIG    1       -1.123   2.486   0.020  0.00  0.00    +0.030 A 
ATOM      4  C   LIG    1       -0.021   1.732   0.012  0.00  0.00    -0.160 A 
ATOM      5 CL   LIG    1        0.002  -0.004   0.002  0.00  0.00    -0.010 Cl
ATOM      6  S   LIG    1        1.402   2.765   0.004  0.00  0.00    +0.190 S 
ENDROOT
BRANCH   1   8
ATOM      7  C   LIG    1        1.181   6.069  -1.413  0.00  0.00    +0.030 C 
ATOM      8  C   LIG    1        0.903   5.624   0.024  0.00  0.00    +0.250 C 
BRANCH   8   9
ATOM      9  O   LIG    1        2.110   5.693   0.786  0.00  0.00    -0.560 OA
ATOM     10  H   LIG    1        2.496   6.579   0.832  0.00  0.00    +0.390 HD
ENDBRANCH   8   9
ENDBRANCH   1   8
TORSDOF 2
