REMARK  Name = ZINCpk00000ea1HK.0
REMARK                            x       y       z     vdW  Elec       q    Type
REMARK                         _______ _______ _______ _____ _____    ______ ____
ROOT
ATOM      1  C   LIG    1        0.458  -2.329   2.670  0.00  0.00    +0.040 C 
ATOM      2  C   LIG    1       -0.764  -1.400   2.847  0.00  0.00    +0.310 C 
ATOM      3  N   LIG    1       -1.451  -1.482   1.537  0.00  0.00    -0.620 N 
ATOM      4  C   LIG    1       -1.347  -2.891   1.113  0.00  0.00    +0.280 C 
ATOM      5  C   LIG    1       -2.045  -0.474   0.867  0.00  0.00    +0.530 C 
ATOM      6  O   LIG    1       -2.568  -0.685  -0.207  0.00  0.00    -0.510 OA
ATOM      7  C   LIG    1       -0.105  -3.481   1.806  0.00  0.00    +0.070 C 
ENDROOT
BRANCH   5   8
ATOM      8  C   LIG    1       -2.058   0.914   1.452  0.00  0.00    +0.260 C 
ATOM      9  C   LIG    1       -3.313   1.654   0.990  0.00  0.00    +0.050 C 
ATOM     10  C   LIG    1       -4.479   0.697   0.826  0.00  0.00    +0.020 C 
ATOM     11  C   LIG    1       -4.966   0.099   2.133  0.00  0.00    +0.030 C 
ATOM     12  C   LIG    1       -3.904  -0.825   2.735  0.00  0.00    +0.040 C 
ATOM     13  C   LIG    1       -2.936   0.018   3.540  0.00  0.00    +0.520 C 
ATOM     14  O   LIG    1       -2.941  -0.048   4.751  0.00  0.00    -0.540 OA
ATOM     15  N   LIG    1       -2.079   0.831   2.922  0.00  0.00    -0.730 N 
ATOM     16  H   LIG    1       -1.465   1.371   3.444  0.00  0.00    +0.410 HD
ENDBRANCH   5   8
BRANCH   7  17
ATOM     17  C   LIG    1        0.911  -3.913   0.781  0.00  0.00    -0.080 A 
ATOM     18  C   LIG    1        1.417  -2.995  -0.120  0.00  0.00    +0.010 A 
ATOM     19  C   LIG    1        2.353  -3.390  -1.057  0.00  0.00    +0.000 A 
ATOM     20  C   LIG    1        2.776  -4.706  -1.100  0.00  0.00    +0.000 A 
ATOM     21  C   LIG    1        2.266  -5.625  -0.202  0.00  0.00    +0.000 A 
ATOM     22  C   LIG    1        1.334  -5.229   0.739  0.00  0.00    +0.030 A 
ENDBRANCH   7  17
BRANCH   1  23
ATOM     23  C   LIG    1        0.937  -2.845   4.002  0.00  0.00    +0.470 C 
ATOM     24  O   LIG    1        0.846  -4.022   4.262  0.00  0.00    -0.490 OA
BRANCH  23  26
ATOM     25  C   LIG    1        1.903  -2.565   6.163  0.00  0.00    +0.270 C 
ATOM     26  O   LIG    1        1.463  -1.998   4.901  0.00  0.00    -0.350 OA
ENDBRANCH  23  26
ENDBRANCH   1  23
TORSDOF 4
