REMARK  Name = ZINCvU0000000Jch.1
REMARK                            x       y       z     vdW  Elec       q    Type
REMARK                         _______ _______ _______ _____ _____    ______ ____
ROOT
ATOM      1  N   LIG    1        1.234   7.496  -3.368  0.00  0.00    -0.720 N 
ATOM      2  H   LIG    1        1.973   7.790  -3.924  0.00  0.00    +0.400 HD
ATOM      3  C   LIG    1        1.477   6.923  -2.173  0.00  0.00    +0.530 C 
ATOM      4  O   LIG    1        0.553   6.555  -1.478  0.00  0.00    -0.550 OA
ENDROOT
BRANCH   3   5
ATOM      5  C   LIG    1        2.896   6.738  -1.699  0.00  0.00    +0.010 C 
ATOM      6  C   LIG    1        3.582   8.102  -1.601  0.00  0.00    +0.040 C 
ATOM      7  C   LIG    1        2.823   8.984  -0.608  0.00  0.00    +0.000 C 
ATOM      8  C   LIG    1        2.819   8.315   0.768  0.00  0.00    +0.020 C 
ATOM      9  C   LIG    1        2.133   6.951   0.670  0.00  0.00    +0.030 C 
ATOM     10  C   LIG    1        2.891   6.069  -0.324  0.00  0.00    +0.120 C 
BRANCH  10  11
ATOM     11  C   LIG    1        2.215   4.726  -0.420  0.00  0.00    +0.300 A 
ATOM     12  N   LIG    1        2.830   3.593  -0.595  0.00  0.00    -0.500 NA
ATOM     13  C   LIG    1        1.924   2.582  -0.636  0.00  0.00    +0.050 A 
ATOM     14  C   LIG    1        2.030   1.199  -0.798  0.00  0.00    +0.090 A 
ATOM     15  C   LIG    1        0.905   0.424  -0.794  0.00  0.00    +0.020 A 
ATOM     16  C   LIG    1       -0.349   0.999  -0.636  0.00  0.00    -0.020 A 
ATOM     17  C   LIG    1       -0.478   2.362  -0.469  0.00  0.00    +0.030 A 
ATOM     18 CL   LIG    1       -1.765  -0.006  -0.643  0.00  0.00    -0.070 Cl
ATOM     19  C   LIG    1        0.655   3.164  -0.470  0.00  0.00    +0.050 A 
ATOM     20  N   LIG    1        0.873   4.521  -0.337  0.00  0.00    -0.560 N 
ATOM     21  H   LIG    1        0.194   5.202  -0.207  0.00  0.00    +0.440 HD
ENDBRANCH  10  11
ENDBRANCH   3   5
BRANCH   1  22
ATOM     22  C   LIG    1       -0.145   7.675  -3.828  0.00  0.00    +0.290 C 
ATOM     23  C   LIG    1       -0.709   8.977  -3.254  0.00  0.00    +0.040 C 
BRANCH  22  28
ATOM     24  C   LIG    1       -1.198   7.167  -7.422  0.00  0.00    +0.150 A 
ATOM     25  C   LIG    1       -0.202   7.858  -8.100  0.00  0.00    -0.010 A 
ATOM     26  C   LIG    1        0.804   8.486  -7.393  0.00  0.00    +0.040 A 
ATOM     27  C   LIG    1        0.822   8.426  -6.011  0.00  0.00    -0.010 A 
ATOM     28  C   LIG    1       -0.168   7.739  -5.333  0.00  0.00    -0.070 A 
ATOM     29  C   LIG    1       -1.175   7.105  -6.035  0.00  0.00    +0.030 A 
BRANCH  24  32
ATOM     30  C   LIG    1       -4.529   5.665  -8.325  0.00  0.00    +0.110 C 
ATOM     31  C   LIG    1       -3.459   6.452  -7.613  0.00  0.00    +0.510 C 
ATOM     32  N   LIG    1       -2.219   6.530  -8.136  0.00  0.00    -0.680 N 
ATOM     33  H   LIG    1       -2.035   6.145  -9.007  0.00  0.00    +0.410 HD
ATOM     34  O   LIG    1       -3.714   7.015  -6.569  0.00  0.00    -0.520 OA
ENDBRANCH  24  32
ENDBRANCH  22  28
ENDBRANCH   1  22
TORSDOF 5
