REMARK  Name = ZINCvU0000000Jch.0
REMARK                            x       y       z     vdW  Elec       q    Type
REMARK                         _______ _______ _______ _____ _____    ______ ____
ROOT
ATOM      1  N   LIG    1        1.118  -0.342  -1.255  0.00  0.00    -0.720 N 
ATOM      2  H   LIG    1        1.892   0.239  -1.318  0.00  0.00    +0.400 HD
ATOM      3  C   LIG    1        1.068  -1.479  -1.976  0.00  0.00    +0.530 C 
ATOM      4  O   LIG    1        0.100  -2.205  -1.897  0.00  0.00    -0.550 OA
ENDROOT
BRANCH   3   5
ATOM      5  C   LIG    1        2.215  -1.848  -2.881  0.00  0.00    +0.010 C 
ATOM      6  C   LIG    1        3.493  -1.992  -2.052  0.00  0.00    +0.040 C 
ATOM      7  C   LIG    1        3.299  -3.087  -1.002  0.00  0.00    +0.000 C 
ATOM      8  C   LIG    1        2.992  -4.414  -1.700  0.00  0.00    +0.020 C 
ATOM      9  C   LIG    1        1.714  -4.270  -2.529  0.00  0.00    +0.030 C 
ATOM     10  C   LIG    1        1.908  -3.175  -3.579  0.00  0.00    +0.120 C 
BRANCH  10  11
ATOM     11  C   LIG    1        0.649  -3.033  -4.396  0.00  0.00    +0.300 A 
ATOM     12  N   LIG    1        0.612  -2.746  -5.664  0.00  0.00    -0.500 NA
ATOM     13  C   LIG    1       -0.678  -2.696  -6.083  0.00  0.00    +0.060 A 
ATOM     14  C   LIG    1       -1.281  -2.437  -7.317  0.00  0.00    +0.080 A 
ATOM     15  C   LIG    1       -2.653  -2.462  -7.426  0.00  0.00    -0.040 A 
ATOM     16  C   LIG    1       -3.444  -2.742  -6.319  0.00  0.00    +0.040 A 
ATOM     17  C   LIG    1       -2.865  -3.000  -5.095  0.00  0.00    +0.040 A 
ATOM     18 CL   LIG    1       -3.401  -2.140  -8.960  0.00  0.00    -0.070 Cl
ATOM     19  C   LIG    1       -1.483  -2.979  -4.966  0.00  0.00    +0.050 A 
ATOM     20  N   LIG    1       -0.613  -3.193  -3.915  0.00  0.00    -0.560 N 
ATOM     21  H   LIG    1       -0.857  -3.415  -3.003  0.00  0.00    +0.440 HD
ENDBRANCH  10  11
ENDBRANCH   3   5
BRANCH   1  22
ATOM     22  C   LIG    1        0.003   0.017  -0.375  0.00  0.00    +0.290 C 
ATOM     23  C   LIG    1        0.177  -0.675   0.978  0.00  0.00    +0.040 C 
BRANCH  22  28
ATOM     24  C   LIG    1       -1.243   3.563   0.027  0.00  0.00    +0.150 A 
ATOM     25  C   LIG    1       -0.051   4.255   0.190  0.00  0.00    -0.010 A 
ATOM     26  C   LIG    1        1.151   3.574   0.170  0.00  0.00    +0.040 A 
ATOM     27  C   LIG    1        1.167   2.204  -0.013  0.00  0.00    -0.010 A 
ATOM     28  C   LIG    1       -0.019   1.511  -0.176  0.00  0.00    -0.070 A 
ATOM     29  C   LIG    1       -1.223   2.187  -0.162  0.00  0.00    +0.030 A 
BRANCH  24  32
ATOM     30  C   LIG    1       -4.898   4.348   0.463  0.00  0.00    +0.110 C 
ATOM     31  C   LIG    1       -3.562   3.655   0.549  0.00  0.00    +0.510 C 
ATOM     32  N   LIG    1       -2.462   4.250   0.048  0.00  0.00    -0.680 N 
ATOM     33  H   LIG    1       -2.514   5.155  -0.298  0.00  0.00    +0.410 HD
ATOM     34  O   LIG    1       -3.478   2.563   1.069  0.00  0.00    -0.520 OA
ENDBRANCH  24  32
ENDBRANCH  22  28
ENDBRANCH   1  22
TORSDOF 5
