REMARK  Name = ZINCrH00000No4Up.0
REMARK                            x       y       z     vdW  Elec       q    Type
REMARK                         _______ _______ _______ _____ _____    ______ ____
ROOT
ATOM      1  C   LIG    1        4.662  -3.378  -5.247  0.00  0.00    +0.530 C 
ATOM      2  N   LIG    1        5.978  -3.664  -5.198  0.00  0.00    -0.550 N 
ATOM      3  C   LIG    1        6.644  -4.302  -6.310  0.00  0.00    +0.300 C 
ATOM      4  C   LIG    1        8.134  -4.531  -6.035  0.00  0.00    +0.140 C 
ATOM      5  S   LIG    1        8.395  -3.867  -4.362  0.00  0.00    -0.140 S 
ATOM      6  C   LIG    1        6.725  -3.356  -4.096  0.00  0.00    +0.390 C 
ATOM      7  N   LIG    1        6.276  -2.777  -3.018  0.00  0.00    -0.520 NA
ATOM      8  O   LIG    1        4.018  -3.655  -6.237  0.00  0.00    -0.510 OA
ENDROOT
BRANCH   1   9
ATOM      9  C   LIG    1        3.991  -2.712  -4.073  0.00  0.00    +0.110 C 
BRANCH   9  10
ATOM     10  C   LIG    1        2.508  -2.501  -4.386  0.00  0.00    +0.090 C 
BRANCH  10  14
ATOM     11  C   LIG    1        0.606  -0.608  -1.056  0.00  0.00    +0.100 A 
ATOM     12  C   LIG    1        1.168   0.159  -2.065  0.00  0.00    -0.040 A 
ATOM     13  C   LIG    1        1.782  -0.457  -3.140  0.00  0.00    +0.020 A 
ATOM     14  C   LIG    1        1.837  -1.836  -3.212  0.00  0.00    -0.070 A 
ATOM     15  C   LIG    1        1.278  -2.606  -2.209  0.00  0.00    -0.040 A 
ATOM     16  C   LIG    1        0.667  -1.996  -1.126  0.00  0.00    +0.100 A 
BRANCH  11  18
ATOM     17  C   LIG    1       -0.017   1.425   0.010  0.00  0.00    +0.230 C 
ATOM     18  O   LIG    1        0.002  -0.004   0.002  0.00  0.00    -0.310 OA
ENDBRANCH  11  18
BRANCH  16  19
ATOM     19  O   LIG    1        0.122  -2.753  -0.136  0.00  0.00    -0.310 OA
ATOM     20  C   LIG    1        0.221  -4.172  -0.274  0.00  0.00    +0.230 C 
ENDBRANCH  16  19
ENDBRANCH  10  14
ENDBRANCH   9  10
ENDBRANCH   1   9
BRANCH   7  21
ATOM     21  C   LIG    1        7.184  -2.501  -1.903  0.00  0.00    +0.260 C 
BRANCH  21  22
ATOM     22  C   LIG    1        7.312  -1.011  -1.717  0.00  0.00    -0.090 A 
ATOM     23  C   LIG    1        8.300  -0.313  -2.385  0.00  0.00    +0.010 A 
ATOM     24  C   LIG    1        8.414   1.054  -2.219  0.00  0.00    +0.000 A 
ATOM     25  C   LIG    1        7.546   1.723  -1.375  0.00  0.00    +0.000 A 
ATOM     26  C   LIG    1        6.561   1.024  -0.703  0.00  0.00    +0.000 A 
ATOM     27  C   LIG    1        6.444  -0.343  -0.874  0.00  0.00    +0.030 A 
ENDBRANCH  21  22
ENDBRANCH   7  21
TORSDOF 7
