REMARK  Name = ZINCrg00000fSJ02.0
REMARK                            x       y       z     vdW  Elec       q    Type
REMARK                         _______ _______ _______ _____ _____    ______ ____
ROOT
ATOM      1  C   LIG    1        1.916   9.604  -0.016  0.00  0.00    +0.330 C 
ENDROOT
BRANCH   1   5
ATOM      2  C   LIG    1        5.413  11.659   1.331  0.00  0.00    +0.120 A 
ATOM      3  C   LIG    1        5.383  11.092   0.063  0.00  0.00    -0.010 A 
ATOM      4  C   LIG    1        4.252  10.429  -0.369  0.00  0.00    +0.060 A 
ATOM      5  C   LIG    1        3.149  10.329   0.459  0.00  0.00    -0.140 A 
ATOM      6  C   LIG    1        3.172  10.896   1.720  0.00  0.00    +0.060 A 
ATOM      7  C   LIG    1        4.303  11.556   2.160  0.00  0.00    -0.040 A 
BRANCH   2  11
ATOM      8  O   LIG    1        8.692  14.930   0.670  0.00  0.00    -0.540 OA
ATOM      9  C   LIG    1        8.056  14.214   1.414  0.00  0.00    +0.520 C 
ATOM     10  C   LIG    1        6.922  13.410   0.844  0.00  0.00    +0.250 C 
ATOM     11  N   LIG    1        6.555  12.331   1.771  0.00  0.00    -0.480 N 
ATOM     12  C   LIG    1        6.360  12.872   3.127  0.00  0.00    +0.200 C 
ATOM     13  C   LIG    1        7.716  13.317   3.677  0.00  0.00    +0.280 C 
ATOM     14  N   LIG    1        8.394  14.172   2.707  0.00  0.00    -0.720 N 
ATOM     15  H   LIG    1        9.121  14.736   3.014  0.00  0.00    +0.410 HD
ENDBRANCH   2  11
ENDBRANCH   1   5
BRANCH   1  16
ATOM     16  N   LIG    1        2.012   8.188   0.347  0.00  0.00    -0.720 N 
ATOM     17  H   LIG    1        2.792   7.860   0.821  0.00  0.00    +0.400 HD
ATOM     18  C   LIG    1        1.016   7.340   0.021  0.00  0.00    +0.520 C 
ATOM     19  O   LIG    1        0.040   7.749  -0.572  0.00  0.00    -0.500 OA
BRANCH  18  20
ATOM     20  C   LIG    1        1.114   5.883   0.394  0.00  0.00    +0.140 C 
ATOM     21  C   LIG    1        2.281   5.233  -0.362  0.00  0.00    +0.250 C 
ATOM     22  O   LIG    1        2.338   3.850   0.005  0.00  0.00    -0.300 OA
ATOM     23  C   LIG    1        1.160   3.169   0.008  0.00  0.00    +0.040 A 
ATOM     24  C   LIG    1        1.176   1.782   0.000  0.00  0.00    +0.030 A 
ATOM     25  C   LIG    1       -0.013   1.076   0.008  0.00  0.00    +0.020 A 
ATOM     26  C   LIG    1       -1.219   1.749   0.017  0.00  0.00    +0.030 A 
ATOM     27  C   LIG    1       -1.242   3.131   0.030  0.00  0.00    +0.030 A 
ATOM     28  C   LIG    1       -0.054   3.846   0.021  0.00  0.00    +0.050 A 
ATOM     29  O   LIG    1       -0.092   5.207   0.024  0.00  0.00    -0.280 OA
ENDBRANCH  18  20
ENDBRANCH   1  16
TORSDOF 4
