REMARK  Name = ZINCwl0000000eaX.0
REMARK                            x       y       z     vdW  Elec       q    Type
REMARK                         _______ _______ _______ _____ _____    ______ ____
ROOT
ATOM      1  S   LIG    1        3.232   3.451   0.831  0.00  0.00    +2.690 S 
ATOM      2  O   LIG    1        3.202   2.338   1.713  0.00  0.00    -0.910 OA
ATOM      3  O   LIG    1        3.594   4.761   1.245  0.00  0.00    -0.950 OA
ENDROOT
BRANCH   1   4
ATOM      4  C   LIG    1        4.333   3.021  -0.476  0.00  0.00    -0.680 A 
ATOM      5  C   LIG    1        4.786   1.720  -0.596  0.00  0.00    +0.210 A 
ATOM      6  C   LIG    1        5.647   1.372  -1.622  0.00  0.00    -0.010 A 
ATOM      7  C   LIG    1        6.066   2.325  -2.527  0.00  0.00    +0.100 A 
ATOM      8  C   LIG    1        5.616   3.641  -2.409  0.00  0.00    -0.180 A 
ATOM      9  C   LIG    1        4.744   3.984  -1.374  0.00  0.00    +0.190 A 
BRANCH   8  10
ATOM     10  C   LIG    1        6.061   4.668  -3.375  0.00  0.00    +0.570 C 
ATOM     11  N   LIG    1        6.904   4.334  -4.373  0.00  0.00    -0.730 N 
ATOM     12  H   LIG    1        7.218   3.420  -4.457  0.00  0.00    +0.410 HD
ATOM     13  O   LIG    1        5.668   5.813  -3.270  0.00  0.00    -0.520 OA
BRANCH  11  14
ATOM     14  C   LIG    1        7.345   5.351  -5.331  0.00  0.00    +0.280 C 
BRANCH  14  15
ATOM     15  C   LIG    1        8.288   4.714  -6.353  0.00  0.00    +0.260 C 
BRANCH  15  16
ATOM     16  N   LIG    1        8.730   5.734  -7.313  0.00  0.00    -0.380 N 
ATOM     17  C   LIG    1        7.577   6.207  -8.091  0.00  0.00    +0.320 C 
ATOM     18  C   LIG    1        9.728   5.152  -8.221  0.00  0.00    +0.330 C 
ATOM     19  H   LIG    1        9.141   6.510  -6.815  0.00  0.00    +0.430 HD
ENDBRANCH  15  16
ENDBRANCH  14  15
ENDBRANCH  11  14
ENDBRANCH   8  10
ENDBRANCH   1   4
BRANCH   1  20
ATOM     20  N   LIG    1        1.716   3.570   0.176  0.00  0.00    -1.020 N 
ATOM     21  H   LIG    1        1.262   4.427   0.156  0.00  0.00    +0.430 HD
BRANCH  20  24
ATOM     22  C   LIG    1       -0.943   3.603  -1.343  0.00  0.00    +0.170 C 
ATOM     23  C   LIG    1       -0.086   2.405  -1.027  0.00  0.00    +0.170 A 
ATOM     24  C   LIG    1        1.084   2.425  -0.353  0.00  0.00    -0.080 A 
ATOM     25  C   LIG    1        1.567   1.094  -0.271  0.00  0.00    +0.530 A 
ATOM     26  N   LIG    1        0.679   0.295  -0.897  0.00  0.00    -0.360 N 
ATOM     27  O   LIG    1        2.597   0.736   0.272  0.00  0.00    -0.500 OA
ATOM     28  N   LIG    1       -0.361   1.104  -1.375  0.00  0.00    -0.390 N 
ATOM     29  C   LIG    1       -1.537   0.643  -2.116  0.00  0.00    +0.370 C 
BRANCH  26  30
ATOM     30  C   LIG    1        0.778  -1.092  -1.044  0.00  0.00    +0.150 A 
ATOM     31  C   LIG    1       -0.305  -1.904  -0.731  0.00  0.00    +0.010 A 
ATOM     32  C   LIG    1       -0.205  -3.273  -0.882  0.00  0.00    +0.030 A 
ATOM     33  C   LIG    1        0.974  -3.837  -1.333  0.00  0.00    +0.020 A 
ATOM     34  C   LIG    1        2.056  -3.031  -1.639  0.00  0.00    +0.030 A 
ATOM     35  C   LIG    1        1.961  -1.661  -1.496  0.00  0.00    +0.030 A 
ENDBRANCH  26  30
ENDBRANCH  20  24
ENDBRANCH   1  20
TORSDOF 8
