REMARK  Name = ZINCqH0000001mWl.0
REMARK                            x       y       z     vdW  Elec       q    Type
REMARK                         _______ _______ _______ _____ _____    ______ ____
ROOT
ATOM      1  N   LIG    1        1.162  -6.986  -2.919  0.00  0.00    -1.120 NA
ATOM      2  H   LIG    1        0.669  -7.407  -3.640  0.00  0.00    +0.420 HD
ENDROOT
BRANCH   1   3
ATOM      3  S   LIG    1        0.373  -6.514  -1.542  0.00  0.00    +2.690 S 
ATOM      4  O   LIG    1       -0.999  -6.829  -1.738  0.00  0.00    -0.960 OA
ATOM      5  O   LIG    1        1.136  -7.013  -0.451  0.00  0.00    -0.950 OA
BRANCH   3   9
ATOM      6  C   LIG    1        0.632  -2.000  -1.327  0.00  0.00    -0.020 A 
ATOM      7  C   LIG    1        1.617  -2.777  -0.749  0.00  0.00    -0.010 A 
ATOM      8  C   LIG    1        1.536  -4.156  -0.809  0.00  0.00    +0.120 A 
ATOM      9  C   LIG    1        0.473  -4.757  -1.458  0.00  0.00    -0.680 A 
ATOM     10  C   LIG    1       -0.510  -3.980  -2.041  0.00  0.00    +0.130 A 
ATOM     11  C   LIG    1       -0.431  -2.602  -1.976  0.00  0.00    -0.010 A 
BRANCH   6  12
ATOM     12  C   LIG    1        0.718  -0.497  -1.257  0.00  0.00    +0.070 C 
BRANCH  12  14
ATOM     13  C   LIG    1       -0.019   1.526   0.010  0.00  0.00    +0.030 C 
ATOM     14  C   LIG    1        0.002  -0.004   0.002  0.00  0.00    -0.020 C 
ATOM     15  C   LIG    1        0.742  -0.511   1.242  0.00  0.00    +0.030 C 
ENDBRANCH  12  14
ENDBRANCH   6  12
ENDBRANCH   3   9
ENDBRANCH   1   3
BRANCH   1  16
ATOM     16  C   LIG    1        2.605  -6.766  -3.048  0.00  0.00    +0.280 C 
BRANCH  16  17
ATOM     17  C   LIG    1        3.146  -7.603  -4.208  0.00  0.00    +0.040 C 
BRANCH  17  18
ATOM     18  C   LIG    1        4.647  -7.473  -4.264  0.00  0.00    -0.050 A 
ATOM     19  C   LIG    1        5.226  -6.233  -4.454  0.00  0.00    +0.000 A 
ATOM     20  C   LIG    1        6.603  -6.113  -4.501  0.00  0.00    +0.000 A 
ATOM     21  C   LIG    1        7.399  -7.235  -4.367  0.00  0.00    +0.000 A 
ATOM     22  C   LIG    1        6.819  -8.476  -4.182  0.00  0.00    +0.010 A 
ATOM     23  C   LIG    1        5.443  -8.595  -4.131  0.00  0.00    +0.020 A 
ENDBRANCH  17  18
BRANCH  17  24
ATOM     24  C   LIG    1        2.542  -7.104  -5.522  0.00  0.00    +0.000 C 
BRANCH  24  25
ATOM     25  C   LIG    1        2.985  -8.018  -6.667  0.00  0.00    +0.200 C 
ATOM     26  C   LIG    1        2.283  -7.595  -7.959  0.00  0.00    -0.010 C 
BRANCH  25  27
ATOM     27  O   LIG    1        4.400  -7.915  -6.838  0.00  0.00    -0.550 OA
ATOM     28  H   LIG    1        4.707  -7.022  -7.051  0.00  0.00    +0.370 HD
ENDBRANCH  25  27
ENDBRANCH  24  25
ENDBRANCH  17  24
ENDBRANCH  16  17
ENDBRANCH   1  16
TORSDOF 10
