REMARK  Name = ZINCqH0000000fAY.0
REMARK                            x       y       z     vdW  Elec       q    Type
REMARK                         _______ _______ _______ _____ _____    ______ ____
ROOT
ATOM      1  C   LIG    1        2.067   6.353   2.997  0.00  0.00    +0.050 C 
ENDROOT
BRANCH   1   3
ATOM      2  N   LIG    1        2.765   6.637   5.353  0.00  0.00    -0.600 N 
ATOM      3  C   LIG    1        1.873   6.136   4.476  0.00  0.00    +0.520 C 
ATOM      4  O   LIG    1        0.914   5.511   4.877  0.00  0.00    -0.530 OA
BRANCH   2   5
ATOM      5  C   LIG    1        3.924   7.393   4.869  0.00  0.00    +0.300 C 
BRANCH   5   7
ATOM      6  C   LIG    1        4.301   9.745   5.403  0.00  0.00    +0.030 C 
ATOM      7  C   LIG    1        3.569   8.854   4.781  0.00  0.00    -0.070 C 
ENDBRANCH   5   7
ENDBRANCH   2   5
BRANCH   2   8
ATOM      8  C   LIG    1        2.576   6.427   6.791  0.00  0.00    +0.340 C 
BRANCH   8   9
ATOM      9  C   LIG    1        3.264   5.152   7.206  0.00  0.00    -0.110 A 
ATOM     10  C   LIG    1        2.573   3.954   7.180  0.00  0.00    +0.030 A 
ATOM     11  C   LIG    1        3.205   2.784   7.557  0.00  0.00    +0.000 A 
ATOM     12  C   LIG    1        4.524   2.812   7.968  0.00  0.00    +0.000 A 
ATOM     13  C   LIG    1        5.213   4.010   7.999  0.00  0.00    +0.000 A 
ATOM     14  C   LIG    1        4.583   5.180   7.618  0.00  0.00    +0.010 A 
ENDBRANCH   8   9
ENDBRANCH   2   8
ENDBRANCH   1   3
BRANCH   1  15
ATOM     15  C   LIG    1        0.923   5.687   2.230  0.00  0.00    +0.080 C 
BRANCH  15  16
ATOM     16  C   LIG    1        1.120   5.907   0.729  0.00  0.00    +0.010 C 
ATOM     17  C   LIG    1       -0.086   5.351  -0.029  0.00  0.00    +0.120 C 
ATOM     18  C   LIG    1       -0.058   3.844   0.008  0.00  0.00    -0.120 A 
ATOM     19  C   LIG    1       -1.242   3.133   0.023  0.00  0.00    +0.050 A 
ATOM     20  C   LIG    1       -1.220   1.750   0.017  0.00  0.00    -0.010 A 
ATOM     21  C   LIG    1       -0.013   1.076   0.008  0.00  0.00    +0.040 A 
ATOM     22  C   LIG    1        1.174   1.782   0.000  0.00  0.00    -0.020 A 
ATOM     23  C   LIG    1        1.156   3.170   0.008  0.00  0.00    +0.160 A 
ATOM     24  N   LIG    1        2.356   3.887   0.002  0.00  0.00    -0.660 N 
ATOM     25  H   LIG    1        3.186   3.430  -0.205  0.00  0.00    +0.410 HD
ATOM     26  C   LIG    1        2.373   5.202   0.281  0.00  0.00    +0.530 C 
ATOM     27  O   LIG    1        3.407   5.826   0.171  0.00  0.00    -0.520 OA
ENDBRANCH  15  16
ENDBRANCH   1  15
TORSDOF 7
