REMARK  Name = ZINCkj000005h81U.0
REMARK                            x       y       z     vdW  Elec       q    Type
REMARK                         _______ _______ _______ _____ _____    ______ ____
ROOT
ATOM      1  C   LIG    1       -4.878   1.697   0.211  0.00  0.00    +0.170 C 
ATOM      2  C   LIG    1       -3.549   2.454   0.152  0.00  0.00    +0.210 C 
ATOM      3  N   LIG    1       -2.447   1.490   0.022  0.00  0.00    -0.480 N 
ATOM      4  C   LIG    1       -2.613   0.668  -1.186  0.00  0.00    +0.190 C 
ATOM      5  C   LIG    1       -3.951  -0.071  -1.114  0.00  0.00    +0.260 C 
ATOM      6  O   LIG    1       -5.008   0.880  -0.956  0.00  0.00    -0.390 OA
ENDROOT
BRANCH   3   7
ATOM      7  C   LIG    1       -1.227   2.131   0.019  0.00  0.00    +0.380 A 
ATOM      8  N   LIG    1       -0.919   3.006  -0.929  0.00  0.00    -0.550 NA
ATOM      9  C   LIG    1        0.251   3.625  -0.946  0.00  0.00    +0.510 A 
ATOM     10  N   LIG    1        1.177   3.427  -0.038  0.00  0.00    -0.500 NA
ATOM     11  C   LIG    1        0.967   2.567   0.970  0.00  0.00    +0.160 A 
ATOM     12  C   LIG    1        1.934   2.330   1.957  0.00  0.00    +0.050 A 
ATOM     13  C   LIG    1        1.669   1.445   2.960  0.00  0.00    +0.070 A 
ATOM     14  C   LIG    1        0.453   0.770   3.019  0.00  0.00    +0.020 A 
ATOM     15  C   LIG    1       -0.509   0.977   2.074  0.00  0.00    +0.070 A 
ATOM     16  C   LIG    1       -0.269   1.879   1.032  0.00  0.00    -0.130 A 
ENDBRANCH   3   7
BRANCH   1  17
ATOM     17  C   LIG    1       -6.034   2.697   0.266  0.00  0.00    +0.290 C 
BRANCH  17  19
ATOM     18  C   LIG    1       -7.303   1.304   1.750  0.00  0.00    +0.320 C 
ATOM     19  N   LIG    1       -7.300   1.974   0.443  0.00  0.00    -0.380 N 
ATOM     20  C   LIG    1       -8.420   2.922   0.377  0.00  0.00    +0.320 C 
ATOM     21  H   LIG    1       -7.399   1.285  -0.288  0.00  0.00    +0.430 HD
ENDBRANCH  17  19
ENDBRANCH   1  17
TORSDOF 3
