REMARK  Name = ZINCrH000004s7VS.0
REMARK                            x       y       z     vdW  Elec       q    Type
REMARK                         _______ _______ _______ _____ _____    ______ ____
ROOT
ATOM      1  C   LIG    1       -1.768  -3.209   0.004  0.00  0.00    +0.190 A 
ATOM      2  C   LIG    1       -3.102  -2.830   0.019  0.00  0.00    -0.080 A 
ATOM      3  C   LIG    1       -4.094  -3.790   0.023  0.00  0.00    +0.080 A 
ATOM      4  C   LIG    1       -3.767  -5.136   0.013  0.00  0.00    -0.040 A 
ATOM      5  C   LIG    1       -2.446  -5.530  -0.002  0.00  0.00    +0.080 A 
ATOM      6  C   LIG    1       -1.433  -4.569  -0.013  0.00  0.00    -0.170 A 
ENDROOT
BRANCH   6   7
ATOM      7  C   LIG    1       -0.017  -4.985  -0.034  0.00  0.00    +0.570 C 
ATOM      8  N   LIG    1        0.301  -6.294  -0.050  0.00  0.00    -0.730 N 
ATOM      9  H   LIG    1       -0.401  -6.964  -0.046  0.00  0.00    +0.400 HD
ATOM     10  O   LIG    1        0.863  -4.145  -0.038  0.00  0.00    -0.520 OA
BRANCH   8  11
ATOM     11  C   LIG    1        1.706  -6.707  -0.071  0.00  0.00    +0.400 C 
BRANCH  11  12
ATOM     12  C   LIG    1        1.788  -8.211  -0.085  0.00  0.00    -0.040 A 
ATOM     13  C   LIG    1        1.812  -8.988  -1.183  0.00  0.00    -0.030 A 
ATOM     14  C   LIG    1        1.895 -10.326  -0.737  0.00  0.00    -0.070 A 
ATOM     15  C   LIG    1        1.910 -10.289   0.608  0.00  0.00    +0.180 A 
ATOM     16  O   LIG    1        1.845  -9.005   0.997  0.00  0.00    -0.170 OA
ENDBRANCH  11  12
ENDBRANCH   8  11
ENDBRANCH   6   7
BRANCH   1  17
ATOM     17  O   LIG    1       -0.792  -2.266  -0.002  0.00  0.00    -0.280 OA
BRANCH  17  18
ATOM     18  C   LIG    1       -1.210  -0.900   0.009  0.00  0.00    +0.300 C 
BRANCH  18  26
ATOM     19  C   LIG    1        0.854   4.285   0.017  0.00  0.00    +0.120 C 
ATOM     20  C   LIG    1        1.767   3.086   0.002  0.00  0.00    -0.040 A 
ATOM     21  C   LIG    1        3.117   3.250  -0.010  0.00  0.00    +0.030 A 
ATOM     22  C   LIG    1        3.955   2.123  -0.024  0.00  0.00    +0.010 A 
ATOM     23  C   LIG    1        3.426   0.882  -0.026  0.00  0.00    +0.210 A 
ATOM     24  N   LIG    1        2.073   0.702  -0.014  0.00  0.00    -0.360 N 
ATOM     25  C   LIG    1        1.288  -0.418  -0.013  0.00  0.00    +0.140 A 
ATOM     26  C   LIG    1        0.002  -0.004   0.002  0.00  0.00    +0.040 A 
ATOM     27  N   LIG    1       -0.016   1.331   0.009  0.00  0.00    -0.480 NA
ATOM     28  C   LIG    1        1.230   1.783  -0.000  0.00  0.00    +0.230 A 
ENDBRANCH  18  26
ENDBRANCH  17  18
ENDBRANCH   1  17
TORSDOF 6
