REMARK  Name = ZINCpe000000YeLz.0
REMARK                            x       y       z     vdW  Elec       q    Type
REMARK                         _______ _______ _______ _____ _____    ______ ____
ROOT
ATOM      1  N   LIG    1       -3.290  -6.689  -1.265  0.00  0.00    -0.620 N 
ATOM      2  C   LIG    1       -3.614  -6.297   0.113  0.00  0.00    +0.290 C 
ATOM      3  C   LIG    1       -3.643  -4.768   0.197  0.00  0.00    +0.020 C 
ATOM      4  C   LIG    1       -2.316  -4.207  -0.320  0.00  0.00    +0.260 C 
ATOM      5  C   LIG    1       -2.128  -4.607  -1.785  0.00  0.00    +0.010 C 
ATOM      6  C   LIG    1       -2.082  -6.134  -1.892  0.00  0.00    +0.310 C 
ENDROOT
BRANCH   1  11
ATOM      7  C   LIG    1       -6.635 -10.179  -4.031  0.00  0.00    +0.330 C 
ATOM      8  N   LIG    1       -5.742  -9.267  -3.312  0.00  0.00    -0.560 N 
ATOM      9  C   LIG    1       -4.413  -9.322  -3.530  0.00  0.00    +0.560 A 
ATOM     10  C   LIG    1       -3.561  -8.444  -2.842  0.00  0.00    -0.200 A 
ATOM     11  C   LIG    1       -4.100  -7.555  -1.954  0.00  0.00    +0.470 A 
ATOM     12  N   LIG    1       -5.460  -7.534  -1.762  0.00  0.00    -0.650 N 
ATOM     13  H   LIG    1       -5.848  -6.904  -1.135  0.00  0.00    +0.430 HD
ATOM     14  O   LIG    1       -3.955 -10.126  -4.324  0.00  0.00    -0.520 OA
ATOM     15  C   LIG    1       -6.256  -8.383  -2.437  0.00  0.00    +0.710 A 
ATOM     16  O   LIG    1       -7.458  -8.350  -2.255  0.00  0.00    -0.540 OA
ENDBRANCH   1  11
BRANCH   4  17
ATOM     17  N   LIG    1       -2.328  -2.746  -0.210  0.00  0.00    -0.740 N 
ATOM     18  H   LIG    1       -3.171  -2.267  -0.207  0.00  0.00    +0.400 HD
ATOM     19  C   LIG    1       -1.167  -2.069  -0.113  0.00  0.00    +0.710 C 
ATOM     20  N   LIG    1       -1.177  -0.725  -0.012  0.00  0.00    -0.690 N 
ATOM     21  H   LIG    1       -2.020  -0.250   0.055  0.00  0.00    +0.410 HD
ATOM     22  O   LIG    1       -0.110  -2.670  -0.117  0.00  0.00    -0.570 OA
BRANCH  20  23
ATOM     23  C   LIG    1        0.029  -0.014  -0.004  0.00  0.00    +0.160 A 
ATOM     24  C   LIG    1        0.105   1.234  -0.607  0.00  0.00    -0.030 A 
ATOM     25  C   LIG    1        1.296   1.933  -0.597  0.00  0.00    +0.030 A 
ATOM     26  C   LIG    1        2.412   1.391   0.014  0.00  0.00    -0.010 A 
ATOM     27  C   LIG    1        2.339   0.148   0.616  0.00  0.00    +0.030 A 
ATOM     28  C   LIG    1        1.151  -0.556   0.609  0.00  0.00    +0.020 A 
ENDBRANCH  20  23
ENDBRANCH   4  17
TORSDOF 3
