REMARK  Name = ZINCrD000003DYd1.0
REMARK                            x       y       z     vdW  Elec       q    Type
REMARK                         _______ _______ _______ _____ _____    ______ ____
ROOT
ATOM      1  C   LIG    1        1.721   1.287   1.224  0.00  0.00    +0.030 C 
ATOM      2  C   LIG    1        2.195   1.286  -0.230  0.00  0.00    -0.020 C 
ATOM      3  C   LIG    1        2.390  -0.158  -0.704  0.00  0.00    +0.260 C 
ATOM      4  N   LIG    1        2.719  -0.145  -2.136  0.00  0.00    -0.610 N 
ATOM      5  C   LIG    1        1.824   0.564  -3.060  0.00  0.00    +0.270 C 
ATOM      6  C   LIG    1        1.635   2.000  -2.560  0.00  0.00    +0.010 C 
ATOM      7  C   LIG    1        3.821  -0.772  -2.593  0.00  0.00    +0.530 C 
ATOM      8  O   LIG    1        4.037  -0.827  -3.785  0.00  0.00    -0.530 OA
ATOM      9  C   LIG    1        1.147   1.971  -1.110  0.00  0.00    +0.250 C 
ENDROOT
BRANCH   7  10
ATOM     10  C   LIG    1        4.785  -1.404  -1.622  0.00  0.00    -0.110 C 
ATOM     11  C   LIG    1        5.468  -0.393  -0.685  0.00  0.00    +0.030 C 
ATOM     12  C   LIG    1        6.758  -1.211  -0.875  0.00  0.00    +0.010 C 
ATOM     13  C   LIG    1        4.189  -2.610  -0.893  0.00  0.00    +0.080 C 
ATOM     14  C   LIG    1        6.176  -1.672  -2.222  0.00  0.00    +0.050 C 
ENDBRANCH   7  10
BRANCH   9  15
ATOM     15  N   LIG    1       -0.114   1.228  -1.035  0.00  0.00    -0.720 N 
ATOM     16  H   LIG    1       -0.108   0.285  -0.807  0.00  0.00    +0.400 HD
ATOM     17  C   LIG    1       -1.281   1.853  -1.287  0.00  0.00    +0.560 C 
ATOM     18  O   LIG    1       -1.288   3.035  -1.571  0.00  0.00    -0.530 OA
BRANCH  17  19
ATOM     19  C   LIG    1       -2.553   1.102  -1.217  0.00  0.00    -0.120 A 
ATOM     20  C   LIG    1       -3.748   1.752  -1.471  0.00  0.00    +0.130 A 
ATOM     21  C   LIG    1       -4.954   1.033  -1.408  0.00  0.00    +0.120 A 
ATOM     22  N   LIG    1       -6.124   1.633  -1.653  0.00  0.00    -0.470 NA
ATOM     23  C   LIG    1       -7.254   0.972  -1.591  0.00  0.00    +0.290 A 
ATOM     24  C   LIG    1       -7.294  -0.383  -1.269  0.00  0.00    -0.020 A 
ATOM     25  C   LIG    1       -6.134  -1.056  -1.007  0.00  0.00    +0.080 A 
ATOM     26  C   LIG    1       -4.922  -0.344  -1.074  0.00  0.00    -0.090 A 
ATOM     27  C   LIG    1       -3.693  -0.975  -0.816  0.00  0.00    +0.040 A 
ATOM     28  C   LIG    1       -2.537  -0.265  -0.887  0.00  0.00    +0.040 A 
ENDBRANCH  17  19
ENDBRANCH   9  15
TORSDOF 3
