REMARK  Name = ZINCrD000000f5Wm.0
REMARK                            x       y       z     vdW  Elec       q    Type
REMARK                         _______ _______ _______ _____ _____    ______ ____
ROOT
ATOM      1  N   LIG    1        3.188   2.092  -2.115  0.00  0.00    -0.730 N 
ATOM      2  H   LIG    1        3.437   2.863  -1.582  0.00  0.00    +0.400 HD
ATOM      3  C   LIG    1        3.088   2.203  -3.454  0.00  0.00    +0.520 C 
ATOM      4  O   LIG    1        2.777   1.238  -4.121  0.00  0.00    -0.520 OA
ENDROOT
BRANCH   1   5
ATOM      5  C   LIG    1        2.921   0.806  -1.464  0.00  0.00    +0.250 C 
BRANCH   5   6
ATOM      6  C   LIG    1        4.191  -0.048  -1.483  0.00  0.00    +0.160 C 
BRANCH   6   8
ATOM      7  C   LIG    1        4.815  -0.645  -3.984  0.00  0.00    +0.030 C 
ATOM      8  C   LIG    1        4.538  -0.380  -2.874  0.00  0.00    -0.190 C 
ENDBRANCH   6   8
ENDBRANCH   5   6
BRANCH   5   9
ATOM      9  C   LIG    1        2.490   1.048  -0.016  0.00  0.00    +0.080 C 
BRANCH   9  10
ATOM     10  C   LIG    1        1.175   1.783   0.000  0.00  0.00    -0.080 A 
ATOM     11  C   LIG    1       -0.013   1.076   0.008  0.00  0.00    +0.000 A 
ATOM     12  C   LIG    1       -1.219   1.751   0.017  0.00  0.00    +0.000 A 
ATOM     13  C   LIG    1       -1.238   3.133   0.030  0.00  0.00    +0.000 A 
ATOM     14  C   LIG    1       -0.050   3.840   0.022  0.00  0.00    +0.000 A 
ATOM     15  C   LIG    1        1.156   3.165   0.008  0.00  0.00    +0.010 A 
ENDBRANCH   9  10
ENDBRANCH   5   9
ENDBRANCH   1   5
BRANCH   3  16
ATOM     16  C   LIG    1        3.362   3.525  -4.123  0.00  0.00    +0.040 C 
BRANCH  16  17
ATOM     17  C   LIG    1        3.180   3.378  -5.636  0.00  0.00    +0.080 C 
BRANCH  17  18
ATOM     18  C   LIG    1        3.458   4.721  -6.315  0.00  0.00    +0.000 C 
ATOM     19  C   LIG    1        3.148   4.609  -7.808  0.00  0.00    +0.100 C 
ATOM     20  C   LIG    1        4.199   3.764  -8.482  0.00  0.00    -0.120 A 
ATOM     21  C   LIG    1        3.860   2.973  -9.562  0.00  0.00    +0.050 A 
ATOM     22  C   LIG    1        4.830   2.228 -10.207  0.00  0.00    -0.010 A 
ATOM     23  C   LIG    1        6.143   2.277  -9.776  0.00  0.00    +0.040 A 
ATOM     24  C   LIG    1        6.487   3.062  -8.692  0.00  0.00    -0.020 A 
ATOM     25  C   LIG    1        5.511   3.796  -8.030  0.00  0.00    +0.160 A 
ATOM     26  N   LIG    1        5.855   4.583  -6.928  0.00  0.00    -0.660 N 
ATOM     27  H   LIG    1        6.789   4.767  -6.742  0.00  0.00    +0.410 HD
ATOM     28  C   LIG    1        4.905   5.089  -6.122  0.00  0.00    +0.530 C 
ATOM     29  O   LIG    1        5.218   5.849  -5.230  0.00  0.00    -0.520 OA
ENDBRANCH  17  18
ENDBRANCH  16  17
ENDBRANCH   3  16
TORSDOF 8
