REMARK  Name = ZINCpe00000MJM3P.0
REMARK                            x       y       z     vdW  Elec       q    Type
REMARK                         _______ _______ _______ _____ _____    ______ ____
ROOT
ATOM      1  C   LIG    1        0.002  -0.004   0.002  0.00  0.00    +0.010 C 
ATOM      2  N   LIG    1        1.229  -0.418  -0.012  0.00  0.00    -0.110 NA
ATOM      3  N   LIG    1        2.173   0.607  -0.015  0.00  0.00    -0.430 N 
ATOM      4  C   LIG    1        1.472   1.901  -0.002  0.00  0.00    +0.210 C 
ATOM      5  C   LIG    1       -0.018   1.508   0.010  0.00  0.00    +0.140 C 
ENDROOT
BRANCH   3   6
ATOM      6  C   LIG    1        3.558   0.435  -0.029  0.00  0.00    +0.220 A 
ATOM      7  C   LIG    1        4.397   1.542  -0.036  0.00  0.00    -0.040 A 
ATOM      8  C   LIG    1        5.767   1.368  -0.044  0.00  0.00    +0.050 A 
ATOM      9  C   LIG    1        6.304   0.094  -0.055  0.00  0.00    -0.020 A 
ATOM     10  C   LIG    1        5.471  -1.011  -0.053  0.00  0.00    +0.050 A 
ATOM     11  C   LIG    1        4.101  -0.844  -0.040  0.00  0.00    -0.020 A 
ENDBRANCH   3   6
BRANCH   4  12
ATOM     12  C   LIG    1        1.824   2.681   1.238  0.00  0.00    +0.510 C 
ATOM     13  O   LIG    1        2.375   2.128   2.167  0.00  0.00    -0.510 OA
ATOM     14  N   LIG    1        1.528   3.994   1.316  0.00  0.00    -0.850 N 
ATOM     15  H   LIG    1        1.754   4.496   2.114  0.00  0.00    +0.410 HD
ATOM     16  H   LIG    1        1.087   4.436   0.573  0.00  0.00    +0.400 HD
ENDBRANCH   4  12
BRANCH   1  17
ATOM     17  C   LIG    1       -1.144  -0.839   0.009  0.00  0.00    +0.550 C 
ATOM     18  O   LIG    1       -2.256  -0.345   0.023  0.00  0.00    -0.480 OA
BRANCH  17  19
ATOM     19  O   LIG    1       -1.002  -2.181   0.000  0.00  0.00    -0.320 OA
BRANCH  19  24
ATOM     20  C   LIG    1       -4.748  -6.241   0.786  0.00  0.00    +0.100 C 
ATOM     21  C   LIG    1       -3.482  -5.382   0.761  0.00  0.00    +0.260 C 
ATOM     22  O   LIG    1       -3.117  -5.109  -0.594  0.00  0.00    -0.370 OA
ATOM     23  C   LIG    1       -1.954  -4.285  -0.724  0.00  0.00    +0.240 C 
ATOM     24  C   LIG    1       -2.199  -2.960   0.008  0.00  0.00    +0.130 C 
ATOM     25  C   LIG    1       -2.606  -3.262   1.454  0.00  0.00    +0.220 C 
ATOM     26  C   LIG    1       -2.343  -6.132   1.454  0.00  0.00    +0.020 C 
ATOM     27  O   LIG    1       -3.728  -4.151   1.446  0.00  0.00    -0.370 OA
ENDBRANCH  19  24
ENDBRANCH  17  19
ENDBRANCH   1  17
TORSDOF 5
