REMARK  Name = ZINCpk00000iSpeB.0
REMARK                            x       y       z     vdW  Elec       q    Type
REMARK                         _______ _______ _______ _____ _____    ______ ____
ROOT
ATOM      1  C   LIG    1       -0.724   1.068  -8.777  0.00  0.00    +0.250 C 
ATOM      2  C   LIG    1       -1.542  -0.219  -9.063  0.00  0.00    +0.050 C 
ATOM      3  C   LIG    1       -0.466  -1.139  -9.692  0.00  0.00    +0.270 C 
ATOM      4  N   LIG    1        0.372  -0.238 -10.505  0.00  0.00    -0.600 N 
ATOM      5  C   LIG    1        0.256   1.126  -9.967  0.00  0.00    +0.280 C 
ENDROOT
BRANCH   4   6
ATOM      6  C   LIG    1        1.139  -0.614 -11.594  0.00  0.00    +0.270 A 
ATOM      7  C   LIG    1        1.935   0.314 -12.241  0.00  0.00    -0.240 A 
ATOM      8  C   LIG    1        2.705  -0.097 -13.339  0.00  0.00    +0.530 A 
ATOM      9  N   LIG    1        2.649  -1.380 -13.748  0.00  0.00    -0.520 N 
ATOM     10  H   LIG    1        3.178  -1.665 -14.509  0.00  0.00    +0.440 HD
ATOM     11  N   LIG    1        1.834  -2.303 -13.084  0.00  0.00    -0.180 NA
ATOM     12  O   LIG    1        3.418   0.704 -13.924  0.00  0.00    -0.530 OA
ATOM     13 CL   LIG    1        1.983   1.963 -11.699  0.00  0.00    -0.030 Cl
ATOM     14  C   LIG    1        1.113  -1.947 -12.058  0.00  0.00    +0.270 A 
ENDBRANCH   4   6
BRANCH   1  16
ATOM     15  C   LIG    1       -0.562   1.375  -6.365  0.00  0.00    +0.520 C 
ATOM     16  N   LIG    1        0.004   0.948  -7.511  0.00  0.00    -0.730 N 
ATOM     17  H   LIG    1        0.894   0.562  -7.498  0.00  0.00    +0.400 HD
ATOM     18  O   LIG    1       -1.674   1.858  -6.381  0.00  0.00    -0.530 OA
BRANCH  15  19
ATOM     19  C   LIG    1        0.187   1.252  -5.063  0.00  0.00    +0.040 C 
BRANCH  19  20
ATOM     20  C   LIG    1       -0.673   1.806  -3.926  0.00  0.00    +0.130 C 
BRANCH  20  21
ATOM     21  C   LIG    1        0.087   1.681  -2.604  0.00  0.00    +0.030 C 
ATOM     22  N   LIG    1        1.061   0.596  -2.454  0.00  0.00    -0.120 NA
ATOM     23  N   LIG    1        1.551   1.721  -2.631  0.00  0.00    -0.120 NA
BRANCH  21  24
ATOM     24  C   LIG    1       -0.637   2.192  -1.357  0.00  0.00    +0.120 C 
BRANCH  24  25
ATOM     25  C   LIG    1        0.196   1.869  -0.115  0.00  0.00    +0.160 C 
BRANCH  25  27
ATOM     26  C   LIG    1       -1.056   2.753   2.042  0.00  0.00    +0.030 C 
ATOM     27  C   LIG    1       -0.500   2.361   1.085  0.00  0.00    -0.190 C 
ENDBRANCH  25  27
ENDBRANCH  24  25
ENDBRANCH  21  24
ENDBRANCH  20  21
ENDBRANCH  19  20
ENDBRANCH  15  19
ENDBRANCH   1  16
TORSDOF 8
