REMARK  Name = ZINCrD000000C9Cq.0
REMARK                            x       y       z     vdW  Elec       q    Type
REMARK                         _______ _______ _______ _____ _____    ______ ____
ROOT
ATOM      1  C   LIG    1        1.349   1.738   0.010  0.00  0.00    +0.220 A 
ATOM      2  C   LIG    1        0.236   0.909  -0.006  0.00  0.00    +0.010 A 
ATOM      3  C   LIG    1       -1.032   1.454  -0.025  0.00  0.00    +0.070 A 
ATOM      4  C   LIG    1       -1.205   2.829  -0.018  0.00  0.00    -0.020 A 
ATOM      5  C   LIG    1       -0.111   3.668  -0.002  0.00  0.00    +0.070 A 
ATOM      6  C   LIG    1        1.178   3.131   0.013  0.00  0.00    -0.180 A 
ENDROOT
BRANCH   1   9
ATOM      7  O   LIG    1        1.935  -0.637  -1.029  0.00  0.00    -0.520 OA
ATOM      8  C   LIG    1        2.840  -0.043  -0.476  0.00  0.00    +0.570 C 
ATOM      9  N   LIG    1        2.629   1.191   0.024  0.00  0.00    -0.660 N 
ATOM     10  H   LIG    1        3.369   1.698   0.392  0.00  0.00    +0.420 HD
BRANCH   8  11
ATOM     11  C   LIG    1        4.168  -0.673  -0.350  0.00  0.00    -0.170 A 
ATOM     12  C   LIG    1        5.213   0.007   0.280  0.00  0.00    +0.100 A 
ATOM     13  C   LIG    1        6.450  -0.582   0.398  0.00  0.00    -0.010 A 
ATOM     14  C   LIG    1        6.678  -1.858  -0.121  0.00  0.00    +0.140 A 
ATOM     15  O   LIG    1        7.815  -2.603  -0.126  0.00  0.00    -0.300 OA
ATOM     16  C   LIG    1        7.479  -3.981  -0.363  0.00  0.00    +0.240 C 
ATOM     17  C   LIG    1        6.172  -3.879  -1.184  0.00  0.00    +0.090 C 
ATOM     18  C   LIG    1        5.632  -2.531  -0.747  0.00  0.00    -0.190 A 
ATOM     19  C   LIG    1        4.392  -1.954  -0.867  0.00  0.00    +0.140 A 
ENDBRANCH   8  11
ENDBRANCH   1   9
BRANCH   6  20
ATOM     20  C   LIG    1        2.353   4.023   0.030  0.00  0.00    +0.570 C 
ATOM     21  N   LIG    1        2.185   5.356   0.140  0.00  0.00    -0.720 N 
ATOM     22  H   LIG    1        1.292   5.729   0.208  0.00  0.00    +0.410 HD
ATOM     23  O   LIG    1        3.472   3.556  -0.054  0.00  0.00    -0.550 OA
BRANCH  21  24
ATOM     24  C   LIG    1        3.352   6.242   0.158  0.00  0.00    +0.390 C 
BRANCH  24  25
ATOM     25  C   LIG    1        2.894   7.672   0.288  0.00  0.00    -0.050 A 
ATOM     26  C   LIG    1        2.698   8.333   1.442  0.00  0.00    -0.030 A 
ATOM     27  C   LIG    1        2.277   9.639   1.100  0.00  0.00    -0.070 A 
ATOM     28  C   LIG    1        2.234   9.695  -0.243  0.00  0.00    +0.190 A 
ATOM     29  O   LIG    1        2.609   8.501  -0.730  0.00  0.00    -0.170 OA
ENDBRANCH  24  25
ENDBRANCH  21  24
ENDBRANCH   6  20
TORSDOF 5
