REMARK  Name = ZINCkj000005jkV9.0
REMARK                            x       y       z     vdW  Elec       q    Type
REMARK                         _______ _______ _______ _____ _____    ______ ____
ROOT
ATOM      1  C   LIG    1        1.306  12.859  -0.149  0.00  0.00    +0.110 C 
ATOM      2  C   LIG    1        1.796  11.442  -0.453  0.00  0.00    +0.150 C 
ATOM      3  C   LIG    1        1.224  10.470   0.578  0.00  0.00    +0.330 C 
ATOM      4  N   LIG    1        1.811   9.141   0.351  0.00  0.00    -0.630 N 
ATOM      5  C   LIG    1        3.274   9.040   0.229  0.00  0.00    +0.310 C 
ATOM      6  C   LIG    1        3.749  10.080  -0.792  0.00  0.00    +0.270 C 
ATOM      7  C   LIG    1        1.031   8.046   0.251  0.00  0.00    +0.580 C 
ATOM      8  O   LIG    1       -0.179   8.161   0.248  0.00  0.00    -0.500 OA
ATOM      9  N   LIG    1        3.264  11.408  -0.398  0.00  0.00    -0.500 N 
ATOM     10  H   LIG    1        3.637  12.102  -1.028  0.00  0.00    +0.430 HD
ATOM     11  H   LIG    1        3.568  11.611   0.543  0.00  0.00    +0.430 HD
ENDROOT
BRANCH   7  12
ATOM     12  C   LIG    1        1.647   6.706   0.145  0.00  0.00    -0.120 A 
ATOM     13  C   LIG    1        1.084   5.741  -0.692  0.00  0.00    +0.070 A 
ATOM     14  C   LIG    1        1.661   4.491  -0.789  0.00  0.00    +0.060 A 
ATOM     15  C   LIG    1        2.795   4.190  -0.060  0.00  0.00    +0.030 A 
ATOM     16  C   LIG    1        3.363   5.144   0.776  0.00  0.00    +0.170 A 
ATOM     17  C   LIG    1        2.789   6.400   0.885  0.00  0.00    +0.040 A 
BRANCH  16  18
ATOM     18  N   LIG    1        4.515   4.834   1.513  0.00  0.00    -0.330 N 
ATOM     19  C   LIG    1        5.225   3.686   1.434  0.00  0.00    +0.240 A 
ATOM     20  C   LIG    1        6.258   3.780   2.303  0.00  0.00    -0.090 A 
ATOM     21  C   LIG    1        6.174   5.023   2.939  0.00  0.00    +0.260 A 
ATOM     22  N   LIG    1        5.133   5.658   2.462  0.00  0.00    -0.300 NA
ENDBRANCH  16  18
ENDBRANCH   7  12
TORSDOF 2
