REMARK  Name = ZINCrH000004vEhn.0
REMARK                            x       y       z     vdW  Elec       q    Type
REMARK                         _______ _______ _______ _____ _____    ______ ____
ROOT
ATOM      1  O   LIG    1       -1.354   2.487   5.449  0.00  0.00    -0.490 OA
ATOM      2  C   LIG    1       -0.745   2.112   4.466  0.00  0.00    +0.600 C 
ATOM      3  N   LIG    1       -1.327   1.264   3.595  0.00  0.00    -0.500 N 
ENDROOT
BRANCH   3   4
ATOM      4  C   LIG    1       -2.655   0.907   3.760  0.00  0.00    +0.330 A 
ATOM      5  N   LIG    1       -3.304   0.111   2.982  0.00  0.00    -0.490 NA
ATOM      6  C   LIG    1       -4.594  -0.144   3.275  0.00  0.00    +0.110 A 
ATOM      7  C   LIG    1       -5.508  -0.974   2.591  0.00  0.00    +0.060 A 
ATOM      8  C   LIG    1       -6.797  -1.107   3.041  0.00  0.00    +0.020 A 
ATOM      9  C   LIG    1       -7.223  -0.430   4.175  0.00  0.00    +0.020 A 
ATOM     10  C   LIG    1       -6.348   0.385   4.859  0.00  0.00    +0.060 A 
ATOM     11  C   LIG    1       -5.036   0.532   4.416  0.00  0.00    -0.220 A 
ATOM     12  S   LIG    1       -3.696   1.481   5.055  0.00  0.00    +0.150 S 
ENDBRANCH   3   4
BRANCH   2  13
ATOM     13  C   LIG    1        0.632   2.584   4.226  0.00  0.00    +0.000 A 
ATOM     14  C   LIG    1        1.375   3.352   5.077  0.00  0.00    +0.200 A 
ATOM     15  N   LIG    1        2.580   3.562   4.478  0.00  0.00    -0.360 N 
ATOM     16  C   LIG    1        3.694   4.251   4.869  0.00  0.00    +0.220 A 
ATOM     17  C   LIG    1        4.782   4.306   4.074  0.00  0.00    +0.030 A 
ATOM     18  C   LIG    1        4.785   3.655   2.829  0.00  0.00    +0.060 A 
ATOM     19  C   LIG    1        3.685   2.966   2.425  0.00  0.00    +0.080 A 
ATOM     20  C   LIG    1        2.553   2.916   3.267  0.00  0.00    +0.230 A 
ATOM     21  N   LIG    1        1.376   2.328   3.134  0.00  0.00    -0.460 NA
ENDBRANCH   2  13
BRANCH   3  22
ATOM     22  C   LIG    1       -0.556   0.720   2.475  0.00  0.00    +0.340 C 
BRANCH  22  23
ATOM     23  C   LIG    1       -0.610   1.696   1.297  0.00  0.00    +0.150 C 
ATOM     24  C   LIG    1        0.199   1.146   0.095  0.00  0.00    +0.020 C 
ATOM     25  C   LIG    1       -0.467   1.866  -1.102  0.00  0.00    +0.000 C 
ATOM     26  C   LIG    1       -1.851   2.285  -0.568  0.00  0.00    +0.180 C 
ATOM     27  O   LIG    1       -1.955   1.796   0.779  0.00  0.00    -0.360 OA
ENDBRANCH  22  23
ENDBRANCH   3  22
TORSDOF 4
