REMARK  Name = ZINCqH0000003Psz.0
REMARK                            x       y       z     vdW  Elec       q    Type
REMARK                         _______ _______ _______ _____ _____    ______ ____
ROOT
ATOM      1  N   LIG    1       -0.018   1.461   0.010  0.00  0.00    -0.720 N 
ATOM      2  H   LIG    1        0.816   1.957   0.005  0.00  0.00    +0.400 HD
ATOM      3  C   LIG    1       -1.194   2.119   0.019  0.00  0.00    +0.520 C 
ATOM      4  O   LIG    1       -2.236   1.498   0.021  0.00  0.00    -0.520 OA
ENDROOT
BRANCH   1   5
ATOM      5  C   LIG    1        0.002  -0.004   0.002  0.00  0.00    +0.290 C 
ATOM      6  C   LIG    1       -0.130  -0.508  -1.437  0.00  0.00    +0.040 C 
BRANCH   5  11
ATOM      7  C   LIG    1        2.510  -2.039   1.964  0.00  0.00    +0.140 A 
ATOM      8  C   LIG    1        3.694  -1.383   1.660  0.00  0.00    -0.080 A 
ATOM      9  C   LIG    1        3.678  -0.284   0.823  0.00  0.00    +0.060 A 
ATOM     10  C   LIG    1        2.483   0.161   0.286  0.00  0.00    -0.030 A 
ATOM     11  C   LIG    1        1.302  -0.492   0.588  0.00  0.00    -0.050 A 
ATOM     12  C   LIG    1        1.312  -1.587   1.429  0.00  0.00    -0.010 A 
BRANCH   7  13
ATOM     13  O   LIG    1        2.523  -3.120   2.788  0.00  0.00    -0.310 OA
BRANCH  13  15
ATOM     14  C   LIG    1        3.607  -4.748   4.206  0.00  0.00    +0.070 C 
ATOM     15  C   LIG    1        3.791  -3.525   3.306  0.00  0.00    +0.170 C 
ENDBRANCH  13  15
ENDBRANCH   7  13
ENDBRANCH   5  11
ENDBRANCH   1   5
BRANCH   3  16
ATOM     16  C   LIG    1       -1.214   3.626   0.028  0.00  0.00    +0.080 C 
BRANCH  16  17
ATOM     17  C   LIG    1       -2.664   4.116   0.037  0.00  0.00    +0.080 C 
ATOM     18  S   LIG    1       -3.466   3.617   1.590  0.00  0.00    -0.040 S 
ATOM     19  C   LIG    1       -2.746   4.742   2.745  0.00  0.00    -0.140 A 
ATOM     20  C   LIG    1       -2.578   4.365   4.067  0.00  0.00    +0.080 A 
ATOM     21  C   LIG    1       -2.018   5.249   4.971  0.00  0.00    +0.000 A 
ATOM     22  C   LIG    1       -1.629   6.508   4.553  0.00  0.00    +0.050 A 
ATOM     23  C   LIG    1       -1.792   6.889   3.236  0.00  0.00    -0.010 A 
ATOM     24  C   LIG    1       -2.351   6.008   2.315  0.00  0.00    +0.160 A 
ATOM     25  N   LIG    1       -2.494   6.414   0.991  0.00  0.00    -0.650 N 
ATOM     26  H   LIG    1       -2.446   7.367   0.816  0.00  0.00    +0.410 HD
ATOM     27  C   LIG    1       -2.689   5.619  -0.057  0.00  0.00    +0.530 C 
ATOM     28  O   LIG    1       -2.898   6.127  -1.139  0.00  0.00    -0.510 OA
ENDBRANCH  16  17
ENDBRANCH   3  16
TORSDOF 6
