REMARK  Name = ZINCpk00000kEoCJ.0
REMARK                            x       y       z     vdW  Elec       q    Type
REMARK                         _______ _______ _______ _____ _____    ______ ____
ROOT
ATOM      1  N   LIG    1        4.877   5.168  -0.015  0.00  0.00    -0.690 N 
ATOM      2  H   LIG    1        5.276   4.284  -0.023  0.00  0.00    +0.410 HD
ENDROOT
BRANCH   1   8
ATOM      3  C   LIG    1        1.071   8.079   0.035  0.00  0.00    +0.160 C 
ATOM      4  C   LIG    1        1.659   6.691   0.021  0.00  0.00    +0.240 A 
ATOM      5  C   LIG    1        0.833   5.582   0.023  0.00  0.00    -0.130 A 
ATOM      6  C   LIG    1        1.418   4.317   0.011  0.00  0.00    +0.460 A 
ATOM      7  N   LIG    1        2.742   4.218   0.005  0.00  0.00    -0.600 NA
ATOM      8  C   LIG    1        3.500   5.305  -0.002  0.00  0.00    +0.600 A 
ATOM      9  N   LIG    1        2.972   6.520   0.009  0.00  0.00    -0.550 NA
BRANCH   6  10
ATOM     10  N   LIG    1        0.624   3.169   0.013  0.00  0.00    -0.330 N 
ATOM     11  C   LIG    1        1.070   1.886   0.002  0.00  0.00    +0.260 A 
ATOM     12  C   LIG    1       -0.013   1.076   0.008  0.00  0.00    -0.100 A 
ATOM     13  C   LIG    1       -1.156   1.883   0.017  0.00  0.00    +0.270 A 
ATOM     14  N   LIG    1       -0.777   3.135   0.025  0.00  0.00    -0.280 NA
ENDBRANCH   6  10
ENDBRANCH   1   8
BRANCH   1  15
ATOM     15  C   LIG    1        5.732   6.357  -0.016  0.00  0.00    +0.280 C 
ATOM     16  C   LIG    1        7.110   6.016  -0.609  0.00  0.00    +0.050 C 
ATOM     17  C   LIG    1        8.148   6.293   0.498  0.00  0.00    -0.020 C 
ATOM     18  C   LIG    1        7.449   7.321   1.424  0.00  0.00    +0.000 C 
ATOM     19  C   LIG    1        5.980   6.831   1.431  0.00  0.00    +0.150 C 
BRANCH  19  20
ATOM     20  O   LIG    1        5.095   7.902   1.766  0.00  0.00    -0.540 OA
ATOM     21  H   LIG    1        5.207   8.239   2.665  0.00  0.00    +0.380 HD
ENDBRANCH  19  20
BRANCH  17  22
ATOM     22  C   LIG    1        9.424   6.890  -0.098  0.00  0.00    +0.310 C 
BRANCH  22  23
ATOM     23  N   LIG    1       10.402   7.115   0.970  0.00  0.00    -0.460 N 
ATOM     24  C   LIG    1       11.347   6.226   1.407  0.00  0.00    +0.110 A 
ATOM     25  C   LIG    1       12.029   6.837   2.394  0.00  0.00    +0.140 A 
ATOM     26  N   LIG    1       11.516   8.065   2.556  0.00  0.00    -0.500 NA
ATOM     27  C   LIG    1       10.545   8.241   1.702  0.00  0.00    +0.380 A 
ENDBRANCH  22  23
ENDBRANCH  17  22
ENDBRANCH   1  15
TORSDOF 6
