REMARK  Name = ZINCrD00000F5LGK.0
REMARK                            x       y       z     vdW  Elec       q    Type
REMARK                         _______ _______ _______ _____ _____    ______ ____
ROOT
ATOM      1  C   LIG    1        1.183   1.677  -0.000  0.00  0.00    +0.270 A 
ATOM      2  N   LIG    1        1.277   2.970   0.000  0.00  0.00    -0.470 NA
ATOM      3  C   LIG    1        2.494   3.480  -0.003  0.00  0.00    +0.260 A 
ATOM      4  C   LIG    1        3.475   2.576  -0.017  0.00  0.00    -0.230 A 
ATOM      5  S   LIG    1        2.741   0.974  -0.019  0.00  0.00    +0.130 S 
ENDROOT
BRANCH   1   7
ATOM      6  C   LIG    1       -1.187   1.624   0.017  0.00  0.00    +0.520 C 
ATOM      7  N   LIG    1       -0.011   0.966   0.007  0.00  0.00    -0.630 N 
ATOM      8  H   LIG    1        0.002  -0.004   0.002  0.00  0.00    +0.420 HD
ATOM      9  O   LIG    1       -1.204   2.837   0.023  0.00  0.00    -0.460 OA
BRANCH   6  13
ATOM     10  C   LIG    1       -5.517   0.410  -1.369  0.00  0.00    +0.570 C 
ATOM     11  N   LIG    1       -4.277   0.774  -0.989  0.00  0.00    -0.640 N 
ATOM     12  C   LIG    1       -3.735   1.746  -0.018  0.00  0.00    +0.320 C 
ATOM     13  C   LIG    1       -2.482   0.853   0.018  0.00  0.00    -0.020 C 
ATOM     14  C   LIG    1       -2.912   0.359  -1.375  0.00  0.00    +0.310 C 
ATOM     15  O   LIG    1       -6.488   0.938  -0.861  0.00  0.00    -0.540 OA
BRANCH  10  17
ATOM     16  C   LIG    1       -6.921  -0.985  -2.773  0.00  0.00    +0.150 C 
ATOM     17  C   LIG    1       -5.697  -0.626  -2.397  0.00  0.00    -0.090 C 
ENDBRANCH  10  17
ENDBRANCH   6  13
ENDBRANCH   1   7
BRANCH   4  18
ATOM     18  C   LIG    1        4.953   2.873  -0.030  0.00  0.00    +0.190 C 
BRANCH  18  19
ATOM     19  C   LIG    1        5.459   2.964   1.387  0.00  0.00    -0.080 A 
ATOM     20  C   LIG    1        5.926   1.833   2.028  0.00  0.00    +0.050 A 
ATOM     21  C   LIG    1        6.391   1.917   3.328  0.00  0.00    +0.020 A 
ATOM     22  C   LIG    1        6.388   3.133   3.985  0.00  0.00    +0.070 A 
ATOM     23  C   LIG    1        5.920   4.265   3.344  0.00  0.00    -0.180 A 
ATOM     24  C   LIG    1        5.460   4.181   2.043  0.00  0.00    +0.080 A 
BRANCH  23  25
ATOM     25  C   LIG    1        5.916   5.590   4.061  0.00  0.00    +0.510 C 
ATOM     26  F   LIG    1        4.606   6.075   4.138  0.00  0.00    -0.170 F 
ATOM     27  F   LIG    1        6.710   6.503   3.358  0.00  0.00    -0.180 F 
ATOM     28  F   LIG    1        6.428   5.423   5.352  0.00  0.00    -0.180 F 
ENDBRANCH  23  25
ENDBRANCH  18  19
ENDBRANCH   4  18
TORSDOF 6
