REMARK  Name = ZINCvU0000000DnL.0
REMARK                            x       y       z     vdW  Elec       q    Type
REMARK                         _______ _______ _______ _____ _____    ______ ____
ROOT
ATOM      1  C   LIG    1        6.111  -3.273  -0.580  0.00  0.00    +0.120 C 
ENDROOT
BRANCH   1   4
ATOM      2  N   LIG    1        4.323  -1.648  -0.048  0.00  0.00    -0.660 N 
ATOM      3  H   LIG    1        3.773  -2.393   0.242  0.00  0.00    +0.420 HD
ATOM      4  C   LIG    1        5.588  -1.865  -0.460  0.00  0.00    +0.540 C 
ATOM      5  O   LIG    1        6.306  -0.926  -0.734  0.00  0.00    -0.500 OA
BRANCH   2   7
ATOM      6  C   LIG    1        3.818   0.529   1.005  0.00  0.00    +0.110 A 
ATOM      7  C   LIG    1        3.806  -0.355  -0.038  0.00  0.00    +0.140 A 
ATOM      8  C   LIG    1        3.135   0.337  -1.145  0.00  0.00    -0.130 A 
ATOM      9  C   LIG    1        2.813  -0.014  -2.456  0.00  0.00    +0.080 A 
ATOM     10  C   LIG    1        2.167   0.885  -3.259  0.00  0.00    +0.010 A 
ATOM     11  C   LIG    1        1.831   2.142  -2.777  0.00  0.00    +0.070 A 
ATOM     12  C   LIG    1        2.141   2.507  -1.485  0.00  0.00    +0.030 A 
ATOM     13  C   LIG    1        2.798   1.610  -0.651  0.00  0.00    +0.080 A 
ATOM     14  O   LIG    1        3.221   1.681   0.627  0.00  0.00    -0.160 OA
BRANCH   6  16
ATOM     15  N   LIG    1        4.822   0.072   3.324  0.00  0.00    -0.350 NA
ATOM     16  C   LIG    1        4.378   0.274   2.298  0.00  0.00    +0.280 C 
ENDBRANCH   6  16
ENDBRANCH   2   7
ENDBRANCH   1   4
BRANCH   1  17
ATOM     17  S   LIG    1        7.827  -3.233  -1.152  0.00  0.00    +0.070 S 
BRANCH  17  18
ATOM     18  C   LIG    1        8.174  -4.960  -1.202  0.00  0.00    +0.170 A 
ATOM     19  N   LIG    1        7.335  -5.922  -0.888  0.00  0.00    -0.480 NA
ATOM     20  C   LIG    1        7.940  -7.106  -1.045  0.00  0.00    +0.020 A 
ATOM     21  C   LIG    1        9.200  -6.884  -1.470  0.00  0.00    -0.000 A 
ATOM     22  C   LIG    1       10.206  -7.967  -1.762  0.00  0.00    +0.110 C 
ATOM     23  C   LIG    1        9.716  -9.269  -1.117  0.00  0.00    +0.040 C 
ATOM     24  C   LIG    1        8.254  -9.511  -1.504  0.00  0.00    +0.020 C 
ATOM     25  C   LIG    1        7.362  -8.479  -0.804  0.00  0.00    +0.130 C 
ATOM     26  N   LIG    1        9.358  -5.526  -1.580  0.00  0.00    -0.390 N 
BRANCH  26  27
ATOM     27  C   LIG    1       10.514  -4.850  -1.997  0.00  0.00    +0.100 A 
ATOM     28  C   LIG    1       10.979  -5.003  -3.296  0.00  0.00    +0.030 A 
ATOM     29  C   LIG    1       12.115  -4.332  -3.704  0.00  0.00    +0.020 A 
ATOM     30  C   LIG    1       12.794  -3.516  -2.818  0.00  0.00    +0.030 A 
ATOM     31  C   LIG    1       12.336  -3.366  -1.522  0.00  0.00    +0.040 A 
ATOM     32  C   LIG    1       11.198  -4.030  -1.109  0.00  0.00    +0.030 A 
ENDBRANCH  26  27
ENDBRANCH  17  18
ENDBRANCH   1  17
TORSDOF 6
