REMARK  Name = ZINCtV00000L6kez.0
REMARK                            x       y       z     vdW  Elec       q    Type
REMARK                         _______ _______ _______ _____ _____    ______ ____
ROOT
ATOM      1  C   LIG    1       -3.036   4.147   1.220  0.00  0.00    +0.510 C 
ATOM      2  N   LIG    1       -2.459   3.823   0.045  0.00  0.00    -0.480 N 
ATOM      3  O   LIG    1       -4.093   4.740   1.232  0.00  0.00    -0.440 OA
ENDROOT
BRANCH   2   4
ATOM      4  C   LIG    1       -3.075   4.168  -1.149  0.00  0.00    +0.340 A 
ATOM      5  N   LIG    1       -4.196   4.796  -1.243  0.00  0.00    -0.460 NA
ATOM      6  C   LIG    1       -4.668   5.061  -2.476  0.00  0.00    +0.110 A 
ATOM      7  C   LIG    1       -5.857   5.728  -2.842  0.00  0.00    +0.070 A 
ATOM      8  C   LIG    1       -6.174   5.907  -4.165  0.00  0.00    +0.040 A 
ATOM      9  C   LIG    1       -5.334   5.436  -5.163  0.00  0.00    +0.030 A 
ATOM     10  C   LIG    1       -4.168   4.782  -4.830  0.00  0.00    +0.060 A 
ATOM     11  C   LIG    1       -3.830   4.591  -3.492  0.00  0.00    -0.180 A 
ATOM     12  S   LIG    1       -2.434   3.816  -2.747  0.00  0.00    +0.070 S 
ENDBRANCH   2   4
BRANCH   2  13
ATOM     13  C   LIG    1       -1.237   3.138   0.030  0.00  0.00    +0.100 A 
ATOM     14  C   LIG    1       -1.219   1.749   0.017  0.00  0.00    +0.050 A 
ATOM     15  C   LIG    1       -0.013   1.076   0.008  0.00  0.00    +0.050 A 
ATOM     16  C   LIG    1        1.176   1.782   0.000  0.00  0.00    +0.060 A 
ATOM     17  C   LIG    1        1.161   3.167   0.007  0.00  0.00    -0.030 A 
ATOM     18 CL   LIG    1        2.655   4.050  -0.003  0.00  0.00    -0.050 Cl
ATOM     19  C   LIG    1       -0.043   3.845   0.022  0.00  0.00    -0.050 A 
ATOM     20  C   LIG    1       -0.059   5.352   0.030  0.00  0.00    +0.110 C 
ENDBRANCH   2  13
BRANCH   1  21
ATOM     21  C   LIG    1       -2.366   3.772   2.517  0.00  0.00    +0.130 C 
BRANCH  21  25
ATOM     22  C   LIG    1       -4.757   5.115   5.794  0.00  0.00    +0.130 A 
ATOM     23  C   LIG    1       -4.955   3.849   5.262  0.00  0.00    -0.020 A 
ATOM     24  C   LIG    1       -4.181   3.418   4.202  0.00  0.00    +0.070 A 
ATOM     25  C   LIG    1       -3.209   4.246   3.672  0.00  0.00    -0.110 A 
ATOM     26  C   LIG    1       -3.006   5.505   4.205  0.00  0.00    +0.060 A 
ATOM     27  C   LIG    1       -3.781   5.944   5.260  0.00  0.00    -0.080 A 
BRANCH  22  29
ATOM     28  C   LIG    1       -5.257   6.856   7.334  0.00  0.00    +0.250 C 
ATOM     29  O   LIG    1       -5.517   5.542   6.837  0.00  0.00    -0.320 OA
ENDBRANCH  22  29
ENDBRANCH  21  25
ENDBRANCH   1  21
TORSDOF 5
