REMARK  Name = ZINCvU0000000H87.0
REMARK                            x       y       z     vdW  Elec       q    Type
REMARK                         _______ _______ _______ _____ _____    ______ ____
ROOT
ATOM      1  N   LIG    1        1.975  -2.836   0.071  0.00  0.00    -0.460 N 
ATOM      2  C   LIG    1        3.262  -2.439   0.138  0.00  0.00    +0.570 C 
ATOM      3  O   LIG    1        3.551  -1.277  -0.072  0.00  0.00    -0.450 OA
ENDROOT
BRANCH   1   9
ATOM      4  C   LIG    1        1.501  -4.720   1.518  0.00  0.00    +0.150 A 
ATOM      5  C   LIG    1        1.179  -6.058   1.676  0.00  0.00    -0.060 A 
ATOM      6  C   LIG    1        1.008  -6.864   0.566  0.00  0.00    +0.090 A 
ATOM      7  C   LIG    1        1.156  -6.338  -0.704  0.00  0.00    +0.000 A 
ATOM      8  C   LIG    1        1.471  -5.003  -0.871  0.00  0.00    +0.070 A 
ATOM      9  C   LIG    1        1.650  -4.189   0.238  0.00  0.00    +0.050 A 
BRANCH   4  11
ATOM     10  C   LIG    1        1.500  -4.537   3.889  0.00  0.00    +0.250 C 
ATOM     11  O   LIG    1        1.669  -3.925   2.608  0.00  0.00    -0.310 OA
ENDBRANCH   4  11
ENDBRANCH   1   9
BRANCH   2  12
ATOM     12  C   LIG    1        4.323  -3.418   0.466  0.00  0.00    -0.080 A 
ATOM     13  C   LIG    1        5.366  -3.083   1.334  0.00  0.00    +0.030 A 
ATOM     14  C   LIG    1        6.333  -4.029   1.616  0.00  0.00    +0.270 A 
ATOM     15  N   LIG    1        6.285  -5.229   1.071  0.00  0.00    -0.470 NA
ATOM     16  C   LIG    1        5.322  -5.584   0.244  0.00  0.00    +0.260 A 
ATOM     17  C   LIG    1        4.312  -4.702  -0.089  0.00  0.00    +0.010 A 
ENDBRANCH   2  12
BRANCH   1  18
ATOM     18  C   LIG    1        0.972  -1.904  -0.163  0.00  0.00    +0.310 A 
ATOM     19  N   LIG    1        1.155  -0.631  -0.331  0.00  0.00    -0.460 NA
ATOM     20  C   LIG    1        0.077   0.109  -0.544  0.00  0.00    +0.120 A 
ATOM     21  C   LIG    1       -1.090  -0.561  -0.553  0.00  0.00    -0.060 A 
ATOM     22  S   LIG    1       -0.748  -2.267  -0.276  0.00  0.00    +0.130 S 
BRANCH  20  23
ATOM     23  C   LIG    1        0.151   1.576  -0.752  0.00  0.00    +0.030 A 
ATOM     24  C   LIG    1       -1.012   2.310  -0.977  0.00  0.00    +0.040 A 
ATOM     25  C   LIG    1       -0.938   3.675  -1.164  0.00  0.00    +0.110 A 
ATOM     26  C   LIG    1        0.289   4.314  -1.139  0.00  0.00    -0.040 A 
ATOM     27  C   LIG    1        1.447   3.589  -0.921  0.00  0.00    +0.110 A 
ATOM     28  C   LIG    1        1.385   2.224  -0.728  0.00  0.00    +0.080 A 
BRANCH  26  29
ATOM     29  N   LIG    1        0.363   5.778  -1.347  0.00  0.00    +0.030 N 
ATOM     30  O   LIG    1       -0.655   6.418  -1.539  0.00  0.00    -0.160 OA
ATOM     31  O   LIG    1        1.442   6.342  -1.325  0.00  0.00    -0.160 OA
ENDBRANCH  26  29
ENDBRANCH  20  23
ENDBRANCH   1  18
TORSDOF 6
