REMARK  Name = ZINCvU0000000GCH.0
REMARK                            x       y       z     vdW  Elec       q    Type
REMARK                         _______ _______ _______ _____ _____    ______ ____
ROOT
ATOM      1  N   LIG    1       -7.161  -4.241  -2.466  0.00  0.00    -0.640 N 
ATOM      2  H   LIG    1       -6.708  -3.981  -1.648  0.00  0.00    +0.420 HD
ATOM      3  C   LIG    1       -6.633  -3.914  -3.662  0.00  0.00    +0.580 C 
ATOM      4  O   LIG    1       -7.199  -4.240  -4.686  0.00  0.00    -0.490 OA
ENDROOT
BRANCH   1   9
ATOM      5  C   LIG    1      -11.300  -6.692  -3.792  0.00  0.00    +0.170 C 
ATOM      6  C   LIG    1      -10.214  -6.053  -2.965  0.00  0.00    +0.100 A 
ATOM      7  N   LIG    1      -10.160  -6.035  -1.657  0.00  0.00    -0.280 NA
ATOM      8  N   LIG    1       -8.998  -5.354  -1.272  0.00  0.00    -0.350 N 
ATOM      9  C   LIG    1       -8.357  -4.953  -2.404  0.00  0.00    +0.310 A 
ATOM     10  C   LIG    1       -9.095  -5.382  -3.465  0.00  0.00    -0.080 A 
BRANCH   8  11
ATOM     11  C   LIG    1       -8.573  -5.123   0.044  0.00  0.00    +0.160 A 
ATOM     12  C   LIG    1       -7.219  -5.130   0.348  0.00  0.00    +0.000 A 
ATOM     13  C   LIG    1       -6.802  -4.898   1.645  0.00  0.00    +0.070 A 
ATOM     14  C   LIG    1       -7.735  -4.670   2.642  0.00  0.00    -0.040 A 
ATOM     15  C   LIG    1       -9.086  -4.667   2.341  0.00  0.00    +0.070 A 
ATOM     16 CL   LIG    1       -7.209  -4.386   4.271  0.00  0.00    -0.060 Cl
ATOM     17  C   LIG    1       -9.507  -4.894   1.045  0.00  0.00    +0.050 A 
ENDBRANCH   8  11
ENDBRANCH   1   9
BRANCH   3  18
ATOM     18  C   LIG    1       -5.362  -3.156  -3.728  0.00  0.00    +0.120 A 
ATOM     19  C   LIG    1       -4.823  -2.821  -4.966  0.00  0.00    -0.010 A 
ATOM     20  C   LIG    1       -3.631  -2.111  -5.016  0.00  0.00    +0.110 A 
ATOM     21  C   LIG    1       -3.022  -1.755  -3.827  0.00  0.00    -0.070 A 
ATOM     22  C   LIG    1       -3.613  -2.127  -2.620  0.00  0.00    +0.410 A 
ATOM     23  N   LIG    1       -4.747  -2.803  -2.603  0.00  0.00    -0.530 NA
BRANCH  22  24
ATOM     24  N   LIG    1       -3.004  -1.778  -1.420  0.00  0.00    -0.720 N 
ATOM     25  H   LIG    1       -3.412  -2.031  -0.577  0.00  0.00    +0.410 HD
BRANCH  24  26
ATOM     26  C   LIG    1       -1.745  -1.028  -1.429  0.00  0.00    +0.270 C 
BRANCH  26  27
ATOM     27  C   LIG    1       -1.293  -0.775   0.011  0.00  0.00    +0.070 C 
BRANCH  27  28
ATOM     28  C   LIG    1        0.002  -0.004   0.002  0.00  0.00    -0.090 A 
ATOM     29  C   LIG    1       -0.017   1.378   0.010  0.00  0.00    +0.010 A 
ATOM     30  C   LIG    1        1.171   2.086   0.002  0.00  0.00    +0.000 A 
ATOM     31  C   LIG    1        2.377   1.411  -0.015  0.00  0.00    +0.000 A 
ATOM     32  C   LIG    1        2.396   0.029  -0.022  0.00  0.00    +0.000 A 
ATOM     33  C   LIG    1        1.208  -0.679  -0.013  0.00  0.00    +0.010 A 
ENDBRANCH  27  28
ENDBRANCH  26  27
ENDBRANCH  24  26
ENDBRANCH  22  24
ENDBRANCH   3  18
TORSDOF 7
