REMARK  Name = ZINCpe00000bFzXI.0
REMARK                            x       y       z     vdW  Elec       q    Type
REMARK                         _______ _______ _______ _____ _____    ______ ____
ROOT
ATOM      1  C   LIG    1       -5.498   2.301   0.164  0.00  0.00    +0.140 C 
ATOM      2  C   LIG    1       -4.939   1.366   1.242  0.00  0.00    +0.290 C 
ATOM      3  N   LIG    1       -5.442   0.007   0.985  0.00  0.00    -0.610 N 
ATOM      4  C   LIG    1       -5.292  -0.540  -0.372  0.00  0.00    +0.260 C 
ATOM      5  C   LIG    1       -5.833   0.488  -1.372  0.00  0.00    +0.220 C 
ATOM      6  C   LIG    1       -6.025  -0.714   1.964  0.00  0.00    +0.510 C 
ATOM      7  O   LIG    1       -6.070  -0.277   3.094  0.00  0.00    -0.510 OA
ATOM      8  O   LIG    1       -5.216   1.754  -1.126  0.00  0.00    -0.370 OA
ENDROOT
BRANCH   6   9
ATOM      9  C   LIG    1       -6.621  -2.063   1.653  0.00  0.00    +0.240 C 
ATOM     10  C   LIG    1       -5.534  -3.135   1.753  0.00  0.00    +0.080 C 
BRANCH   9  11
ATOM     11  N   LIG    1       -7.688  -2.358   2.612  0.00  0.00    -0.440 N 
ATOM     12  C   LIG    1       -7.537  -2.454   3.964  0.00  0.00    +0.180 A 
ATOM     13  C   LIG    1       -8.741  -2.733   4.503  0.00  0.00    -0.070 A 
ATOM     14  C   LIG    1       -9.667  -2.822   3.446  0.00  0.00    -0.050 A 
ATOM     15  C   LIG    1       -8.995  -2.588   2.300  0.00  0.00    +0.130 A 
ENDBRANCH   9  11
ENDBRANCH   6   9
BRANCH   1  16
ATOM     16  C   LIG    1       -4.840   3.677   0.290  0.00  0.00    +0.300 C 
BRANCH  16  18
ATOM     17  C   LIG    1       -5.032   5.879  -0.735  0.00  0.00    +0.560 C 
ATOM     18  N   LIG    1       -5.455   4.601  -0.666  0.00  0.00    -0.720 N 
ATOM     19  H   LIG    1       -6.166   4.294  -1.250  0.00  0.00    +0.400 HD
ATOM     20  O   LIG    1       -4.207   6.288   0.055  0.00  0.00    -0.530 OA
BRANCH  17  21
ATOM     21  C   LIG    1       -5.584   6.800  -1.792  0.00  0.00    -0.170 C 
ATOM     22  C   LIG    1       -5.497   8.306  -1.534  0.00  0.00    +0.090 C 
ATOM     23  C   LIG    1       -6.848   7.591  -1.450  0.00  0.00    +0.060 C 
BRANCH  21  24
ATOM     24  C   LIG    1       -5.420   6.320  -3.236  0.00  0.00    +0.220 C 
BRANCH  24  26
ATOM     25  C   LIG    1       -3.766   5.819  -4.896  0.00  0.00    +0.200 C 
ATOM     26  O   LIG    1       -4.030   6.259  -3.562  0.00  0.00    -0.380 OA
ENDBRANCH  24  26
ENDBRANCH  21  24
ENDBRANCH  17  21
ENDBRANCH  16  18
ENDBRANCH   1  16
TORSDOF 7
