REMARK  Name = ZINCrH000004spoW.0
REMARK                            x       y       z     vdW  Elec       q    Type
REMARK                         _______ _______ _______ _____ _____    ______ ____
ROOT
ATOM      1  C   LIG    1        3.558   0.425  -0.040  0.00  0.00    +0.200 C 
ATOM      2  C   LIG    1        2.055   0.523  -0.045  0.00  0.00    +0.280 A 
ATOM      3  N   LIG    1        1.223  -0.483  -0.055  0.00  0.00    -0.480 NA
ATOM      4  C   LIG    1       -0.039  -0.029  -0.056  0.00  0.00    +0.210 A 
ATOM      5  N   LIG    1       -0.016   1.287  -0.045  0.00  0.00    -0.250 NA
ATOM      6  N   LIG    1        1.336   1.667  -0.037  0.00  0.00    -0.330 N 
ENDROOT
BRANCH   6   7
ATOM      7  C   LIG    1        1.841   2.974  -0.025  0.00  0.00    +0.130 A 
ATOM      8  C   LIG    1        2.823   3.349  -0.932  0.00  0.00    +0.020 A 
ATOM      9  C   LIG    1        3.313   4.640  -0.922  0.00  0.00    +0.030 A 
ATOM     10  C   LIG    1        2.836   5.555  -0.002  0.00  0.00    +0.020 A 
ATOM     11  C   LIG    1        1.862   5.183   0.906  0.00  0.00    +0.030 A 
ATOM     12  C   LIG    1        1.363   3.896   0.897  0.00  0.00    -0.050 A 
BRANCH  12  13
ATOM     13  C   LIG    1        0.302   3.491   1.888  0.00  0.00    +0.030 C 
ATOM     14  C   LIG    1       -0.983   4.272   1.607  0.00  0.00    +0.030 C 
ATOM     15  C   LIG    1        0.785   3.797   3.307  0.00  0.00    +0.030 C 
ENDBRANCH  12  13
ENDBRANCH   6   7
BRANCH   4  16
ATOM     16  C   LIG    1       -1.258  -0.871  -0.066  0.00  0.00    +0.580 C 
ATOM     17  O   LIG    1       -2.359  -0.348  -0.066  0.00  0.00    -0.580 OA
BRANCH  16  18
ATOM     18  N   LIG    1       -1.151  -2.203  -0.077  0.00  0.00    -0.610 NA
ATOM     19  C   LIG    1       -2.245  -2.959  -0.087  0.00  0.00    +0.480 A 
ATOM     20  C   LIG    1       -2.289  -4.369  -0.104  0.00  0.00    -0.070 A 
ATOM     21  C   LIG    1       -3.584  -4.753  -0.107  0.00  0.00    +0.220 A 
ATOM     22  N   LIG    1       -4.374  -3.641  -0.100  0.00  0.00    -0.490 N 
ATOM     23  H   LIG    1       -5.344  -3.634  -0.104  0.00  0.00    +0.440 HD
ATOM     24  N   LIG    1       -3.545  -2.511  -0.087  0.00  0.00    -0.480 N 
ATOM     25  H   LIG    1       -3.834  -1.586  -0.080  0.00  0.00    +0.460 HD
BRANCH  21  26
ATOM     26  C   LIG    1       -4.076  -6.177  -0.120  0.00  0.00    +0.040 C 
ATOM     27  C   LIG    1       -5.575  -6.409   0.079  0.00  0.00    +0.030 C 
ATOM     28  C   LIG    1       -4.946  -6.613  -1.301  0.00  0.00    -0.020 C 
ATOM     29  C   LIG    1       -4.789  -8.050  -1.802  0.00  0.00    +0.070 C 
ENDBRANCH  21  26
ENDBRANCH  16  18
ENDBRANCH   4  16
TORSDOF 5
