REMARK  Name = ZINCnE000001OeWZ.0
REMARK                            x       y       z     vdW  Elec       q    Type
REMARK                         _______ _______ _______ _____ _____    ______ ____
ROOT
ATOM      1  C   LIG    1       -0.909   0.240  -1.417  0.00  0.00    +0.050 C 
ATOM      2  C   LIG    1        0.168   0.454  -0.351  0.00  0.00    +0.170 C 
ATOM      3  C   LIG    1        1.367  -0.472  -0.625  0.00  0.00    +0.030 C 
ATOM      4  C   LIG    1        2.574   0.476  -0.814  0.00  0.00    +0.040 C 
ATOM      5  C   LIG    1        2.117   1.767  -0.090  0.00  0.00    +0.190 C 
ATOM      6  N   LIG    1        0.669   1.844  -0.414  0.00  0.00    -0.460 N 
ENDROOT
BRANCH   3   7
ATOM      7  C   LIG    1        1.133  -1.275  -1.879  0.00  0.00    -0.040 A 
ATOM      8  C   LIG    1        0.887  -2.633  -1.793  0.00  0.00    +0.040 A 
ATOM      9  C   LIG    1        0.667  -3.370  -2.942  0.00  0.00    +0.020 A 
ATOM     10  C   LIG    1        0.703  -2.752  -4.179  0.00  0.00    +0.060 A 
ATOM     11  C   LIG    1        0.955  -1.391  -4.265  0.00  0.00    +0.070 A 
ATOM     12  F   LIG    1        0.989  -0.785  -5.472  0.00  0.00    -0.130 F 
ATOM     13  F   LIG    1        0.493  -3.474  -5.302  0.00  0.00    -0.130 F 
ATOM     14  C   LIG    1        1.169  -0.654  -3.114  0.00  0.00    +0.040 A 
ENDBRANCH   3   7
BRANCH   6  15
ATOM     15  C   LIG    1        0.001   2.653   0.488  0.00  0.00    +0.280 A 
ATOM     16  C   LIG    1        0.339   4.002   0.581  0.00  0.00    -0.060 A 
ATOM     17  C   LIG    1       -0.326   4.801   1.471  0.00  0.00    +0.110 A 
ATOM     18  C   LIG    1       -1.327   4.224   2.271  0.00  0.00    -0.200 A 
ATOM     19  C   LIG    1       -1.609   2.862   2.127  0.00  0.00    +0.310 A 
ATOM     20  N   LIG    1       -0.948   2.132   1.255  0.00  0.00    -0.530 NA
BRANCH  18  21
ATOM     21  C   LIG    1       -2.066   5.041   3.247  0.00  0.00    +0.530 C 
ATOM     22  O   LIG    1       -1.812   6.231   3.365  0.00  0.00    -0.690 OA
ATOM     23  O   LIG    1       -2.936   4.529   3.938  0.00  0.00    -0.690 OA
ENDBRANCH  18  21
ENDBRANCH   6  15
TORSDOF 3
