REMARK  Name = ZINCrg00001JduYs.0
REMARK                            x       y       z     vdW  Elec       q    Type
REMARK                         _______ _______ _______ _____ _____    ______ ____
ROOT
ATOM      1  C   LIG    1       -1.343   0.973  -1.311  0.00  0.00    +0.010 C 
ATOM      2  C   LIG    1       -1.432   2.479  -1.562  0.00  0.00    +0.030 C 
ATOM      3  C   LIG    1       -2.368   2.745  -2.742  0.00  0.00    +0.010 C 
ATOM      4  C   LIG    1       -1.823   2.052  -3.992  0.00  0.00    +0.230 C 
ATOM      5  C   LIG    1       -1.734   0.545  -3.741  0.00  0.00    +0.020 C 
ATOM      6  C   LIG    1       -0.798   0.279  -2.561  0.00  0.00    +0.030 C 
ENDROOT
BRANCH   4   7
ATOM      7  N   LIG    1       -2.719   2.307  -5.123  0.00  0.00    -0.730 N 
ATOM      8  H   LIG    1       -3.409   1.663  -5.349  0.00  0.00    +0.400 HD
ATOM      9  C   LIG    1       -2.585   3.434  -5.848  0.00  0.00    +0.510 C 
ATOM     10  O   LIG    1       -1.723   4.239  -5.565  0.00  0.00    -0.530 OA
BRANCH   9  11
ATOM     11  C   LIG    1       -3.507   3.696  -7.011  0.00  0.00    +0.080 C 
BRANCH  11  12
ATOM     12  C   LIG    1       -3.144   5.035  -7.658  0.00  0.00    +0.070 C 
ATOM     13  C   LIG    1       -3.795   6.234  -6.965  0.00  0.00    -0.330 C 
ATOM     14  S   LIG    1       -3.873   7.104  -8.556  0.00  0.00    +2.410 S 
ATOM     15  O   LIG    1       -5.114   7.765  -8.764  0.00  0.00    -0.930 OA
ATOM     16  O   LIG    1       -2.631   7.687  -8.925  0.00  0.00    -0.910 OA
ATOM     17  C   LIG    1       -3.953   5.330  -8.924  0.00  0.00    -0.330 C 
ENDBRANCH  11  12
ENDBRANCH   9  11
ENDBRANCH   4   7
BRANCH   1  18
ATOM     18  C   LIG    1       -0.407   0.707  -0.130  0.00  0.00    +0.040 C 
BRANCH  18  21
ATOM     19  N   LIG    1       -0.352   1.171   2.299  0.00  0.00    -0.720 N 
ATOM     20  H   LIG    1        0.504   0.715   2.335  0.00  0.00    +0.400 HD
ATOM     21  C   LIG    1       -1.006   1.286   1.126  0.00  0.00    +0.510 C 
ATOM     22  O   LIG    1       -2.076   1.855   1.081  0.00  0.00    -0.530 OA
BRANCH  19  23
ATOM     23  CA  LIG    1       -0.934   1.733   3.520  0.00  0.00    +0.260 C 
BRANCH  23  25
ATOM     24  C   LIG    1       -1.200  -0.618   4.323  0.00  0.00    +0.030 C 
ATOM     25  C   LIG    1       -1.909   0.725   4.132  0.00  0.00    -0.070 C 
ATOM     26  C   LIG    1       -3.106   0.541   3.198  0.00  0.00    +0.030 C 
ATOM     27  C   LIG    1       -2.394   1.242   5.487  0.00  0.00    +0.030 C 
ENDBRANCH  23  25
BRANCH  23  28
ATOM     28  C   LIG    1        0.180   2.038   4.523  0.00  0.00    +0.170 C 
BRANCH  28  29
ATOM     29  O   LIG    1        0.850   0.826   4.874  0.00  0.00    -0.560 OA
ATOM     30  H   LIG    1        1.571   0.944   5.508  0.00  0.00    +0.380 HD
ENDBRANCH  28  29
ENDBRANCH  23  28
ENDBRANCH  19  23
ENDBRANCH  18  21
ENDBRANCH   1  18
TORSDOF 9
