REMARK  Name = ZINCrg000000td0T.0
REMARK                            x       y       z     vdW  Elec       q    Type
REMARK                         _______ _______ _______ _____ _____    ______ ____
ROOT
ATOM      1  O   LIG    1       -2.679   2.696   0.005  0.00  0.00    -0.510 OA
ATOM      2  C   LIG    1       -2.905   1.626  -0.519  0.00  0.00    +0.520 C 
ATOM      3  N   LIG    1       -1.885   0.857  -0.948  0.00  0.00    -0.600 N 
ENDROOT
BRANCH   3   4
ATOM      4  C   LIG    1       -0.512   1.365  -0.895  0.00  0.00    +0.270 C 
BRANCH   4   5
ATOM      5  C   LIG    1        0.115   1.000   0.452  0.00  0.00    +0.300 C 
BRANCH   5   6
ATOM      6  C   LIG    1        1.528   1.522   0.506  0.00  0.00    -0.050 A 
ATOM      7  C   LIG    1        2.637   0.826   0.200  0.00  0.00    -0.050 A 
ATOM      8  C   LIG    1        3.734   1.698   0.389  0.00  0.00    -0.070 A 
ATOM      9  C   LIG    1        3.229   2.875   0.799  0.00  0.00    +0.180 A 
ATOM     10  O   LIG    1        1.892   2.765   0.863  0.00  0.00    -0.170 OA
ENDBRANCH   5   6
BRANCH   5  11
ATOM     11  O   LIG    1       -0.650   1.583   1.508  0.00  0.00    -0.540 OA
ATOM     12  H   LIG    1       -0.701   2.548   1.469  0.00  0.00    +0.390 HD
ENDBRANCH   5  11
ENDBRANCH   4   5
ENDBRANCH   3   4
BRANCH   3  13
ATOM     13  C   LIG    1       -2.149  -0.487  -1.467  0.00  0.00    +0.320 C 
BRANCH  13  14
ATOM     14  C   LIG    1       -2.262  -0.433  -2.969  0.00  0.00    -0.110 A 
ATOM     15  C   LIG    1       -3.507  -0.363  -3.567  0.00  0.00    +0.010 A 
ATOM     16  C   LIG    1       -3.610  -0.308  -4.944  0.00  0.00    +0.000 A 
ATOM     17  C   LIG    1       -2.470  -0.333  -5.724  0.00  0.00    +0.010 A 
ATOM     18  C   LIG    1       -1.225  -0.407  -5.127  0.00  0.00    +0.000 A 
ATOM     19  C   LIG    1       -1.121  -0.457  -3.750  0.00  0.00    +0.020 A 
ENDBRANCH  13  14
ENDBRANCH   3  13
BRANCH   2  20
ATOM     20  C   LIG    1       -4.327   1.156  -0.691  0.00  0.00    +0.220 C 
BRANCH  20  21
ATOM     21  N   LIG    1       -5.236   2.086  -0.007  0.00  0.00    -0.540 NA
ATOM     22  C   LIG    1       -4.999   2.083   1.439  0.00  0.00    +0.230 C 
ATOM     23  C   LIG    1       -5.631   3.326   2.073  0.00  0.00    -0.300 C 
ATOM     24  S   LIG    1       -7.429   3.261   1.814  0.00  0.00    +2.410 S 
ATOM     25  C   LIG    1       -7.513   2.999   0.017  0.00  0.00    -0.320 C 
ATOM     26  O   LIG    1       -7.945   2.109   2.467  0.00  0.00    -0.940 OA
ATOM     27  O   LIG    1       -7.979   4.537   2.114  0.00  0.00    -0.940 OA
ATOM     28  C   LIG    1       -6.632   1.799  -0.345  0.00  0.00    +0.230 C 
ENDBRANCH  20  21
ENDBRANCH   2  20
TORSDOF 8
