REMARK  Name = ZINCpk00000KfKLs.0
REMARK                            x       y       z     vdW  Elec       q    Type
REMARK                         _______ _______ _______ _____ _____    ______ ____
ROOT
ATOM      1  C   LIG    1       -1.238   3.617  -0.024  0.00  0.00    +0.480 C 
ATOM      2  N   LIG    1       -1.585   2.196  -0.005  0.00  0.00    -0.750 N 
ATOM      3  H   LIG    1       -2.515   1.922   0.036  0.00  0.00    +0.400 HD
ATOM      4  C   LIG    1       -0.603   1.265  -0.041  0.00  0.00    +0.570 C 
ATOM      5  C   LIG    1        0.792   1.751  -0.049  0.00  0.00    -0.180 A 
ATOM      6  C   LIG    1        1.846   0.929  -0.437  0.00  0.00    +0.090 A 
ATOM      7  C   LIG    1        3.133   1.427  -0.434  0.00  0.00    +0.000 A 
ATOM      8  C   LIG    1        3.376   2.736  -0.049  0.00  0.00    +0.040 A 
ATOM      9  C   LIG    1        2.339   3.560   0.340  0.00  0.00    +0.070 A 
ATOM     10  C   LIG    1        1.038   3.076   0.348  0.00  0.00    +0.120 A 
ATOM     11  O   LIG    1       -0.858   0.076  -0.070  0.00  0.00    -0.520 OA
ATOM     12  N   LIG    1       -0.020   3.878   0.746  0.00  0.00    -0.470 N 
ENDROOT
BRANCH   1  16
ATOM     13  C   LIG    1       -4.458   5.879   1.651  0.00  0.00    +0.110 A 
ATOM     14  C   LIG    1       -3.159   6.353   1.732  0.00  0.00    -0.030 A 
ATOM     15  C   LIG    1       -2.119   5.617   1.194  0.00  0.00    +0.060 A 
ATOM     16  C   LIG    1       -2.374   4.412   0.566  0.00  0.00    -0.110 A 
ATOM     17  C   LIG    1       -3.668   3.933   0.481  0.00  0.00    -0.020 A 
ATOM     18  C   LIG    1       -4.714   4.663   1.023  0.00  0.00    +0.110 A 
BRANCH  13  20
ATOM     19  C   LIG    1       -5.143   7.837   2.814  0.00  0.00    +0.240 C 
ATOM     20  O   LIG    1       -5.481   6.599   2.185  0.00  0.00    -0.300 OA
ENDBRANCH  13  20
BRANCH  18  21
ATOM     21  O   LIG    1       -5.987   4.194   0.941  0.00  0.00    -0.300 OA
ATOM     22  C   LIG    1       -6.175   2.940   0.282  0.00  0.00    +0.240 C 
ENDBRANCH  18  21
ENDBRANCH   1  16
BRANCH  12  23
ATOM     23  C   LIG    1       -0.269   3.744   2.187  0.00  0.00    +0.220 C 
BRANCH  23  24
ATOM     24  C   LIG    1        0.760   4.538   2.950  0.00  0.00    +0.520 C 
ATOM     25  O   LIG    1        1.545   5.245   2.354  0.00  0.00    -0.520 OA
ATOM     26  N   LIG    1        0.809   4.462   4.295  0.00  0.00    -0.860 N 
ATOM     27  H   LIG    1        1.471   4.973   4.786  0.00  0.00    +0.410 HD
ATOM     28  H   LIG    1        0.181   3.896   4.772  0.00  0.00    +0.400 HD
ENDBRANCH  23  24
ENDBRANCH  12  23
TORSDOF 5
