REMARK  Name = ZINCpk00000KfKlS.2
REMARK                            x       y       z     vdW  Elec       q    Type
REMARK                         _______ _______ _______ _____ _____    ______ ____
ROOT
ATOM      1  O   LIG    1        1.154   5.615   3.681  0.00  0.00    -0.520 OA
ATOM      2  C   LIG    1        1.135   6.227   2.634  0.00  0.00    +0.510 C 
ATOM      3  N   LIG    1        1.134   5.560   1.464  0.00  0.00    -0.740 N 
ATOM      4  H   LIG    1        1.119   6.049   0.626  0.00  0.00    +0.400 HD
ENDROOT
BRANCH   3   5
ATOM      5  C   LIG    1        1.155   4.095   1.456  0.00  0.00    +0.270 C 
BRANCH   5   6
ATOM      6  C   LIG    1        1.149   3.593   0.010  0.00  0.00    +0.070 C 
BRANCH   6   7
ATOM      7  C   LIG    1        1.171   2.086   0.002  0.00  0.00    -0.100 A 
ATOM      8  C   LIG    1       -0.017   1.378   0.010  0.00  0.00    +0.050 A 
ATOM      9  C   LIG    1        0.002  -0.004   0.002  0.00  0.00    -0.010 A 
ATOM     10  C   LIG    1        1.211  -0.679  -0.013  0.00  0.00    +0.100 A 
ATOM     11  C   LIG    1        2.399   0.031  -0.021  0.00  0.00    -0.010 A 
ATOM     12  F   LIG    1        1.230  -2.030  -0.021  0.00  0.00    -0.140 F 
ATOM     13  C   LIG    1        2.378   1.413  -0.013  0.00  0.00    +0.050 A 
ENDBRANCH   6   7
ENDBRANCH   5   6
ENDBRANCH   3   5
BRANCH   2  14
ATOM     14  C   LIG    1        1.114   7.734   2.643  0.00  0.00    +0.210 C 
BRANCH  14  15
ATOM     15  N   LIG    1        1.120   8.216   4.030  0.00  0.00    -0.520 NA
ATOM     16  C   LIG    1       -0.119   7.840   4.724  0.00  0.00    +0.170 C 
ATOM     17  C   LIG    1       -0.017   8.229   6.200  0.00  0.00    +0.030 C 
ATOM     18  C   LIG    1        0.213   9.739   6.311  0.00  0.00    +0.030 C 
ATOM     19  C   LIG    1        1.483  10.111   5.540  0.00  0.00    +0.000 C 
ATOM     20  C   LIG    1        1.337   9.668   4.082  0.00  0.00    +0.180 C 
BRANCH  19  21
ATOM     21  C   LIG    1        1.689  11.626   5.594  0.00  0.00    +0.320 C 
BRANCH  21  22
ATOM     22  N   LIG    1        1.947  12.034   6.977  0.00  0.00    -0.380 N 
ATOM     23  C   LIG    1        3.003  12.734   7.427  0.00  0.00    +0.470 A 
ATOM     24  N   LIG    1        2.864  12.894   8.718  0.00  0.00    -0.550 NA
ATOM     25  C   LIG    1        1.736  12.314   9.127  0.00  0.00    +0.420 A 
ATOM     26  N   LIG    1        1.137  11.778   8.096  0.00  0.00    -0.310 NA
ENDBRANCH  21  22
ENDBRANCH  19  21
ENDBRANCH  14  15
ENDBRANCH   2  14
TORSDOF 7
