REMARK  Name = ZINCpk000000oxlQ.0
REMARK                            x       y       z     vdW  Elec       q    Type
REMARK                         _______ _______ _______ _____ _____    ______ ____
ROOT
ATOM      1  C   LIG    1       -4.097   2.661   4.082  0.00  0.00    -0.220 A 
ATOM      2  C   LIG    1       -3.564   1.474   3.570  0.00  0.00    +0.410 A 
ATOM      3  N   LIG    1       -2.312   1.135   3.790  0.00  0.00    -0.510 NA
ATOM      4  C   LIG    1       -1.499   1.897   4.505  0.00  0.00    +0.420 A 
ATOM      5  C   LIG    1       -1.962   3.109   5.056  0.00  0.00    -0.250 A 
ATOM      6  C   LIG    1       -1.025   3.923   5.850  0.00  0.00    +0.570 A 
ATOM      7  N   LIG    1        0.239   3.472   6.003  0.00  0.00    -0.560 N 
ATOM      8  C   LIG    1        0.631   2.310   5.457  0.00  0.00    +0.710 A 
ATOM      9  O   LIG    1        1.778   1.947   5.628  0.00  0.00    -0.520 OA
ATOM     10  C   LIG    1        1.196   4.261   6.783  0.00  0.00    +0.360 C 
ATOM     11  O   LIG    1       -1.379   4.973   6.350  0.00  0.00    -0.480 OA
ATOM     12  N   LIG    1       -0.186   1.531   4.730  0.00  0.00    -0.530 N 
ATOM     13  C   LIG    1        0.321   0.277   4.169  0.00  0.00    +0.340 C 
ATOM     14  C   LIG    1       -3.279   3.502   4.846  0.00  0.00    +0.220 A 
ENDROOT
BRANCH   1  16
ATOM     15  N   LIG    1       -6.280   3.479   4.826  0.00  0.00    -0.600 N 
ATOM     16  C   LIG    1       -5.505   3.022   3.823  0.00  0.00    +0.570 C 
ATOM     17  O   LIG    1       -5.966   2.907   2.703  0.00  0.00    -0.520 OA
BRANCH  15  18
ATOM     18  C   LIG    1       -7.707   3.719   4.599  0.00  0.00    +0.240 C 
ATOM     19  C   LIG    1       -8.383   2.413   4.176  0.00  0.00    -0.000 C 
ATOM     20  C   LIG    1       -9.873   2.664   3.939  0.00  0.00    +0.020 C 
ATOM     21  C   LIG    1      -10.046   3.708   2.834  0.00  0.00    +0.010 C 
ATOM     22  C   LIG    1       -9.370   5.014   3.257  0.00  0.00    +0.010 C 
ATOM     23  C   LIG    1       -7.879   4.764   3.494  0.00  0.00    +0.010 C 
ENDBRANCH  15  18
BRANCH  15  25
ATOM     24  C   LIG    1       -5.371   5.225   6.277  0.00  0.00    +0.030 C 
ATOM     25  C   LIG    1       -5.695   3.736   6.145  0.00  0.00    +0.260 C 
ENDBRANCH  15  25
ENDBRANCH   1  16
TORSDOF 3
