REMARK  Name = ZINCpe00000VVycB.0
REMARK                            x       y       z     vdW  Elec       q    Type
REMARK                         _______ _______ _______ _____ _____    ______ ____
ROOT
ATOM      1  C   LIG    1        1.207   4.069   1.427  0.00  0.00    +0.500 C 
ATOM      2  N   LIG    1        1.259   5.391   1.683  0.00  0.00    -0.600 N 
ATOM      3  C   LIG    1        1.387   6.361   0.587  0.00  0.00    +0.300 C 
ATOM      4  C   LIG    1        0.255   7.392   0.712  0.00  0.00    -0.020 C 
ATOM      5  C   LIG    1        0.292   8.015   2.109  0.00  0.00    +0.060 C 
ATOM      6  C   LIG    1        0.070   6.926   3.161  0.00  0.00    +0.020 C 
ATOM      7  C   LIG    1        1.194   5.890   3.063  0.00  0.00    +0.220 C 
ATOM      8  C   LIG    1        0.904   4.728   4.015  0.00  0.00    +0.050 C 
ATOM      9  O   LIG    1        1.212   3.274   2.343  0.00  0.00    -0.510 OA
ENDROOT
BRANCH   4  10
ATOM     10  C   LIG    1        0.442   8.470  -0.325  0.00  0.00    +0.520 C 
ATOM     11  O   LIG    1        0.591   9.624   0.020  0.00  0.00    -0.530 OA
ATOM     12  N   LIG    1        0.445   8.153  -1.635  0.00  0.00    -0.860 N 
ATOM     13  H   LIG    1        0.565   8.847  -2.301  0.00  0.00    +0.410 HD
ATOM     14  H   LIG    1        0.326   7.231  -1.910  0.00  0.00    +0.400 HD
ENDBRANCH   4  10
BRANCH   1  15
ATOM     15  C   LIG    1        1.143   3.579   0.004  0.00  0.00    +0.330 C 
BRANCH  15  24
ATOM     16  C   LIG    1        2.529  -2.753  -0.097  0.00  0.00    +0.110 C 
ATOM     17  C   LIG    1        1.204  -2.037  -0.046  0.00  0.00    -0.070 A 
ATOM     18  C   LIG    1        0.030  -2.756  -0.012  0.00  0.00    +0.060 A 
ATOM     19  C   LIG    1       -1.198  -2.110   0.034  0.00  0.00    +0.000 A 
ATOM     20  C   LIG    1       -1.266  -0.734   0.049  0.00  0.00    +0.090 A 
ATOM     21  C   LIG    1       -0.090   0.012   0.015  0.00  0.00    -0.190 A 
ATOM     22  C   LIG    1       -0.101   1.482   0.028  0.00  0.00    +0.560 A 
ATOM     23  O   LIG    1       -1.145   2.107   0.064  0.00  0.00    -0.510 OA
ATOM     24  N   LIG    1        1.096   2.115  -0.007  0.00  0.00    -0.530 N 
ATOM     25  C   LIG    1        2.252   1.404  -0.052  0.00  0.00    +0.580 A 
ATOM     26  N   LIG    1        2.293   0.106  -0.065  0.00  0.00    -0.510 NA
ATOM     27  C   LIG    1        1.161  -0.641  -0.033  0.00  0.00    +0.150 A 
ENDBRANCH  15  24
ENDBRANCH   1  15
TORSDOF 3
