REMARK  Name = ZINCfA000000baP4.0
REMARK                            x       y       z     vdW  Elec       q    Type
REMARK                         _______ _______ _______ _____ _____    ______ ____
ROOT
ATOM      1  N   LIG    1       -0.146   1.959   1.114  0.00  0.00    -0.380 N 
ATOM      2  C   LIG    1        0.601   1.683  -0.121  0.00  0.00    +0.330 C 
ATOM      3  H   LIG    1       -0.986   1.400   1.131  0.00  0.00    +0.420 HD
ENDROOT
BRANCH   1   4
ATOM      4  C   LIG    1        0.688   1.625   2.276  0.00  0.00    +0.230 C 
ATOM      5  C   LIG    1        1.061   0.142   2.227  0.00  0.00    +0.100 C 
BRANCH   4   6
ATOM      6  C   LIG    1       -0.078   1.909   3.542  0.00  0.00    -0.090 A 
ATOM      7  C   LIG    1       -1.430   1.614   3.635  0.00  0.00    -0.050 A 
ATOM      8  C   LIG    1       -2.099   1.883   4.814  0.00  0.00    +0.290 A 
ATOM      9  N   LIG    1       -1.468   2.423   5.839  0.00  0.00    -0.460 NA
ATOM     10  C   LIG    1       -0.185   2.722   5.785  0.00  0.00    +0.290 A 
ATOM     11  C   LIG    1        0.550   2.476   4.640  0.00  0.00    +0.000 A 
ENDBRANCH   4   6
ENDBRANCH   1   4
BRANCH   1  12
ATOM     12  C   LIG    1       -0.504   3.383   1.161  0.00  0.00    +0.290 C 
BRANCH  12  15
ATOM     13  C   LIG    1       -2.933   4.709   1.701  0.00  0.00    +0.090 C 
ATOM     14  C   LIG    1       -2.612   4.263   0.298  0.00  0.00    -0.030 C 
ATOM     15  C   LIG    1       -1.459   3.698   0.038  0.00  0.00    -0.120 C 
ATOM     16  C   LIG    1       -3.616   4.468  -0.806  0.00  0.00    +0.110 C 
ENDBRANCH  12  15
ENDBRANCH   1  12
TORSDOF 4
