REMARK  Name = ZINCfA000000baP4.1
REMARK                            x       y       z     vdW  Elec       q    Type
REMARK                         _______ _______ _______ _____ _____    ______ ____
ROOT
ATOM      1  N   LIG    1       -2.112   4.067  -1.132  0.00  0.00    -0.380 N 
ATOM      2  C   LIG    1       -1.634   3.590  -2.437  0.00  0.00    +0.320 C 
ATOM      3  H   LIG    1       -3.020   3.670  -0.941  0.00  0.00    +0.420 HD
ENDROOT
BRANCH   1   4
ATOM      4  C   LIG    1       -2.212   5.532  -1.154  0.00  0.00    +0.230 C 
ATOM      5  C   LIG    1       -2.711   6.029   0.205  0.00  0.00    +0.100 C 
BRANCH   4   6
ATOM      6  C   LIG    1       -3.181   5.954  -2.228  0.00  0.00    -0.090 A 
ATOM      7  C   LIG    1       -4.350   5.241  -2.450  0.00  0.00    -0.050 A 
ATOM      8  C   LIG    1       -5.216   5.660  -3.442  0.00  0.00    +0.290 A 
ATOM      9  N   LIG    1       -4.937   6.717  -4.179  0.00  0.00    -0.460 NA
ATOM     10  C   LIG    1       -3.833   7.415  -4.000  0.00  0.00    +0.290 A 
ATOM     11  C   LIG    1       -2.921   7.059  -3.024  0.00  0.00    +0.000 A 
ENDBRANCH   4   6
ENDBRANCH   1   4
BRANCH   1  12
ATOM     12  C   LIG    1       -1.168   3.656  -0.085  0.00  0.00    +0.300 C 
BRANCH  12  15
ATOM     13  C   LIG    1       -0.028  -0.009  -0.096  0.00  0.00    +0.100 C 
ATOM     14  C   LIG    1       -0.026   1.497  -0.077  0.00  0.00    -0.030 C 
ATOM     15  C   LIG    1       -1.157   2.152   0.020  0.00  0.00    -0.120 C 
ATOM     16  C   LIG    1        1.275   2.251  -0.175  0.00  0.00    +0.090 C 
ENDBRANCH  12  15
ENDBRANCH   1  12
TORSDOF 4
