REMARK  Name = ZINCqH00000013tQ.0
REMARK                            x       y       z     vdW  Elec       q    Type
REMARK                         _______ _______ _______ _____ _____    ______ ____
ROOT
ATOM      1  C   LIG    1       -0.487   2.153   1.323  0.00  0.00    +0.520 C 
ATOM      2  N   LIG    1       -0.704   3.467   1.531  0.00  0.00    -0.670 N 
ATOM      3  H   LIG    1       -0.316   4.123   0.931  0.00  0.00    +0.410 HD
ATOM      4  O   LIG    1       -0.904   1.336   2.118  0.00  0.00    -0.520 OA
ENDROOT
BRANCH   2   5
ATOM      5  C   LIG    1       -1.490   3.885   2.613  0.00  0.00    +0.100 A 
ATOM      6  C   LIG    1       -2.308   5.000   2.487  0.00  0.00    +0.030 A 
ATOM      7  C   LIG    1       -3.086   5.408   3.552  0.00  0.00    +0.010 A 
ATOM      8  C   LIG    1       -3.043   4.711   4.751  0.00  0.00    +0.120 A 
ATOM      9  C   LIG    1       -2.222   3.600   4.879  0.00  0.00    -0.060 A 
ATOM     10  C   LIG    1       -1.447   3.188   3.813  0.00  0.00    +0.060 A 
BRANCH   8  11
ATOM     11  O   LIG    1       -3.806   5.117   5.801  0.00  0.00    -0.300 OA
BRANCH  11  12
ATOM     12  C   LIG    1       -3.659   4.397   7.026  0.00  0.00    +0.140 C 
ATOM     13  C   LIG    1       -4.915   4.567   7.909  0.00  0.00    +0.030 C 
ATOM     14  C   LIG    1       -4.386   5.254   9.187  0.00  0.00    +0.210 C 
ATOM     15  O   LIG    1       -3.176   5.924   8.772  0.00  0.00    -0.370 OA
ATOM     16  C   LIG    1       -2.519   5.001   7.876  0.00  0.00    +0.190 C 
ENDBRANCH  11  12
ENDBRANCH   8  11
ENDBRANCH   2   5
BRANCH   1  17
ATOM     17  C   LIG    1        0.272   1.698   0.104  0.00  0.00    +0.070 C 
BRANCH  17  18
ATOM     18  C   LIG    1        0.377   0.171   0.108  0.00  0.00    +0.210 C 
BRANCH  18  22
ATOM     19  C   LIG    1        1.596  -0.949  -3.126  0.00  0.00    -0.030 A 
ATOM     20  C   LIG    1        2.739  -0.862  -2.425  0.00  0.00    +0.140 A 
ATOM     21  N   LIG    1        2.426  -0.450  -1.184  0.00  0.00    -0.470 NA
ATOM     22  C   LIG    1        1.136  -0.284  -1.111  0.00  0.00    +0.180 A 
ATOM     23  O   LIG    1        0.595  -0.591  -2.298  0.00  0.00    -0.190 OA
BRANCH  19  25
ATOM     24  C   LIG    1        1.994  -2.795  -4.732  0.00  0.00    +0.050 C 
ATOM     25  C   LIG    1        1.459  -1.372  -4.566  0.00  0.00    +0.020 C 
ATOM     26  C   LIG    1        2.258  -0.418  -5.456  0.00  0.00    +0.050 C 
ATOM     27  C   LIG    1       -0.016  -1.332  -4.971  0.00  0.00    +0.040 C 
ENDBRANCH  19  25
ENDBRANCH  18  22
ENDBRANCH  17  18
ENDBRANCH   1  17
TORSDOF 7
