REMARK  Name = ZINCrg00001Jdv3b.0
REMARK                            x       y       z     vdW  Elec       q    Type
REMARK                         _______ _______ _______ _____ _____    ______ ____
ROOT
ATOM      1  C   LIG    1       -1.033  -5.620  -1.353  0.00  0.00    +0.170 C 
ATOM      2  C   LIG    1        0.402  -5.027  -1.357  0.00  0.00    +0.040 C 
ATOM      3  C   LIG    1        0.442  -4.363   0.028  0.00  0.00    -0.110 C 
ATOM      4  C   LIG    1       -0.439  -5.261   0.896  0.00  0.00    +0.230 C 
ATOM      5  C   LIG    1        1.877  -4.268   0.566  0.00  0.00    +0.070 C 
ATOM      6  C   LIG    1        2.342  -2.915  -0.043  0.00  0.00    +0.290 C 
ATOM      7  N   LIG    1        1.141  -2.057  -0.020  0.00  0.00    -0.580 N 
ATOM      8  C   LIG    1       -0.055  -2.919  -0.014  0.00  0.00    +0.290 C 
ATOM      9  O   LIG    1       -1.274  -6.020   0.007  0.00  0.00    -0.360 OA
ENDROOT
BRANCH   7  10
ATOM     10  C   LIG    1        1.139  -0.672  -0.013  0.00  0.00    +0.510 A 
ATOM     11  N   LIG    1        0.002  -0.004   0.002  0.00  0.00    -0.560 NA
ATOM     12  C   LIG    1       -0.016   1.333   0.009  0.00  0.00    +0.300 A 
ATOM     13  C   LIG    1        1.113   2.062   0.003  0.00  0.00    +0.080 A 
ATOM     14  N   LIG    1        2.340   1.448  -0.013  0.00  0.00    -0.330 N 
ATOM     15  C   LIG    1        3.608   1.909  -0.022  0.00  0.00    +0.240 A 
ATOM     16  C   LIG    1        4.437   0.807  -0.035  0.00  0.00    -0.010 A 
ATOM     17  N   LIG    1        3.662  -0.293  -0.034  0.00  0.00    -0.410 NA
ATOM     18  C   LIG    1        2.398   0.075  -0.021  0.00  0.00    +0.140 A 
BRANCH  16  19
ATOM     19  C   LIG    1        5.912   0.829  -0.049  0.00  0.00    +0.560 C 
ATOM     20  O   LIG    1        6.503   1.891  -0.048  0.00  0.00    -0.500 OA
BRANCH  19  21
ATOM     21  O   LIG    1        6.603  -0.327  -0.062  0.00  0.00    -0.340 OA
ATOM     22  C   LIG    1        8.052  -0.229  -0.075  0.00  0.00    +0.290 C 
ENDBRANCH  19  21
ENDBRANCH  16  19
ENDBRANCH   7  10
BRANCH   1  23
ATOM     23  C   LIG    1       -1.111  -6.831  -2.284  0.00  0.00    +0.120 C 
BRANCH  23  24
ATOM     24  C   LIG    1       -2.524  -7.355  -2.309  0.00  0.00    +0.460 C 
ATOM     25  O   LIG    1       -3.381  -6.814  -1.651  0.00  0.00    -0.490 OA
BRANCH  24  27
ATOM     26  C   LIG    1       -4.212  -8.871  -3.040  0.00  0.00    +0.260 C 
ATOM     27  O   LIG    1       -2.831  -8.422  -3.064  0.00  0.00    -0.360 OA
ENDBRANCH  24  27
ENDBRANCH  23  24
ENDBRANCH   1  23
TORSDOF 6
