REMARK  Name = ZINCpe000000ZCie.0
REMARK                            x       y       z     vdW  Elec       q    Type
REMARK                         _______ _______ _______ _____ _____    ______ ____
ROOT
ATOM      1  C   LIG    1       -6.155   1.305   0.164  0.00  0.00    +0.310 C 
ENDROOT
BRANCH   1  14
ATOM      2  O   LIG    1       -7.610   0.016  -1.914  0.00  0.00    -0.530 OA
ATOM      3  C   LIG    1       -7.804  -0.300  -0.756  0.00  0.00    +0.710 C 
ATOM      4  N   LIG    1       -8.681  -1.249  -0.376  0.00  0.00    -0.720 N 
ATOM      5  H   LIG    1       -9.250  -1.780  -0.955  0.00  0.00    +0.440 HD
ATOM      6  C   LIG    1       -8.611  -1.314   1.089  0.00  0.00    +0.120 C 
ATOM      7  C   LIG    1       -7.574  -0.279   1.455  0.00  0.00    +0.530 C 
ATOM      8  O   LIG    1       -7.188   0.013   2.567  0.00  0.00    -0.460 OA
ATOM      9  C   LIG    1       -9.960  -0.961   1.706  0.00  0.00    +0.040 C 
ATOM     10  C   LIG    1      -10.977  -2.052   1.355  0.00  0.00    +0.220 C 
ATOM     11  O   LIG    1      -10.488  -3.317   1.804  0.00  0.00    -0.370 OA
ATOM     12  C   LIG    1       -9.258  -3.719   1.197  0.00  0.00    +0.220 C 
ATOM     13  C   LIG    1       -8.166  -2.702   1.542  0.00  0.00    +0.040 C 
ATOM     14  N   LIG    1       -7.166   0.252   0.283  0.00  0.00    -0.570 N 
ENDBRANCH   1  14
BRANCH   1  15
ATOM     15  C   LIG    1       -4.770   0.670   0.028  0.00  0.00    +0.210 C 
BRANCH  15  16
ATOM     16  O   LIG    1       -4.699  -0.061  -1.197  0.00  0.00    -0.540 OA
ATOM     17  H   LIG    1       -4.844   0.478  -1.986  0.00  0.00    +0.380 HD
ENDBRANCH  15  16
BRANCH  15  18
ATOM     18  C   LIG    1       -3.704   1.768   0.029  0.00  0.00    +0.160 C 
BRANCH  18  19
ATOM     19  O   LIG    1       -2.405   1.171   0.020  0.00  0.00    -0.370 OA
BRANCH  19  20
ATOM     20  C   LIG    1       -1.332   2.114   0.020  0.00  0.00    +0.250 C 
BRANCH  20  21
ATOM     21  C   LIG    1       -0.017   1.377   0.010  0.00  0.00    -0.130 A 
ATOM     22  C   LIG    1        0.002  -0.004   0.002  0.00  0.00    +0.070 A 
ATOM     23  C   LIG    1        1.208  -0.680  -0.014  0.00  0.00    +0.000 A 
ATOM     24  C   LIG    1        2.397   0.026  -0.021  0.00  0.00    +0.040 A 
ATOM     25  C   LIG    1        2.381   1.408  -0.013  0.00  0.00    -0.010 A 
ATOM     26  C   LIG    1        1.173   2.086   0.002  0.00  0.00    +0.100 A 
ATOM     27  F   LIG    1        1.156   3.437   0.009  0.00  0.00    -0.140 F 
ENDBRANCH  20  21
ENDBRANCH  19  20
ENDBRANCH  18  19
ENDBRANCH  15  18
ENDBRANCH   1  15
TORSDOF 7
