REMARK  Name = ZINCrH00000tj11K.0
REMARK                            x       y       z     vdW  Elec       q    Type
REMARK                         _______ _______ _______ _____ _____    ______ ____
ROOT
ATOM      1  C   LIG    1        5.271   0.493   1.383  0.00  0.00    +0.050 C 
ATOM      2  C   LIG    1        4.888   0.120  -0.051  0.00  0.00    +0.250 C 
ENDROOT
BRANCH   2   3
ATOM      3  C   LIG    1        5.978  -0.723  -0.659  0.00  0.00    +0.510 C 
ATOM      4  N   LIG    1        7.227  -0.229  -0.774  0.00  0.00    -0.670 N 
ATOM      5  H   LIG    1        7.409   0.691  -0.528  0.00  0.00    +0.420 HD
ATOM      6  O   LIG    1        5.733  -1.846  -1.045  0.00  0.00    -0.500 OA
BRANCH   4   7
ATOM      7  C   LIG    1        8.261  -1.044  -1.249  0.00  0.00    +0.180 A 
ATOM      8  C   LIG    1        9.547  -0.898  -0.747  0.00  0.00    +0.000 A 
ATOM      9  C   LIG    1       10.565  -1.708  -1.213  0.00  0.00    +0.090 A 
ATOM     10  C   LIG    1       10.305  -2.655  -2.187  0.00  0.00    -0.200 A 
ATOM     11  C   LIG    1        9.026  -2.798  -2.693  0.00  0.00    +0.090 A 
ATOM     12  C   LIG    1        8.004  -1.996  -2.227  0.00  0.00    +0.030 A 
BRANCH  10  13
ATOM     13  C   LIG    1       11.419  -3.532  -2.699  0.00  0.00    +0.510 C 
ATOM     14  F   LIG    1       10.895  -4.768  -3.094  0.00  0.00    -0.180 F 
ATOM     15  F   LIG    1       12.361  -3.729  -1.683  0.00  0.00    -0.180 F 
ATOM     16  F   LIG    1       12.034  -2.915  -3.793  0.00  0.00    -0.180 F 
ENDBRANCH  10  13
ENDBRANCH   4   7
ENDBRANCH   2   3
BRANCH   2  17
ATOM     17  N   LIG    1        3.634  -0.638  -0.039  0.00  0.00    -0.730 N 
ATOM     18  H   LIG    1        3.653  -1.608  -0.038  0.00  0.00    +0.410 HD
BRANCH  17  19
ATOM     19  C   LIG    1        2.408   0.038  -0.030  0.00  0.00    +0.240 A 
ATOM     20  C   LIG    1        2.377   1.423  -0.032  0.00  0.00    -0.050 A 
ATOM     21  C   LIG    1        1.165   2.089  -0.023  0.00  0.00    +0.060 A 
ATOM     22  C   LIG    1       -0.019   1.377  -0.012  0.00  0.00    -0.040 A 
ATOM     23  C   LIG    1        0.001  -0.006  -0.010  0.00  0.00    +0.030 A 
ATOM     24  C   LIG    1        1.212  -0.682  -0.019  0.00  0.00    -0.170 A 
BRANCH  24  25
ATOM     25  S   LIG    1        1.241  -2.444  -0.017  0.00  0.00    -0.040 S 
BRANCH  25  26
ATOM     26  C   LIG    1       -0.519  -2.881  -0.002  0.00  0.00    +0.090 C 
BRANCH  26  27
ATOM     27  C   LIG    1       -0.665  -4.381   0.001  0.00  0.00    +0.540 C 
ATOM     28  O   LIG    1        0.322  -5.086  -0.006  0.00  0.00    -0.520 OA
ATOM     29  N   LIG    1       -1.891  -4.939   0.011  0.00  0.00    -0.850 N 
ATOM     30  H   LIG    1       -1.985  -5.905   0.014  0.00  0.00    +0.410 HD
ATOM     31  H   LIG    1       -2.681  -4.376   0.017  0.00  0.00    +0.400 HD
ENDBRANCH  26  27
ENDBRANCH  25  26
ENDBRANCH  24  25
ENDBRANCH  17  19
ENDBRANCH   2  17
TORSDOF 8
