REMARK  Name = ZINCpk000000of8m.0
REMARK                            x       y       z     vdW  Elec       q    Type
REMARK                         _______ _______ _______ _____ _____    ______ ____
ROOT
ATOM      1  N   LIG    1        0.002  -0.004   0.002  0.00  0.00    -0.520 NA
ATOM      2  C   LIG    1       -0.018   1.465   0.010  0.00  0.00    +0.190 C 
ATOM      3  C   LIG    1        1.419   1.992  -0.001  0.00  0.00    +0.190 C 
ATOM      4  N   LIG    1        2.138   1.472   1.171  0.00  0.00    -0.540 NA
ATOM      5  C   LIG    1        2.158   0.003   1.162  0.00  0.00    +0.190 C 
ATOM      6  C   LIG    1        0.721  -0.525   1.173  0.00  0.00    +0.190 C 
ENDROOT
BRANCH   1   7
ATOM      7  C   LIG    1       -1.361  -0.549  -0.064  0.00  0.00    +0.220 C 
BRANCH   7  10
ATOM      8  N   LIG    1       -2.434  -2.749  -0.417  0.00  0.00    -0.740 N 
ATOM      9  H   LIG    1       -3.294  -2.309  -0.326  0.00  0.00    +0.400 HD
ATOM     10  C   LIG    1       -1.297  -2.033  -0.317  0.00  0.00    +0.510 C 
ATOM     11  O   LIG    1       -0.222  -2.583  -0.431  0.00  0.00    -0.520 OA
BRANCH   8  12
ATOM     12  C   LIG    1       -2.372  -4.192  -0.663  0.00  0.00    +0.260 C 
BRANCH  12  13
ATOM     13  C   LIG    1       -3.791  -4.759  -0.732  0.00  0.00    +0.010 C 
BRANCH  13  15
ATOM     14  C   LIG    1       -5.146  -6.833  -1.058  0.00  0.00    +0.010 C 
ATOM     15  C   LIG    1       -3.726  -6.266  -0.989  0.00  0.00    +0.020 C 
ENDBRANCH  13  15
ENDBRANCH  12  13
ENDBRANCH   8  12
ENDBRANCH   7  10
ENDBRANCH   1   7
BRANCH   4  16
ATOM     16  C   LIG    1        3.501   2.017   1.237  0.00  0.00    +0.300 C 
BRANCH  16  17
ATOM     17  C   LIG    1        3.437   3.501   1.490  0.00  0.00    +0.040 A 
ATOM     18  C   LIG    1        3.419   4.092   2.705  0.00  0.00    -0.040 A 
ATOM     19  C   LIG    1        3.359   5.477   2.490  0.00  0.00    -0.060 A 
ATOM     20  C   LIG    1        3.335   5.664   1.137  0.00  0.00    -0.080 A 
ATOM     21  C   LIG    1        3.323   6.551   3.547  0.00  0.00    +0.140 C 
ATOM     22  O   LIG    1        3.382   4.451   0.548  0.00  0.00    -0.150 OA
BRANCH  20  23
ATOM     23  C   LIG    1        3.268   6.954   0.447  0.00  0.00    +0.550 C 
ATOM     24  O   LIG    1        3.228   7.986   1.090  0.00  0.00    -0.480 OA
BRANCH  23  25
ATOM     25  O   LIG    1        3.250   6.998  -0.901  0.00  0.00    -0.350 OA
ATOM     26  C   LIG    1        3.183   8.311  -1.517  0.00  0.00    +0.290 C 
ENDBRANCH  23  25
ENDBRANCH  20  23
ENDBRANCH  16  17
ENDBRANCH   4  16
TORSDOF 9
