REMARK  Name = ZINCvU0000000IcC.0
REMARK                            x       y       z     vdW  Elec       q    Type
REMARK                         _______ _______ _______ _____ _____    ______ ____
ROOT
ATOM      1  C   LIG    1        4.639   4.389   0.866  0.00  0.00    +0.160 A 
ATOM      2  N   LIG    1        4.780   5.359  -0.025  0.00  0.00    -0.490 NA
ATOM      3  C   LIG    1        3.831   5.658  -0.892  0.00  0.00    +0.210 A 
ATOM      4  C   LIG    1        2.635   4.971  -0.914  0.00  0.00    -0.020 A 
ATOM      5  C   LIG    1        2.423   3.936   0.001  0.00  0.00    +0.080 A 
ATOM      6  C   LIG    1        3.450   3.640   0.920  0.00  0.00    -0.060 A 
ENDROOT
BRANCH   5   7
ATOM      7  C   LIG    1        1.152   3.175   0.008  0.00  0.00    -0.120 A 
ATOM      8  C   LIG    1        1.172   1.780   0.000  0.00  0.00    +0.080 A 
ATOM      9  C   LIG    1       -0.013   1.076   0.008  0.00  0.00    -0.010 A 
ATOM     10  C   LIG    1       -1.225   1.753   0.017  0.00  0.00    +0.150 A 
ATOM     11  C   LIG    1       -1.249   3.142   0.031  0.00  0.00    -0.070 A 
ATOM     12  C   LIG    1       -0.068   3.853   0.023  0.00  0.00    +0.080 A 
BRANCH  10  13
ATOM     13  O   LIG    1       -2.391   1.056   0.019  0.00  0.00    -0.310 OA
ATOM     14  C   LIG    1       -3.601   1.815   0.029  0.00  0.00    +0.240 C 
ENDBRANCH  10  13
ENDBRANCH   5   7
BRANCH   3  15
ATOM     15  C   LIG    1        4.059   6.774  -1.879  0.00  0.00    +0.010 C 
ATOM     16  C   LIG    1        3.130   6.844  -3.093  0.00  0.00    +0.040 C 
ATOM     17  C   LIG    1        4.582   6.394  -3.266  0.00  0.00    +0.040 C 
ENDBRANCH   3  15
BRANCH   6  18
ATOM     18  C   LIG    1        3.289   2.594   1.885  0.00  0.00    +0.250 C 
ATOM     19  N   LIG    1        3.161   1.765   2.651  0.00  0.00    -0.380 NA
ENDBRANCH   6  18
BRANCH   1  20
ATOM     20  S   LIG    1        5.945   4.041   1.996  0.00  0.00    +0.020 S 
BRANCH  20  21
ATOM     21  C   LIG    1        7.155   5.280   1.469  0.00  0.00    +0.090 C 
BRANCH  21  22
ATOM     22  C   LIG    1        8.393   5.168   2.321  0.00  0.00    +0.420 C 
ATOM     23  O   LIG    1        8.452   4.331   3.197  0.00  0.00    -0.440 OA
BRANCH  22  27
ATOM     24  C   LIG    1       11.667   7.770   1.653  0.00  0.00    +0.170 A 
ATOM     25  C   LIG    1       11.737   6.813   2.659  0.00  0.00    -0.030 A 
ATOM     26  C   LIG    1       10.680   5.968   2.879  0.00  0.00    +0.130 A 
ATOM     27  C   LIG    1        9.528   6.070   2.089  0.00  0.00    -0.210 A 
ATOM     28  C   LIG    1        9.464   7.033   1.074  0.00  0.00    +0.110 A 
ATOM     29  C   LIG    1       10.525   7.877   0.866  0.00  0.00    -0.080 A 
BRANCH  24  31
ATOM     30  C   LIG    1       12.577   9.564   0.389  0.00  0.00    +0.240 C 
ATOM     31  O   LIG    1       12.716   8.604   1.438  0.00  0.00    -0.310 OA
ENDBRANCH  24  31
ENDBRANCH  22  27
ENDBRANCH  21  22
ENDBRANCH  20  21
ENDBRANCH   1  20
TORSDOF 9
