REMARK  Name = ZINCvU0000000Es4.0
REMARK                            x       y       z     vdW  Elec       q    Type
REMARK                         _______ _______ _______ _____ _____    ______ ____
ROOT
ATOM      1  O   LIG    1       -0.499  -0.210   1.518  0.00  0.00    -0.510 OA
ATOM      2  C   LIG    1        0.295   0.241   0.719  0.00  0.00    +0.510 C 
ATOM      3  N   LIG    1       -0.016   1.343   0.009  0.00  0.00    -0.670 N 
ATOM      4  H   LIG    1        0.645   1.747  -0.574  0.00  0.00    +0.410 HD
ENDROOT
BRANCH   3   5
ATOM      5  C   LIG    1       -1.294   1.902   0.110  0.00  0.00    +0.160 A 
ATOM      6  C   LIG    1       -2.377   1.098   0.445  0.00  0.00    +0.020 A 
ATOM      7  C   LIG    1       -3.637   1.647   0.550  0.00  0.00    +0.040 A 
ATOM      8  C   LIG    1       -3.826   3.009   0.308  0.00  0.00    -0.040 A 
ATOM      9  C   LIG    1       -2.737   3.812  -0.034  0.00  0.00    +0.090 A 
ATOM     10  C   LIG    1       -1.479   3.258  -0.132  0.00  0.00    -0.010 A 
BRANCH   8  11
ATOM     11  C   LIG    1       -5.178   3.599   0.413  0.00  0.00    +0.220 A 
ATOM     12  N   LIG    1       -5.468   4.875   0.563  0.00  0.00    -0.280 NA
ATOM     13  N   LIG    1       -6.745   5.028   0.609  0.00  0.00    -0.290 NA
ATOM     14  C   LIG    1       -7.336   3.872   0.497  0.00  0.00    +0.190 A 
ATOM     15  C   LIG    1       -8.819   3.604   0.485  0.00  0.00    +0.150 C 
ATOM     16  C   LIG    1       -9.123   2.433   1.425  0.00  0.00    +0.020 C 
ATOM     17  C   LIG    1       -9.006   1.118   0.659  0.00  0.00    +0.020 C 
ATOM     18  C   LIG    1       -7.917   1.213  -0.408  0.00  0.00    +0.030 C 
ATOM     19  C   LIG    1       -6.564   1.483   0.257  0.00  0.00    +0.290 C 
ATOM     20  N   LIG    1       -6.365   2.926   0.380  0.00  0.00    -0.470 N 
ENDBRANCH   8  11
ENDBRANCH   3   5
BRANCH   2  21
ATOM     21  C   LIG    1        1.629  -0.432   0.521  0.00  0.00    +0.060 C 
BRANCH  21  22
ATOM     22  C   LIG    1        1.727  -1.651   1.441  0.00  0.00    +0.040 C 
BRANCH  22  23
ATOM     23  C   LIG    1        3.082  -2.333   1.239  0.00  0.00    +0.100 C 
BRANCH  23  24
ATOM     24  C   LIG    1        3.179  -3.534   2.145  0.00  0.00    -0.170 A 
ATOM     25  C   LIG    1        3.747  -3.573   3.361  0.00  0.00    +0.220 A 
ATOM     26  N   LIG    1        3.641  -4.832   3.885  0.00  0.00    -0.600 N 
ATOM     27  H   LIG    1        3.976  -5.104   4.754  0.00  0.00    +0.420 HD
ATOM     28  C   LIG    1        2.995  -5.658   2.992  0.00  0.00    +0.090 A 
ATOM     29  C   LIG    1        2.637  -7.002   3.017  0.00  0.00    -0.010 A 
ATOM     30  C   LIG    1        1.979  -7.555   1.940  0.00  0.00    +0.020 A 
ATOM     31  C   LIG    1        1.668  -6.784   0.829  0.00  0.00    -0.030 A 
ATOM     32  C   LIG    1        2.009  -5.462   0.784  0.00  0.00    +0.050 A 
ATOM     33  C   LIG    1        2.676  -4.881   1.863  0.00  0.00    -0.100 A 
ENDBRANCH  23  24
ENDBRANCH  22  23
ENDBRANCH  21  22
ENDBRANCH   2  21
TORSDOF 6
