REMARK  Name = ZINCpk00000KfKzG.0
REMARK                            x       y       z     vdW  Elec       q    Type
REMARK                         _______ _______ _______ _____ _____    ______ ____
ROOT
ATOM      1  C   LIG    1       -2.128   7.792   2.422  0.00  0.00    +0.210 C 
ENDROOT
BRANCH   1   2
ATOM      2  N   LIG    1       -1.915   9.168   2.888  0.00  0.00    -0.520 NA
ATOM      3  C   LIG    1       -1.587  10.058   1.767  0.00  0.00    +0.180 C 
ATOM      4  C   LIG    1       -1.231  11.447   2.304  0.00  0.00    +0.030 C 
ATOM      5  C   LIG    1       -2.419  12.005   3.092  0.00  0.00    +0.280 C 
ATOM      6  C   LIG    1       -2.772  11.035   4.223  0.00  0.00    +0.030 C 
ATOM      7  C   LIG    1       -3.083   9.659   3.631  0.00  0.00    +0.180 C 
BRANCH   5   8
ATOM      8  N   LIG    1       -2.063  13.308   3.657  0.00  0.00    -0.630 N 
ATOM      9  C   LIG    1       -2.752  14.576   3.373  0.00  0.00    +0.250 C 
ATOM     10  C   LIG    1       -1.983  15.611   4.218  0.00  0.00    +0.250 C 
ATOM     11  N   LIG    1       -0.937  14.817   4.881  0.00  0.00    -0.750 N 
ATOM     12  H   LIG    1       -0.268  15.166   5.490  0.00  0.00    +0.430 HD
ATOM     13  C   LIG    1       -1.056  13.536   4.510  0.00  0.00    +0.700 C 
ATOM     14  O   LIG    1       -0.316  12.658   4.911  0.00  0.00    -0.570 OA
ENDBRANCH   5   8
ENDBRANCH   1   2
BRANCH   1  17
ATOM     15  N   LIG    1       -2.521   5.568   3.432  0.00  0.00    -0.730 N 
ATOM     16  H   LIG    1       -2.700   5.230   2.541  0.00  0.00    +0.400 HD
ATOM     17  C   LIG    1       -2.203   6.866   3.609  0.00  0.00    +0.510 C 
ATOM     18  O   LIG    1       -1.978   7.289   4.723  0.00  0.00    -0.510 OA
BRANCH  15  20
ATOM     19  C   LIG    1       -1.197   4.131   4.904  0.00  0.00    +0.040 C 
ATOM     20  C   LIG    1       -2.594   4.668   4.586  0.00  0.00    +0.290 C 
BRANCH  20  21
ATOM     21  C   LIG    1       -3.514   3.517   4.268  0.00  0.00    -0.100 A 
ATOM     22  C   LIG    1       -4.383   3.041   5.231  0.00  0.00    +0.060 A 
ATOM     23  C   LIG    1       -5.226   1.986   4.941  0.00  0.00    -0.010 A 
ATOM     24  C   LIG    1       -5.201   1.406   3.684  0.00  0.00    +0.100 A 
ATOM     25  C   LIG    1       -4.327   1.880   2.721  0.00  0.00    -0.010 A 
ATOM     26  F   LIG    1       -6.026   0.374   3.399  0.00  0.00    -0.140 F 
ATOM     27  C   LIG    1       -3.488   2.939   3.012  0.00  0.00    +0.040 A 
ENDBRANCH  20  21
ENDBRANCH  15  20
ENDBRANCH   1  17
TORSDOF 5
