REMARK  Name = ZINCqH0000050rX8.1
REMARK                            x       y       z     vdW  Elec       q    Type
REMARK                         _______ _______ _______ _____ _____    ______ ____
ROOT
ATOM      1  N   LIG    1        4.692  -0.377  -1.668  0.00  0.00    -0.670 N 
ATOM      2  H   LIG    1        3.983  -0.850  -1.205  0.00  0.00    +0.410 HD
ATOM      3  C   LIG    1        4.440   0.811  -2.253  0.00  0.00    +0.520 C 
ATOM      4  O   LIG    1        5.342   1.435  -2.771  0.00  0.00    -0.500 OA
ENDROOT
BRANCH   1  10
ATOM      5  C   LIG    1        6.144  -2.311  -1.806  0.00  0.00    +0.050 A 
ATOM      6  C   LIG    1        7.418  -2.850  -1.871  0.00  0.00    +0.040 A 
ATOM      7  C   LIG    1        8.523  -2.019  -1.849  0.00  0.00    +0.010 A 
ATOM      8  C   LIG    1        8.360  -0.649  -1.767  0.00  0.00    +0.030 A 
ATOM      9  C   LIG    1        7.092  -0.102  -1.707  0.00  0.00    +0.040 A 
ATOM     10  C   LIG    1        5.979  -0.929  -1.729  0.00  0.00    +0.140 A 
BRANCH   5  11
ATOM     11  O   LIG    1        5.056  -3.127  -1.821  0.00  0.00    -0.260 OA
BRANCH  11  16
ATOM     12  C   LIG    1        2.639  -4.217  -6.790  0.00  0.00    +0.100 C 
ATOM     13  C   LIG    1        3.286  -3.925  -5.460  0.00  0.00    -0.110 A 
ATOM     14  C   LIG    1        2.837  -4.565  -4.320  0.00  0.00    +0.040 A 
ATOM     15  C   LIG    1        3.428  -4.299  -3.100  0.00  0.00    -0.010 A 
ATOM     16  C   LIG    1        4.473  -3.390  -3.020  0.00  0.00    +0.110 A 
ATOM     17  C   LIG    1        4.918  -2.746  -4.165  0.00  0.00    -0.050 A 
ATOM     18  C   LIG    1        4.327  -3.019  -5.384  0.00  0.00    +0.050 A 
ENDBRANCH  11  16
ENDBRANCH   5  11
ENDBRANCH   1  10
BRANCH   3  19
ATOM     19  C   LIG    1        3.038   1.363  -2.263  0.00  0.00    +0.200 C 
BRANCH  19  20
ATOM     20  N   LIG    1        2.917   2.371  -3.325  0.00  0.00    -0.820 NA
ATOM     21  H   LIG    1        3.563   3.132  -3.177  0.00  0.00    +0.360 HD
ATOM     22  H   LIG    1        1.969   2.710  -3.395  0.00  0.00    +0.350 HD
ENDBRANCH  19  20
BRANCH  19  23
ATOM     23  C   LIG    1        2.734   2.008  -0.910  0.00  0.00    +0.110 C 
BRANCH  23  24
ATOM     24  C   LIG    1        1.294   2.451  -0.877  0.00  0.00    +0.020 A 
ATOM     25  C   LIG    1        0.785   3.572  -1.424  0.00  0.00    -0.000 A 
ATOM     26  N   LIG    1       -0.532   3.595  -1.173  0.00  0.00    -0.460 NA
ATOM     27  C   LIG    1       -0.861   2.528  -0.496  0.00  0.00    +0.430 A 
ATOM     28 BR   LIG    1        1.758   4.883  -2.378  0.00  0.00    +0.020 Br
ATOM     29  N   LIG    1        0.250   1.790  -0.285  0.00  0.00    -0.560 N 
ATOM     30  H   LIG    1        0.299   0.947   0.193  0.00  0.00    +0.430 HD
ENDBRANCH  23  24
ENDBRANCH  19  23
ENDBRANCH   3  19
TORSDOF 7
