REMARK  Name = ZINCue00000007cL.0
REMARK                            x       y       z     vdW  Elec       q    Type
REMARK                         _______ _______ _______ _____ _____    ______ ____
ROOT
ATOM      1  N   LIG    1        1.482  -3.511  -7.621  0.00  0.00    -0.610 N 
ATOM      2  C   LIG    1        2.180  -2.221  -7.623  0.00  0.00    +0.350 C 
ATOM      3  C   LIG    1        1.660  -1.457  -6.431  0.00  0.00    -0.060 A 
ATOM      4  C   LIG    1        1.937  -0.208  -5.921  0.00  0.00    +0.030 A 
ATOM      5  C   LIG    1        1.289   0.237  -4.784  0.00  0.00    +0.090 A 
ATOM      6  C   LIG    1        0.351  -0.580  -4.149  0.00  0.00    -0.130 A 
ATOM      7  C   LIG    1        0.072  -1.846  -4.658  0.00  0.00    +0.170 A 
ATOM      8  C   LIG    1        0.724  -2.288  -5.807  0.00  0.00    -0.170 A 
ATOM      9  C   LIG    1        0.642  -3.547  -6.572  0.00  0.00    +0.570 C 
ATOM     10  O   LIG    1       -0.080  -4.484  -6.293  0.00  0.00    -0.510 OA
ENDROOT
BRANCH   1  15
ATOM     11  O   LIG    1        0.805  -8.366  -9.805  0.00  0.00    -0.500 OA
ATOM     12  C   LIG    1        1.065  -7.237  -9.449  0.00  0.00    +0.520 C 
ATOM     13  C   LIG    1        0.531  -6.072 -10.239  0.00  0.00    +0.100 C 
ATOM     14  C   LIG    1        0.338  -4.875  -9.303  0.00  0.00    +0.060 C 
ATOM     15  C   LIG    1        1.669  -4.584  -8.601  0.00  0.00    +0.300 C 
ATOM     16  C   LIG    1        2.142  -5.830  -7.900  0.00  0.00    +0.510 C 
ATOM     17  O   LIG    1        2.823  -5.728  -6.902  0.00  0.00    -0.480 OA
ATOM     18  N   LIG    1        1.822  -7.050  -8.357  0.00  0.00    -0.670 N 
ATOM     19  H   LIG    1        2.152  -7.827  -7.881  0.00  0.00    +0.420 HD
ENDBRANCH   1  15
BRANCH   6  20
ATOM     20  C   LIG    1       -0.341  -0.103  -2.932  0.00  0.00    +0.560 C 
ATOM     21  N   LIG    1       -0.067   1.120  -2.437  0.00  0.00    -0.710 N 
ATOM     22  H   LIG    1        0.584   1.688  -2.878  0.00  0.00    +0.400 HD
ATOM     23  O   LIG    1       -1.157  -0.814  -2.379  0.00  0.00    -0.530 OA
BRANCH  21  24
ATOM     24  C   LIG    1       -0.753   1.593  -1.232  0.00  0.00    +0.230 C 
ATOM     25  C   LIG    1       -0.013   1.086   0.008  0.00  0.00    +0.000 C 
ATOM     26  C   LIG    1       -0.729   1.579   1.267  0.00  0.00    +0.010 C 
ATOM     27  C   LIG    1       -0.750   3.109   1.275  0.00  0.00    +0.020 C 
ATOM     28  C   LIG    1       -1.490   3.616   0.036  0.00  0.00    -0.090 C 
ATOM     29  C   LIG    1       -0.773   3.123  -1.223  0.00  0.00    +0.030 C 
BRANCH  28  30
ATOM     30  C   LIG    1       -1.510   5.123   0.044  0.00  0.00    +0.500 C 
ATOM     31  O   LIG    1       -0.530   5.748  -0.323  0.00  0.00    -0.700 OA
ATOM     32  O   LIG    1       -2.507   5.717   0.418  0.00  0.00    -0.700 OA
ENDBRANCH  28  30
ENDBRANCH  21  24
ENDBRANCH   6  20
TORSDOF 4
