REMARK  Name = ZINCpe000000W28j.0
REMARK                            x       y       z     vdW  Elec       q    Type
REMARK                         _______ _______ _______ _____ _____    ______ ____
ROOT
ATOM      1  C   LIG    1       -3.338  -6.467   0.489  0.00  0.00    -0.080 A 
ATOM      2  C   LIG    1       -2.070  -7.049   0.456  0.00  0.00    +0.030 A 
ATOM      3  C   LIG    1       -1.940  -8.418   0.566  0.00  0.00    +0.120 A 
ATOM      4  C   LIG    1       -3.064  -9.214   0.699  0.00  0.00    -0.660 A 
ATOM      5  C   LIG    1       -4.324  -8.644   0.727  0.00  0.00    +0.120 A 
ATOM      6  C   LIG    1       -4.468  -7.275   0.624  0.00  0.00    +0.070 A 
ENDROOT
BRANCH   1   9
ATOM      7  N   LIG    1       -2.391  -4.221   0.248  0.00  0.00    -0.720 N 
ATOM      8  H   LIG    1       -1.509  -4.624   0.228  0.00  0.00    +0.410 HD
ATOM      9  C   LIG    1       -3.484  -5.000   0.377  0.00  0.00    +0.560 C 
ATOM     10  O   LIG    1       -4.590  -4.495   0.402  0.00  0.00    -0.530 OA
BRANCH   7  11
ATOM     11  C   LIG    1       -2.536  -2.768   0.137  0.00  0.00    +0.250 C 
BRANCH  11  12
ATOM     12  C   LIG    1       -1.154  -2.126   0.002  0.00  0.00    +0.220 C 
BRANCH  12  13
ATOM     13  O   LIG    1       -0.554  -2.542  -1.227  0.00  0.00    -0.550 OA
ATOM     14  H   LIG    1       -1.061  -2.297  -2.014  0.00  0.00    +0.380 HD
ENDBRANCH  12  13
BRANCH  12  15
ATOM     15  C   LIG    1       -1.295  -0.603   0.011  0.00  0.00    +0.150 C 
BRANCH  15  17
ATOM     16  C   LIG    1       -0.017   1.425   0.010  0.00  0.00    +0.200 C 
ATOM     17  O   LIG    1        0.002  -0.004   0.002  0.00  0.00    -0.380 OA
ENDBRANCH  15  17
ENDBRANCH  12  15
ENDBRANCH  11  12
ENDBRANCH   7  11
ENDBRANCH   1   9
BRANCH   4  18
ATOM     18  S   LIG    1       -2.890 -10.963   0.831  0.00  0.00    +2.690 S 
ATOM     19  O   LIG    1       -4.059 -11.434   1.487  0.00  0.00    -0.950 OA
ATOM     20  O   LIG    1       -1.577 -11.199   1.319  0.00  0.00    -0.950 OA
BRANCH  18  21
ATOM     21  N   LIG    1       -2.936 -11.578  -0.706  0.00  0.00    -1.000 NA
ATOM     22  C   LIG    1       -4.211 -11.980  -1.313  0.00  0.00    +0.290 C 
ATOM     23  C   LIG    1       -4.094 -13.421  -1.808  0.00  0.00    +0.020 C 
ATOM     24  C   LIG    1       -2.887 -13.540  -2.742  0.00  0.00    -0.020 C 
ATOM     25  C   LIG    1       -1.611 -13.186  -1.976  0.00  0.00    +0.020 C 
ATOM     26  C   LIG    1       -2.787 -14.975  -3.263  0.00  0.00    +0.030 C 
ATOM     27  C   LIG    1       -1.700 -11.737  -1.485  0.00  0.00    +0.280 C 
ENDBRANCH  18  21
ENDBRANCH   4  18
TORSDOF 8
