REMARK  Name = ZINCah0000002xvR.0
REMARK                            x       y       z     vdW  Elec       q    Type
REMARK                         _______ _______ _______ _____ _____    ______ ____
ROOT
ATOM      1  C   LIG    1        0.002  -0.004   0.002  0.00  0.00    +0.100 C 
ATOM      2  C   LIG    1        1.394   0.090   0.649  0.00  0.00    -0.030 C 
ATOM      3  C   LIG    1        1.518   1.476  -0.004  0.00  0.00    +0.160 C 
ATOM      4  C   LIG    1       -1.056  -0.636   0.909  0.00  0.00    +0.030 C 
ATOM      5  C   LIG    1       -0.019   1.534   0.011  0.00  0.00    -0.060 C 
ATOM      6  C   LIG    1       -0.597   2.132   1.294  0.00  0.00    +0.070 C 
ATOM      7  C   LIG    1       -0.622   2.145  -1.256  0.00  0.00    +0.050 C 
ENDROOT
BRANCH   1   9
ATOM      8  C   LIG    1        0.037  -1.998  -1.328  0.00  0.00    +0.200 C 
ATOM      9  O   LIG    1        0.018  -0.569  -1.310  0.00  0.00    -0.350 OA
ENDBRANCH   1   9
BRANCH   3  10
ATOM     10  O   LIG    1        2.077   1.442  -1.319  0.00  0.00    -0.540 OA
ATOM     11  H   LIG    1        3.043   1.405  -1.335  0.00  0.00    +0.380 HD
ENDBRANCH   3  10
TORSDOF 2
