REMARK  Name = ZINCvU00000008oS.0
REMARK                            x       y       z     vdW  Elec       q    Type
REMARK                         _______ _______ _______ _____ _____    ______ ____
ROOT
ATOM      1  C   LIG    1        0.341   6.743   0.035  0.00  0.00    +0.580 C 
ATOM      2  N   LIG    1        1.077   5.614   0.022  0.00  0.00    -0.460 N 
ATOM      3  N   LIG    1        0.569   4.316   0.014  0.00  0.00    -0.230 NA
ATOM      4  C   LIG    1        1.476   3.397   0.006  0.00  0.00    +0.180 C 
ATOM      5  C   LIG    1        2.845   4.038  -0.003  0.00  0.00    +0.100 C 
ATOM      6  C   LIG    1        2.547   5.551   0.008  0.00  0.00    +0.330 C 
ATOM      7  O   LIG    1        0.890   7.825   0.036  0.00  0.00    -0.500 OA
ENDROOT
BRANCH   4   8
ATOM      8  C   LIG    1        1.217   1.953   0.001  0.00  0.00    -0.160 A 
ATOM      9  C   LIG    1       -0.017   1.373   0.010  0.00  0.00    +0.070 A 
ATOM     10  C   LIG    1        0.002  -0.004   0.002  0.00  0.00    +0.010 A 
ATOM     11  C   LIG    1        1.219  -0.557  -0.013  0.00  0.00    -0.030 A 
ATOM     12  S   LIG    1        2.450   0.699  -0.018  0.00  0.00    +0.160 S 
ENDBRANCH   4   8
BRANCH   6  13
ATOM     13  C   LIG    1        3.094   6.208  -1.234  0.00  0.00    -0.030 A 
ATOM     14  C   LIG    1        4.245   6.898  -1.316  0.00  0.00    -0.030 A 
ATOM     15  C   LIG    1        4.366   7.335  -2.655  0.00  0.00    -0.060 A 
ATOM     16  C   LIG    1        3.281   6.886  -3.311  0.00  0.00    +0.170 A 
ATOM     17  O   LIG    1        2.517   6.199  -2.446  0.00  0.00    -0.170 OA
ENDBRANCH   6  13
BRANCH   1  18
ATOM     18  C   LIG    1       -1.164   6.662   0.049  0.00  0.00    +0.130 C 
BRANCH  18  19
ATOM     19  S   LIG    1       -1.858   8.334   0.065  0.00  0.00    +0.080 S 
BRANCH  19  21
ATOM     20  N   LIG    1       -4.608   8.849   0.094  0.00  0.00    -0.460 N 
ATOM     21  C   LIG    1       -3.578   7.950   0.079  0.00  0.00    +0.150 A 
ATOM     22  N   LIG    1       -4.108   6.749   0.072  0.00  0.00    -0.280 NA
ATOM     23  N   LIG    1       -5.390   6.830   0.089  0.00  0.00    -0.260 NA
ATOM     24  C   LIG    1       -5.760   8.092   0.100  0.00  0.00    +0.260 A 
BRANCH  24  25
ATOM     25  C   LIG    1       -7.141   8.600   0.115  0.00  0.00    -0.130 A 
ATOM     26  C   LIG    1       -8.243   7.873  -0.170  0.00  0.00    +0.070 A 
ATOM     27  C   LIG    1       -9.430   8.570  -0.084  0.00  0.00    +0.020 A 
ATOM     28  C   LIG    1       -9.308   9.856   0.257  0.00  0.00    -0.030 A 
ATOM     29  S   LIG    1       -7.612  10.251   0.500  0.00  0.00    +0.130 S 
ENDBRANCH  24  25
BRANCH  20  31
ATOM     30  C   LIG    1       -4.488  10.828  -1.339  0.00  0.00    +0.060 C 
ATOM     31  C   LIG    1       -4.509  10.310   0.101  0.00  0.00    +0.310 C 
ENDBRANCH  20  31
ENDBRANCH  19  21
ENDBRANCH  18  19
ENDBRANCH   1  18
TORSDOF 7
