REMARK  Name = ZINCqH00000513BI.0
REMARK                            x       y       z     vdW  Elec       q    Type
REMARK                         _______ _______ _______ _____ _____    ______ ____
ROOT
ATOM      1  N   LIG    1        3.826   2.876  -3.244  0.00  0.00    -0.640 N 
ATOM      2  H   LIG    1        2.961   2.483  -3.443  0.00  0.00    +0.440 HD
ATOM      3  C   LIG    1        4.229   3.008  -1.965  0.00  0.00    +0.600 C 
ATOM      4  O   LIG    1        5.351   3.405  -1.719  0.00  0.00    -0.510 OA
ENDROOT
BRANCH   1  10
ATOM      5  C   LIG    1        4.536   2.726  -5.556  0.00  0.00    -0.180 A 
ATOM      6  C   LIG    1        5.366   3.167  -6.589  0.00  0.00    +0.070 A 
ATOM      7  C   LIG    1        6.298   4.153  -6.349  0.00  0.00    -0.020 A 
ATOM      8  C   LIG    1        6.413   4.715  -5.088  0.00  0.00    +0.070 A 
ATOM      9  C   LIG    1        5.596   4.294  -4.058  0.00  0.00    +0.000 A 
ATOM     10  C   LIG    1        4.651   3.301  -4.281  0.00  0.00    +0.210 A 
BRANCH   5  14
ATOM     11  N   LIG    1        3.501   1.046  -7.000  0.00  0.00    -0.850 N 
ATOM     12  H   LIG    1        2.846   0.349  -7.164  0.00  0.00    +0.410 HD
ATOM     13  H   LIG    1        4.127   1.297  -7.698  0.00  0.00    +0.400 HD
ATOM     14  C   LIG    1        3.541   1.666  -5.804  0.00  0.00    +0.570 C 
ATOM     15  O   LIG    1        2.757   1.351  -4.930  0.00  0.00    -0.540 OA
ENDBRANCH   5  14
ENDBRANCH   1  10
BRANCH   3  16
ATOM     16  C   LIG    1        3.309   2.671  -0.865  0.00  0.00    +0.000 A 
ATOM     17  C   LIG    1        3.646   2.780   0.440  0.00  0.00    -0.010 A 
ATOM     18  S   LIG    1        2.313   2.299   1.396  0.00  0.00    +0.270 S 
ATOM     19  C   LIG    1        1.383   1.980  -0.001  0.00  0.00    +0.010 A 
ATOM     20  N   LIG    1        2.066   2.226  -1.064  0.00  0.00    -0.410 NA
BRANCH  19  21
ATOM     21  C   LIG    1       -0.037   1.476   0.010  0.00  0.00    +0.330 C 
BRANCH  21  22
ATOM     22  O   LIG    1       -0.035   0.047   0.003  0.00  0.00    -0.300 OA
BRANCH  22  23
ATOM     23  C   LIG    1       -1.245  -0.572   0.012  0.00  0.00    +0.140 A 
ATOM     24  C   LIG    1       -2.410   0.182   0.032  0.00  0.00    -0.060 A 
ATOM     25  C   LIG    1       -3.639  -0.449   0.036  0.00  0.00    +0.070 A 
ATOM     26  C   LIG    1       -3.709  -1.831   0.030  0.00  0.00    -0.070 A 
ATOM     27  C   LIG    1       -2.548  -2.584   0.015  0.00  0.00    +0.070 A 
ATOM     28 CL   LIG    1       -5.254  -2.621   0.041  0.00  0.00    -0.070 Cl
ATOM     29  C   LIG    1       -1.317  -1.957   0.006  0.00  0.00    +0.000 A 
ENDBRANCH  22  23
ENDBRANCH  21  22
ENDBRANCH  19  21
ENDBRANCH   3  16
TORSDOF 6
