REMARK  Name = ZINCrD0000073z3b.0
REMARK                            x       y       z     vdW  Elec       q    Type
REMARK                         _______ _______ _______ _____ _____    ______ ____
ROOT
ATOM      1  N   LIG    1        0.098  -2.779   0.084  0.00  0.00    -0.650 N 
ATOM      2  H   LIG    1       -0.416  -2.347  -0.616  0.00  0.00    +0.420 HD
ATOM      3  C   LIG    1        0.240  -4.119   0.087  0.00  0.00    +0.520 C 
ATOM      4  O   LIG    1        0.797  -4.668   1.015  0.00  0.00    -0.490 OA
ENDROOT
BRANCH   1  10
ATOM      5  C   LIG    1        0.169  -0.759   1.418  0.00  0.00    +0.160 A 
ATOM      6  C   LIG    1        0.764   0.000   2.411  0.00  0.00    -0.030 A 
ATOM      7  C   LIG    1        1.869  -0.487   3.086  0.00  0.00    +0.130 A 
ATOM      8  C   LIG    1        2.389  -1.726   2.764  0.00  0.00    -0.060 A 
ATOM      9  C   LIG    1        1.804  -2.488   1.770  0.00  0.00    +0.140 A 
ATOM     10  C   LIG    1        0.692  -2.009   1.093  0.00  0.00    +0.130 A 
BRANCH   8  11
ATOM     11  N   LIG    1        3.576  -2.239   3.485  0.00  0.00    +0.030 N 
ATOM     12  O   LIG    1        4.092  -1.569   4.361  0.00  0.00    -0.160 OA
ATOM     13  O   LIG    1        4.035  -3.331   3.202  0.00  0.00    -0.150 OA
ENDBRANCH   8  11
BRANCH   5  15
ATOM     14  C   LIG    1       -1.403   1.004   1.144  0.00  0.00    +0.270 C 
ATOM     15  O   LIG    1       -0.921  -0.284   0.758  0.00  0.00    -0.310 OA
ENDBRANCH   5  15
ENDBRANCH   1  10
BRANCH   3  16
ATOM     16  C   LIG    1       -0.292  -4.936  -1.062  0.00  0.00    +0.200 C 
ATOM     17  C   LIG    1       -1.802  -4.725  -1.181  0.00  0.00    +0.070 C 
BRANCH  16  18
ATOM     18  O   LIG    1       -0.016  -6.342  -0.825  0.00  0.00    -0.320 OA
BRANCH  18  19
ATOM     19  C   LIG    1        0.167  -7.122  -1.910  0.00  0.00    +0.550 C 
ATOM     20  O   LIG    1        0.099  -6.639  -3.024  0.00  0.00    -0.500 OA
BRANCH  19  21
ATOM     21  C   LIG    1        0.449  -8.549  -1.747  0.00  0.00    -0.270 A 
ATOM     22  C   LIG    1        0.651  -9.433  -2.760  0.00  0.00    +0.130 A 
ATOM     23  C   LIG    1        0.901 -10.734  -2.334  0.00  0.00    -0.150 A 
ATOM     24  C   LIG    1        0.896 -10.882  -0.998  0.00  0.00    -0.210 A 
ATOM     25  C   LIG    1        1.176 -12.332  -0.624  0.00  0.00    +0.120 C 
ATOM     26  C   LIG    1        0.911 -13.133  -1.914  0.00  0.00    +0.040 C 
ATOM     27  C   LIG    1        1.188 -12.077  -3.003  0.00  0.00    +0.100 C 
ATOM     28  S   LIG    1        0.586  -9.389  -0.212  0.00  0.00    +0.280 S 
ENDBRANCH  19  21
ENDBRANCH  18  19
ENDBRANCH  16  18
ENDBRANCH   3  16
TORSDOF 7
