REMARK  Name = ZINCpk00000KfLFB.0
REMARK                            x       y       z     vdW  Elec       q    Type
REMARK                         _______ _______ _______ _____ _____    ______ ____
ROOT
ATOM      1  C   LIG    1        4.015  -3.530   3.725  0.00  0.00    -0.010 C 
ATOM      2  C   LIG    1        2.538  -3.109   3.942  0.00  0.00    +0.070 C 
ATOM      3  C   LIG    1        2.210  -2.419   2.595  0.00  0.00    +0.250 C 
ATOM      4  N   LIG    1        3.448  -1.711   2.222  0.00  0.00    -0.640 N 
ATOM      5  C   LIG    1        3.525  -0.637   1.411  0.00  0.00    +0.730 C 
ATOM      6  N   LIG    1        2.405  -0.123   0.865  0.00  0.00    -0.730 N 
ATOM      7  H   LIG    1        1.544  -0.526   1.056  0.00  0.00    +0.400 HD
ATOM      8  O   LIG    1        4.605  -0.133   1.171  0.00  0.00    -0.580 OA
ATOM      9  C   LIG    1        4.585  -2.374   2.876  0.00  0.00    +0.290 C 
ENDROOT
BRANCH   1  13
ATOM     10  N   LIG    1        6.039  -3.992   5.070  0.00  0.00    -0.850 N 
ATOM     11  H   LIG    1        6.505  -4.060   5.918  0.00  0.00    +0.400 HD
ATOM     12  H   LIG    1        6.508  -4.179   4.242  0.00  0.00    +0.400 HD
ATOM     13  C   LIG    1        4.739  -3.637   5.042  0.00  0.00    +0.530 C 
ATOM     14  O   LIG    1        4.152  -3.402   6.077  0.00  0.00    -0.530 OA
ENDBRANCH   1  13
BRANCH   6  15
ATOM     15  C   LIG    1        2.489   1.044  -0.017  0.00  0.00    +0.340 C 
BRANCH  15  16
ATOM     16  C   LIG    1        1.175   1.782   0.000  0.00  0.00    -0.090 A 
ATOM     17  C   LIG    1       -0.013   1.076   0.008  0.00  0.00    +0.030 A 
ATOM     18  C   LIG    1       -1.220   1.750   0.017  0.00  0.00    +0.030 A 
ATOM     19  C   LIG    1       -1.241   3.136   0.030  0.00  0.00    +0.050 A 
ATOM     20  O   LIG    1       -2.438   3.785   0.040  0.00  0.00    -0.310 OA
ATOM     21  C   LIG    1       -2.417   5.164   0.426  0.00  0.00    +0.220 C 
ATOM     22  C   LIG    1       -1.270   5.855  -0.323  0.00  0.00    +0.220 C 
ATOM     23  O   LIG    1       -0.045   5.207   0.037  0.00  0.00    -0.310 OA
ATOM     24  C   LIG    1       -0.046   3.846   0.024  0.00  0.00    +0.060 A 
ATOM     25  C   LIG    1        1.161   3.164   0.009  0.00  0.00    +0.040 A 
ENDBRANCH  15  16
BRANCH  15  26
ATOM     26  C   LIG    1        2.797   0.584  -1.443  0.00  0.00    -0.060 C 
ATOM     27  C   LIG    1        2.754  -0.919  -1.726  0.00  0.00    +0.010 C 
ATOM     28  C   LIG    1        4.098  -0.190  -1.671  0.00  0.00    +0.030 C 
ENDBRANCH  15  26
ENDBRANCH   6  15
TORSDOF 4
