REMARK  Name = ZINCAx0000000g2k.0
REMARK                            x       y       z     vdW  Elec       q    Type
REMARK                         _______ _______ _______ _____ _____    ______ ____
ROOT
ATOM      1  C   LIG    1        0.002  -0.004   0.002  0.00  0.00    -0.060 A 
ATOM      2  C   LIG    1       -0.017   1.378   0.010  0.00  0.00    +0.060 A 
ATOM      3  C   LIG    1        1.169   2.097   0.002  0.00  0.00    +0.110 A 
ATOM      4  C   LIG    1        2.380   1.424  -0.013  0.00  0.00    -0.140 A 
ATOM      5  C   LIG    1        3.796   1.848  -0.024  0.00  0.00    +0.580 C 
ATOM      6  N   LIG    1        4.572   0.749  -0.037  0.00  0.00    -0.560 N 
ATOM      7  C   LIG    1        3.826  -0.370  -0.037  0.00  0.00    +0.580 C 
ATOM      8  O   LIG    1        4.253  -1.507  -0.047  0.00  0.00    -0.450 OA
ATOM      9  O   LIG    1        4.192   2.996  -0.021  0.00  0.00    -0.450 OA
ATOM     10  C   LIG    1        2.399   0.015  -0.021  0.00  0.00    -0.130 A 
ATOM     11  C   LIG    1        1.207  -0.691  -0.014  0.00  0.00    +0.100 A 
ENDROOT
BRANCH   6  12
ATOM     12  C   LIG    1        6.037   0.769  -0.050  0.00  0.00    +0.270 C 
ATOM     13  C   LIG    1        6.528   1.508  -1.300  0.00  0.00    +0.070 C 
ATOM     14  C   LIG    1        8.055   1.616  -1.234  0.00  0.00    +0.110 C 
ATOM     15  C   LIG    1        8.450   2.281   0.058  0.00  0.00    +0.520 C 
ATOM     16  N   LIG    1        7.691   2.172   1.158  0.00  0.00    -0.670 N 
ATOM     17  H   LIG    1        7.985   2.610   1.972  0.00  0.00    +0.420 HD
ATOM     18  O   LIG    1        9.474   2.929   0.104  0.00  0.00    -0.490 OA
ATOM     19  C   LIG    1        6.541   1.481   1.177  0.00  0.00    +0.520 C 
ATOM     20  O   LIG    1        5.896   1.429   2.202  0.00  0.00    -0.480 OA
ENDBRANCH   6  12
BRANCH   1  21
ATOM     21  C   LIG    1       -1.296  -0.770   0.010  0.00  0.00    +0.100 C 
BRANCH  21  22
ATOM     22  C   LIG    1       -1.749  -1.022  -1.429  0.00  0.00    +0.030 C 
BRANCH  22  23
ATOM     23  C   LIG    1       -3.066  -1.799  -1.421  0.00  0.00    +0.280 C 
BRANCH  23  25
ATOM     24  C   LIG    1       -4.644  -2.712  -3.038  0.00  0.00    +0.600 C 
ATOM     25  N   LIG    1       -3.500  -2.040  -2.799  0.00  0.00    -0.720 N 
ATOM     26  H   LIG    1       -2.964  -1.716  -3.540  0.00  0.00    +0.410 HD
ATOM     27  O   LIG    1       -5.316  -3.119  -2.109  0.00  0.00    -0.510 OA
BRANCH  24  29
ATOM     28  C   LIG    1       -6.206  -3.621  -4.780  0.00  0.00    -0.070 A 
ATOM     29  C   LIG    1       -5.079  -2.954  -4.421  0.00  0.00    -0.040 A 
ATOM     30  O   LIG    1       -4.416  -2.551  -5.525  0.00  0.00    -0.190 OA
ATOM     31  C   LIG    1       -5.071  -2.925  -6.641  0.00  0.00    +0.070 A 
ATOM     32  C   LIG    1       -4.814  -2.759  -7.997  0.00  0.00    +0.030 A 
ATOM     33  C   LIG    1       -5.694  -3.266  -8.929  0.00  0.00    +0.060 A 
ATOM     34  C   LIG    1       -6.837  -3.945  -8.530  0.00  0.00    -0.010 A 
ATOM     35  C   LIG    1       -7.110  -4.121  -7.203  0.00  0.00    +0.070 A 
ATOM     36  C   LIG    1       -6.232  -3.614  -6.243  0.00  0.00    -0.140 A 
BRANCH  28  38
ATOM     37  C   LIG    1       -8.308  -3.213  -3.531  0.00  0.00    +0.030 C 
ATOM     38  C   LIG    1       -7.224  -4.241  -3.859  0.00  0.00    +0.110 C 
ENDBRANCH  28  38
ENDBRANCH  24  29
ENDBRANCH  23  25
ENDBRANCH  22  23
ENDBRANCH  21  22
ENDBRANCH   1  21
TORSDOF 7
