REMARK  Name = ZINCvU00000006vT.0
REMARK                            x       y       z     vdW  Elec       q    Type
REMARK                         _______ _______ _______ _____ _____    ______ ____
ROOT
ATOM      1  C   LIG    1        1.059   7.433   0.246  0.00  0.00    +0.060 C 
ENDROOT
BRANCH   1   2
ATOM      2  C   LIG    1        0.879   7.816   1.692  0.00  0.00    -0.100 A 
ATOM      3  C   LIG    1        1.809   7.417   2.634  0.00  0.00    +0.040 A 
ATOM      4  C   LIG    1        1.646   7.773   3.959  0.00  0.00    +0.010 A 
ATOM      5  C   LIG    1        0.550   8.521   4.345  0.00  0.00    +0.020 A 
ATOM      6  C   LIG    1       -0.383   8.915   3.404  0.00  0.00    +0.010 A 
ATOM      7  C   LIG    1       -0.218   8.563   2.078  0.00  0.00    +0.060 A 
ENDBRANCH   1   2
BRANCH   1  10
ATOM      8  N   LIG    1       -0.069   5.242   0.030  0.00  0.00    -0.660 N 
ATOM      9  H   LIG    1       -0.914   5.715  -0.026  0.00  0.00    +0.410 HD
ATOM     10  C   LIG    1        1.085   5.931   0.124  0.00  0.00    +0.540 C 
ATOM     11  O   LIG    1        2.146   5.342   0.112  0.00  0.00    -0.500 OA
BRANCH   8  17
ATOM     12  C   LIG    1        2.146   1.057  -1.294  0.00  0.00    +0.090 C 
ATOM     13  C   LIG    1        1.012   1.788  -0.623  0.00  0.00    -0.070 A 
ATOM     14  C   LIG    1       -0.010   1.076  -0.024  0.00  0.00    -0.010 A 
ATOM     15  C   LIG    1       -1.055   1.744   0.589  0.00  0.00    +0.030 A 
ATOM     16  C   LIG    1       -1.075   3.124   0.613  0.00  0.00    -0.110 A 
ATOM     17  C   LIG    1       -0.049   3.842   0.012  0.00  0.00    +0.140 A 
ATOM     18  C   LIG    1       -2.211   3.851   1.285  0.00  0.00    +0.080 C 
ATOM     19  C   LIG    1        0.996   3.169  -0.607  0.00  0.00    +0.020 A 
ENDBRANCH   8  17
ENDBRANCH   1  10
BRANCH   1  20
ATOM     20  S   LIG    1        2.617   8.116  -0.371  0.00  0.00    +0.130 S 
BRANCH  20  21
ATOM     21  C   LIG    1        2.263   9.838  -0.258  0.00  0.00    +0.210 A 
ATOM     22  N   LIG    1        1.141  10.380   0.165  0.00  0.00    -0.310 NA
ATOM     23  N   LIG    1        1.216  11.661   0.123  0.00  0.00    -0.020 NA
ATOM     24  N   LIG    1        2.365  12.032  -0.330  0.00  0.00    -0.060 NA
ATOM     25  N   LIG    1        3.095  10.861  -0.597  0.00  0.00    -0.320 N 
BRANCH  25  26
ATOM     26  C   LIG    1        4.399  10.767  -1.104  0.00  0.00    +0.140 A 
ATOM     27  C   LIG    1        4.853  11.693  -2.033  0.00  0.00    +0.060 A 
ATOM     28  C   LIG    1        6.138  11.598  -2.531  0.00  0.00    +0.070 A 
ATOM     29  C   LIG    1        6.973  10.583  -2.104  0.00  0.00    +0.060 A 
ATOM     30  C   LIG    1        6.524   9.658  -1.177  0.00  0.00    -0.010 A 
ATOM     31 CL   LIG    1        7.576   8.384  -0.644  0.00  0.00    -0.040 Cl
ATOM     32  C   LIG    1        5.241   9.751  -0.672  0.00  0.00    +0.040 A 
ENDBRANCH  25  26
ENDBRANCH  20  21
ENDBRANCH   1  20
TORSDOF 6
