REMARK  Name = ZINCpe00000y4trm.0
REMARK                            x       y       z     vdW  Elec       q    Type
REMARK                         _______ _______ _______ _____ _____    ______ ____
ROOT
ATOM      1  C   LIG    1       -4.073   4.063   4.760  0.00  0.00    +0.340 C 
ENDROOT
BRANCH   1   3
ATOM      2  C   LIG    1       -4.104   1.832   3.781  0.00  0.00    +0.600 C 
ATOM      3  N   LIG    1       -4.168   2.606   4.882  0.00  0.00    -0.610 N 
ATOM      4  C   LIG    1       -4.334   1.991   6.201  0.00  0.00    +0.270 C 
ATOM      5  O   LIG    1       -3.883   2.335   2.696  0.00  0.00    -0.540 OA
BRANCH   2   8
ATOM      6  N   LIG    1       -4.760  -1.714   3.399  0.00  0.00    -0.350 N 
ATOM      7  C   LIG    1       -4.700  -0.477   2.881  0.00  0.00    +0.310 A 
ATOM      8  C   LIG    1       -4.302   0.375   3.891  0.00  0.00    -0.300 A 
ATOM      9  C   LIG    1       -4.114  -0.411   5.050  0.00  0.00    +0.270 A 
ATOM     10  N   LIG    1       -4.388  -1.650   4.747  0.00  0.00    -0.290 NA
BRANCH   6  12
ATOM     11  C   LIG    1       -3.920  -3.497   1.950  0.00  0.00    +0.040 C 
ATOM     12  C   LIG    1       -5.142  -2.928   2.674  0.00  0.00    +0.260 C 
ATOM     13  C   LIG    1       -6.229  -2.590   1.651  0.00  0.00    +0.060 C 
ENDBRANCH   6  12
ENDBRANCH   2   8
ENDBRANCH   1   3
BRANCH   1  14
ATOM     14  C   LIG    1       -5.472   4.651   4.562  0.00  0.00    +0.090 C 
ATOM     15  C   LIG    1       -5.923   5.743   5.533  0.00  0.00    +0.050 C 
ATOM     16  C   LIG    1       -6.526   4.340   5.627  0.00  0.00    +0.050 C 
BRANCH  14  17
ATOM     17  N   LIG    1       -5.924   4.753   3.172  0.00  0.00    -0.690 N 
ATOM     18  H   LIG    1       -6.666   4.210   2.863  0.00  0.00    +0.400 HD
ATOM     19  C   LIG    1       -5.309   5.600   2.324  0.00  0.00    +0.510 C 
ATOM     20  O   LIG    1       -4.336   6.225   2.690  0.00  0.00    -0.500 OA
BRANCH  19  21
ATOM     21  C   LIG    1       -5.829   5.770   0.920  0.00  0.00    +0.200 C 
ATOM     22  C   LIG    1       -5.645   4.461   0.126  0.00  0.00    +0.070 C 
ATOM     23  C   LIG    1       -5.066   4.968  -1.216  0.00  0.00    +0.060 C 
ATOM     24  C   LIG    1       -4.410   6.280  -0.830  0.00  0.00    +0.490 C 
ATOM     25  O   LIG    1       -3.458   6.781  -1.381  0.00  0.00    -0.440 OA
ATOM     26  O   LIG    1       -5.060   6.790   0.224  0.00  0.00    -0.320 OA
ENDBRANCH  19  21
ENDBRANCH  14  17
ENDBRANCH   1  14
TORSDOF 6
