REMARK  Name = ZINCpk00000e9snP.0
REMARK                            x       y       z     vdW  Elec       q    Type
REMARK                         _______ _______ _______ _____ _____    ______ ____
ROOT
ATOM      1  N   LIG    1       -3.778   1.958   1.672  0.00  0.00    -0.610 N 
ATOM      2  C   LIG    1       -3.450   3.149   2.219  0.00  0.00    +0.720 C 
ATOM      3  N   LIG    1       -2.887   4.134   1.499  0.00  0.00    -0.720 N 
ATOM      4  H   LIG    1       -2.710   4.995   1.909  0.00  0.00    +0.420 HD
ATOM      5  C   LIG    1       -2.540   3.903   0.086  0.00  0.00    +0.350 C 
ATOM      6  C   LIG    1       -1.229   3.151   0.062  0.00  0.00    -0.210 A 
ATOM      7  C   LIG    1       -0.045   3.865   0.059  0.00  0.00    +0.070 A 
ATOM      8  C   LIG    1        1.167   3.199   0.056  0.00  0.00    -0.020 A 
ATOM      9  C   LIG    1        1.194   1.817   0.057  0.00  0.00    +0.060 A 
ATOM     10  C   LIG    1        0.014   1.101   0.055  0.00  0.00    -0.010 A 
ATOM     11  C   LIG    1       -1.208   1.768   0.047  0.00  0.00    +0.190 A 
ATOM     12  O   LIG    1       -2.348   1.033   0.016  0.00  0.00    -0.310 OA
ATOM     13  C   LIG    1       -3.626   3.001  -0.529  0.00  0.00    -0.480 C 
ATOM     14  S   LIG    1       -3.232   2.655  -2.268  0.00  0.00    +2.430 S 
ATOM     15  O   LIG    1       -1.949   2.047  -2.331  0.00  0.00    -0.900 OA
ATOM     16  O   LIG    1       -3.489   3.824  -3.034  0.00  0.00    -0.920 OA
ATOM     17  C   LIG    1       -4.489   1.406  -2.671  0.00  0.00    -0.310 C 
ATOM     18  C   LIG    1       -4.408   0.265  -1.655  0.00  0.00    +0.090 C 
ATOM     19  C   LIG    1       -4.729   0.781  -0.255  0.00  0.00    +0.090 C 
ATOM     20  O   LIG    1       -3.676   3.343   3.397  0.00  0.00    -0.560 OA
ATOM     21  C   LIG    1       -3.598   1.677   0.250  0.00  0.00    +0.360 C 
ENDROOT
BRANCH   1  22
ATOM     22  C   LIG    1       -4.321   0.911   2.542  0.00  0.00    +0.330 C 
BRANCH  22  23
ATOM     23  C   LIG    1       -3.190  -0.017   2.990  0.00  0.00    +0.160 C 
BRANCH  23  24
ATOM     24  O   LIG    1       -2.270   0.712   3.805  0.00  0.00    -0.370 OA
BRANCH  24  26
ATOM     25  C   LIG    1       -0.254   0.810   5.135  0.00  0.00    +0.040 C 
ATOM     26  C   LIG    1       -1.169  -0.067   4.278  0.00  0.00    +0.150 C 
ENDBRANCH  24  26
ENDBRANCH  23  24
ENDBRANCH  22  23
ENDBRANCH   1  22
TORSDOF 4
