REMARK  Name = ZINCrH000004l1jo.0
REMARK                            x       y       z     vdW  Elec       q    Type
REMARK                         _______ _______ _______ _____ _____    ______ ____
ROOT
ATOM      1  C   LIG    1        2.470   1.222   0.134  0.00  0.00    +0.570 C 
ATOM      2  N   LIG    1        2.484  -0.107   0.356  0.00  0.00    -0.590 N 
ATOM      3  C   LIG    1        1.244  -0.803   0.708  0.00  0.00    +0.280 C 
ATOM      4  O   LIG    1        3.482   1.788  -0.234  0.00  0.00    -0.520 OA
ENDROOT
BRANCH   1   9
ATOM      5  C   LIG    1        0.090   3.962   1.139  0.00  0.00    -0.130 A 
ATOM      6  C   LIG    1       -1.127   3.426   0.709  0.00  0.00    +0.100 A 
ATOM      7  C   LIG    1       -1.163   2.190   0.095  0.00  0.00    +0.000 A 
ATOM      8  C   LIG    1        0.001   1.470  -0.088  0.00  0.00    +0.090 A 
ATOM      9  C   LIG    1        1.225   1.993   0.336  0.00  0.00    -0.140 A 
ATOM     10  C   LIG    1        1.269   3.242   0.951  0.00  0.00    +0.150 A 
BRANCH   5  11
ATOM     11  C   LIG    1        0.127   5.287   1.790  0.00  0.00    +0.510 C 
ATOM     12  O   LIG    1        1.186   5.751   2.163  0.00  0.00    -0.500 OA
BRANCH  11  14
ATOM     13  C   LIG    1       -0.901   7.276   2.618  0.00  0.00    +0.290 C 
ATOM     14  O   LIG    1       -1.013   5.981   1.970  0.00  0.00    -0.350 OA
ENDBRANCH  11  14
ENDBRANCH   5  11
ENDBRANCH   1   9
BRANCH   2  15
ATOM     15  C   LIG    1        3.739  -0.855   0.247  0.00  0.00    +0.350 C 
BRANCH  15  16
ATOM     16  C   LIG    1        4.231  -0.805  -1.176  0.00  0.00    +0.130 A 
ATOM     17  C   LIG    1        5.578  -0.962  -1.439  0.00  0.00    -0.030 A 
ATOM     18  C   LIG    1        6.021  -0.915  -2.752  0.00  0.00    +0.070 A 
ATOM     19  C   LIG    1        5.087  -0.711  -3.756  0.00  0.00    -0.040 A 
ATOM     20  C   LIG    1        3.755  -0.562  -3.417  0.00  0.00    +0.250 A 
ATOM     21  N   LIG    1        3.370  -0.618  -2.157  0.00  0.00    -0.470 NA
ENDBRANCH  15  16
BRANCH  15  22
ATOM     22  C   LIG    1        3.506  -2.288   0.648  0.00  0.00    -0.100 A 
ATOM     23  C   LIG    1        2.547  -3.041  -0.003  0.00  0.00    +0.040 A 
ATOM     24  C   LIG    1        2.336  -4.358   0.362  0.00  0.00    +0.010 A 
ATOM     25  C   LIG    1        3.077  -4.918   1.385  0.00  0.00    +0.010 A 
ATOM     26  C   LIG    1        4.033  -4.164   2.040  0.00  0.00    +0.010 A 
ATOM     27  C   LIG    1        4.247  -2.849   1.672  0.00  0.00    +0.030 A 
ENDBRANCH  15  22
ENDBRANCH   2  15
TORSDOF 6
