REMARK  Name = ZINCah0000006lkC.0
REMARK                            x       y       z     vdW  Elec       q    Type
REMARK                         _______ _______ _______ _____ _____    ______ ____
ROOT
ATOM      1  C   LIG    1       -0.105   3.749   0.023  0.00  0.00    +0.070 A 
ATOM      2  N   LIG    1       -1.239   3.072   0.030  0.00  0.00    -0.420 NA
ATOM      3  C   LIG    1       -1.220   1.751   0.017  0.00  0.00    +0.240 A 
ATOM      4  C   LIG    1       -0.013   1.076   0.008  0.00  0.00    +0.250 A 
ATOM      5  N   LIG    1        1.123   1.752   0.001  0.00  0.00    -0.430 NA
ATOM      6  C   LIG    1        1.105   3.074   0.008  0.00  0.00    +0.130 A 
ATOM      7 CL   LIG    1        2.596   3.963  -0.001  0.00  0.00    -0.000 Cl
ENDROOT
BRANCH   1   9
ATOM      8  C   LIG    1       -0.521   5.768  -1.356  0.00  0.00    +0.040 C 
ATOM      9  C   LIG    1       -0.127   5.256   0.031  0.00  0.00    +0.270 C 
BRANCH   9  10
ATOM     10  O   LIG    1       -1.077   5.714   0.995  0.00  0.00    -0.550 OA
ATOM     11  H   LIG    1       -1.981   5.416   0.828  0.00  0.00    +0.380 HD
ENDBRANCH   9  10
ENDBRANCH   1   9
TORSDOF 2
