REMARK  Name = ZINCqH0000006dt5.0
REMARK                            x       y       z     vdW  Elec       q    Type
REMARK                         _______ _______ _______ _____ _____    ______ ____
ROOT
ATOM      1  N   LIG    1       -3.567   3.059  -0.631  0.00  0.00    -0.620 N 
ATOM      2  C   LIG    1       -3.771   3.167  -1.961  0.00  0.00    +0.580 C 
ATOM      3  C   LIG    1       -3.016   4.174  -2.727  0.00  0.00    -0.190 A 
ATOM      4  C   LIG    1       -2.965   4.152  -4.117  0.00  0.00    +0.110 A 
ATOM      5  C   LIG    1       -2.247   5.122  -4.787  0.00  0.00    -0.040 A 
ATOM      6  C   LIG    1       -1.581   6.114  -4.087  0.00  0.00    +0.070 A 
ATOM      7  C   LIG    1       -1.621   6.147  -2.705  0.00  0.00    -0.050 A 
ATOM      8  C   LIG    1       -2.333   5.180  -2.018  0.00  0.00    +0.230 A 
ATOM      9  N   LIG    1       -2.398   5.159  -0.633  0.00  0.00    -0.750 N 
ATOM     10  H   LIG    1       -2.341   5.983  -0.124  0.00  0.00    +0.410 HD
ATOM     11  O   LIG    1       -4.571   2.441  -2.521  0.00  0.00    -0.510 OA
ATOM     12  C   LIG    1       -2.553   3.867   0.047  0.00  0.00    +0.540 C 
ENDROOT
BRANCH  12  13
ATOM     13  C   LIG    1       -1.237   3.133   0.030  0.00  0.00    -0.140 A 
ATOM     14  C   LIG    1       -1.218   1.751   0.017  0.00  0.00    +0.080 A 
ATOM     15  C   LIG    1       -0.013   1.076   0.008  0.00  0.00    +0.020 A 
ATOM     16  C   LIG    1        1.179   1.786   0.000  0.00  0.00    +0.110 A 
ATOM     17  C   LIG    1        1.157   3.174   0.008  0.00  0.00    -0.050 A 
ATOM     18  C   LIG    1       -0.051   3.844   0.023  0.00  0.00    +0.080 A 
BRANCH  16  19
ATOM     19  O   LIG    1        2.366   1.125  -0.014  0.00  0.00    -0.310 OA
BRANCH  19  20
ATOM     20  C   LIG    1        3.553   1.921  -0.021  0.00  0.00    +0.600 C 
ATOM     21  F   LIG    1        3.562   2.734  -1.159  0.00  0.00    -0.160 F 
ATOM     22  F   LIG    1        4.675   1.085  -0.036  0.00  0.00    -0.130 F 
ATOM     23  F   LIG    1        3.583   2.723   1.125  0.00  0.00    -0.160 F 
ENDBRANCH  19  20
ENDBRANCH  16  19
ENDBRANCH  12  13
BRANCH   1  24
ATOM     24  C   LIG    1       -4.374   2.116   0.146  0.00  0.00    +0.310 C 
BRANCH  24  25
ATOM     25  C   LIG    1       -5.635   2.820   0.652  0.00  0.00    +0.150 C 
BRANCH  25  27
ATOM     26  C   LIG    1       -7.662   3.857  -0.096  0.00  0.00    +0.200 C 
ATOM     27  O   LIG    1       -6.452   3.189  -0.460  0.00  0.00    -0.370 OA
ENDBRANCH  25  27
ENDBRANCH  24  25
ENDBRANCH   1  24
TORSDOF 6
