REMARK  Name = ZINCrg00000SjSEM.0
REMARK                            x       y       z     vdW  Elec       q    Type
REMARK                         _______ _______ _______ _____ _____    ______ ____
ROOT
ATOM      1  C   LIG    1        3.148   6.824   0.168  0.00  0.00    +0.540 C 
ATOM      2  N   LIG    1        2.946   8.054   0.682  0.00  0.00    -0.710 N 
ATOM      3  H   LIG    1        2.060   8.315   0.980  0.00  0.00    +0.420 HD
ATOM      4  O   LIG    1        4.255   6.497  -0.204  0.00  0.00    -0.520 OA
ENDROOT
BRANCH   1   6
ATOM      5  C   LIG    1        1.239   6.116  -1.247  0.00  0.00    +0.100 C 
ATOM      6  C   LIG    1        1.998   5.856   0.055  0.00  0.00    +0.030 C 
BRANCH   6   7
ATOM      7  S   LIG    1        2.635   4.162   0.055  0.00  0.00    +0.080 S 
BRANCH   7   8
ATOM      8  C   LIG    1        1.118   3.266   0.069  0.00  0.00    +0.390 A 
ATOM      9  N   LIG    1       -0.022   3.926   0.076  0.00  0.00    -0.580 NA
ATOM     10  C   LIG    1       -1.195   3.283   0.087  0.00  0.00    +0.460 A 
ATOM     11  C   LIG    1       -1.219   1.895   0.086  0.00  0.00    -0.250 A 
ATOM     12  C   LIG    1       -0.005   1.201   0.084  0.00  0.00    +0.540 A 
ATOM     13  O   LIG    1        0.013  -0.020   0.087  0.00  0.00    -0.550 OA
ATOM     14  N   LIG    1        1.147   1.904   0.073  0.00  0.00    -0.620 N 
ATOM     15  H   LIG    1        1.998   1.438   0.068  0.00  0.00    +0.420 HD
BRANCH  10  16
ATOM     16  N   LIG    1       -2.377   3.996   0.095  0.00  0.00    -0.830 N 
ATOM     17  H   LIG    1       -3.226   3.527   0.102  0.00  0.00    +0.420 HD
ATOM     18  H   LIG    1       -2.357   4.966   0.092  0.00  0.00    +0.410 HD
ENDBRANCH  10  16
ENDBRANCH   7   8
ENDBRANCH   6   7
ENDBRANCH   1   6
BRANCH   2  19
ATOM     19  C   LIG    1        4.063   8.995   0.791  0.00  0.00    +0.320 C 
BRANCH  19  20
ATOM     20  C   LIG    1        3.575  10.287   1.393  0.00  0.00    +0.520 C 
ATOM     21  N   LIG    1        4.434  11.306   1.590  0.00  0.00    -0.660 N 
ATOM     22  H   LIG    1        5.379  11.187   1.405  0.00  0.00    +0.420 HD
ATOM     23  O   LIG    1        2.408  10.410   1.701  0.00  0.00    -0.510 OA
BRANCH  21  24
ATOM     24  C   LIG    1        3.963  12.539   2.062  0.00  0.00    +0.130 A 
ATOM     25  C   LIG    1        2.910  12.581   2.965  0.00  0.00    +0.100 A 
ATOM     26  C   LIG    1        2.446  13.796   3.430  0.00  0.00    +0.050 A 
ATOM     27  C   LIG    1        3.030  14.974   2.998  0.00  0.00    +0.090 A 
ATOM     28  C   LIG    1        4.083  14.937   2.096  0.00  0.00    +0.050 A 
ATOM     29  F   LIG    1        4.653  16.088   1.675  0.00  0.00    -0.110 F 
ATOM     30  F   LIG    1        2.575  16.161   3.456  0.00  0.00    -0.120 F 
ATOM     31  C   LIG    1        4.554  13.721   1.632  0.00  0.00    +0.070 A 
ATOM     32  F   LIG    1        5.584  13.684   0.758  0.00  0.00    -0.110 F 
ENDBRANCH  21  24
ENDBRANCH  19  20
ENDBRANCH   2  19
TORSDOF 7
