REMARK  Name = ZINCqH0000003apL.1
REMARK                            x       y       z     vdW  Elec       q    Type
REMARK                         _______ _______ _______ _____ _____    ______ ____
ROOT
ATOM      1  C   LIG    1        1.178   1.785   0.000  0.00  0.00    -0.020 A 
ATOM      2  C   LIG    1       -0.013   1.076   0.008  0.00  0.00    +0.000 A 
ATOM      3  C   LIG    1       -1.220   1.751   0.017  0.00  0.00    -0.110 A 
ATOM      4  C   LIG    1       -1.243   3.133   0.031  0.00  0.00    +0.060 A 
ATOM      5  C   LIG    1       -0.059   3.849   0.023  0.00  0.00    -0.160 A 
ATOM      6  C   LIG    1        1.155   3.180   0.008  0.00  0.00    +0.310 A 
ENDROOT
BRANCH   1  10
ATOM      7  N   LIG    1        4.040  -1.235  -0.082  0.00  0.00    -0.390 N 
ATOM      8  C   LIG    1        3.910  -0.437   1.144  0.00  0.00    +0.270 C 
ATOM      9  C   LIG    1        2.539   0.242   1.168  0.00  0.00    +0.200 C 
ATOM     10  N   LIG    1        2.401   1.104  -0.015  0.00  0.00    -0.450 N 
ATOM     11  C   LIG    1        2.554   0.323  -1.250  0.00  0.00    +0.200 C 
ATOM     12  C   LIG    1        3.925  -0.357  -1.254  0.00  0.00    +0.270 C 
ATOM     13  H   LIG    1        3.309  -1.930  -0.110  0.00  0.00    +0.420 HD
BRANCH   7  15
ATOM     14  C   LIG    1        5.436  -2.830  -1.309  0.00  0.00    +0.070 C 
ATOM     15  C   LIG    1        5.349  -1.901  -0.096  0.00  0.00    +0.250 C 
ENDBRANCH   7  15
ENDBRANCH   1  10
BRANCH   6  16
ATOM     16  N   LIG    1        2.354   3.903   0.000  0.00  0.00    -1.060 NA
BRANCH  16  17
ATOM     17  S   LIG    1        2.323   5.558   0.009  0.00  0.00    +2.600 S 
ATOM     18  O   LIG    1        1.784   5.943   1.267  0.00  0.00    -1.020 OA
ATOM     19  O   LIG    1        1.759   5.956  -1.233  0.00  0.00    -1.020 OA
BRANCH  17  20
ATOM     20  C   LIG    1        3.996   6.111  -0.004  0.00  0.00    -0.600 A 
ATOM     21  C   LIG    1        4.640   6.335  -1.207  0.00  0.00    +0.110 A 
ATOM     22  C   LIG    1        5.953   6.769  -1.218  0.00  0.00    +0.030 A 
ATOM     23  C   LIG    1        6.621   6.980  -0.026  0.00  0.00    -0.060 A 
ATOM     24  C   LIG    1        5.976   6.756   1.178  0.00  0.00    -0.080 A 
ATOM     25  C   LIG    1        6.704   6.986   2.477  0.00  0.00    +0.110 C 
ATOM     26 BR   LIG    1        8.417   7.573  -0.040  0.00  0.00    -0.050 Br
ATOM     27  C   LIG    1        4.662   6.327   1.188  0.00  0.00    +0.120 A 
ENDBRANCH  17  20
ENDBRANCH  16  17
ENDBRANCH   6  16
TORSDOF 5
