REMARK  Name = ZINCpe000000VLyA.0
REMARK                            x       y       z     vdW  Elec       q    Type
REMARK                         _______ _______ _______ _____ _____    ______ ____
ROOT
ATOM      1  C   LIG    1        1.510  -0.636  -0.243  0.00  0.00    -0.140 A 
ATOM      2  C   LIG    1        0.918  -0.210   0.928  0.00  0.00    +0.480 A 
ATOM      3  N   LIG    1        0.852   1.138   1.196  0.00  0.00    -0.540 N 
ATOM      4  C   LIG    1        1.359   2.030   0.325  0.00  0.00    +0.710 A 
ATOM      5  N   LIG    1        1.939   1.633  -0.821  0.00  0.00    -0.660 N 
ATOM      6  H   LIG    1        2.296   2.296  -1.432  0.00  0.00    +0.430 HD
ATOM      7  O   LIG    1        1.290   3.217   0.580  0.00  0.00    -0.530 OA
ATOM      8  C   LIG    1        2.029   0.325  -1.131  0.00  0.00    +0.570 A 
ATOM      9  O   LIG    1        2.557  -0.024  -2.174  0.00  0.00    -0.510 OA
ENDROOT
BRANCH   1  10
ATOM     10  N   LIG    1        1.594  -2.012  -0.546  0.00  0.00    -0.530 N 
ATOM     11  C   LIG    1        2.798  -2.617  -0.606  0.00  0.00    +0.550 C 
ATOM     12  O   LIG    1        3.800  -2.005  -0.302  0.00  0.00    -0.510 OA
BRANCH  11  13
ATOM     13  C   LIG    1        2.897  -4.054  -1.050  0.00  0.00    -0.070 C 
ATOM     14  C   LIG    1        3.567  -4.332  -2.398  0.00  0.00    +0.050 C 
ATOM     15  C   LIG    1        4.291  -4.684  -1.097  0.00  0.00    -0.010 C 
ATOM     16  C   LIG    1        5.477  -3.807  -0.689  0.00  0.00    +0.070 C 
ENDBRANCH  11  13
BRANCH  10  17
ATOM     17  C   LIG    1        0.373  -2.782  -0.795  0.00  0.00    +0.270 C 
BRANCH  17  18
ATOM     18  C   LIG    1       -0.023  -2.649  -2.267  0.00  0.00    +0.030 C 
BRANCH  18  19
ATOM     19  C   LIG    1       -1.298  -3.454  -2.527  0.00  0.00    +0.160 C 
BRANCH  19  21
ATOM     20  C   LIG    1       -2.853  -4.047  -4.252  0.00  0.00    +0.200 C 
ATOM     21  O   LIG    1       -1.668  -3.329  -3.902  0.00  0.00    -0.390 OA
ENDBRANCH  19  21
ENDBRANCH  18  19
ENDBRANCH  17  18
ENDBRANCH  10  17
ENDBRANCH   1  10
BRANCH   2  22
ATOM     22  N   LIG    1        0.402  -1.121   1.817  0.00  0.00    -0.830 N 
ATOM     23  H   LIG    1        0.395  -2.066   1.596  0.00  0.00    +0.420 HD
ATOM     24  H   LIG    1        0.043  -0.820   2.667  0.00  0.00    +0.410 HD
ENDBRANCH   2  22
BRANCH   3  25
ATOM     25  C   LIG    1        0.222   1.605   2.433  0.00  0.00    +0.310 C 
BRANCH  25  26
ATOM     26  C   LIG    1        1.274   1.696   3.539  0.00  0.00    -0.030 C 
ATOM     27  C   LIG    1        1.802   0.295   3.857  0.00  0.00    +0.030 C 
ATOM     28  C   LIG    1        0.643   2.300   4.795  0.00  0.00    +0.040 C 
ENDBRANCH  25  26
ENDBRANCH   3  25
TORSDOF 9
