REMARK  Name = ZINCqH00000014fC.0
REMARK                            x       y       z     vdW  Elec       q    Type
REMARK                         _______ _______ _______ _____ _____    ______ ____
ROOT
ATOM      1  N   LIG    1        5.422   2.158  -0.039  0.00  0.00    -0.670 N 
ATOM      2  H   LIG    1        5.987   1.373   0.029  0.00  0.00    +0.420 HD
ATOM      3  C   LIG    1        5.978   3.382  -0.140  0.00  0.00    +0.510 C 
ATOM      4  O   LIG    1        5.275   4.370  -0.128  0.00  0.00    -0.510 OA
ENDROOT
BRANCH   1   9
ATOM      5  C   LIG    1       -0.286   2.877  -1.017  0.00  0.00    +0.270 A 
ATOM      6  N   LIG    1        0.841   3.424  -1.364  0.00  0.00    -0.470 NA
ATOM      7  C   LIG    1        1.859   2.750  -0.762  0.00  0.00    +0.040 A 
ATOM      8  C   LIG    1        3.246   2.891  -0.771  0.00  0.00    +0.090 A 
ATOM      9  C   LIG    1        4.028   2.021  -0.032  0.00  0.00    +0.140 A 
ATOM     10  C   LIG    1        3.434   1.010   0.719  0.00  0.00    +0.040 A 
ATOM     11  C   LIG    1        2.063   0.864   0.732  0.00  0.00    +0.070 A 
ATOM     12  C   LIG    1        1.267   1.728  -0.004  0.00  0.00    -0.010 A 
ATOM     13  O   LIG    1       -0.067   1.843  -0.190  0.00  0.00    -0.210 OA
BRANCH   5  15
ATOM     14  C   LIG    1       -1.723   3.248  -3.004  0.00  0.00    +0.070 C 
ATOM     15  C   LIG    1       -1.645   3.338  -1.479  0.00  0.00    +0.020 C 
ATOM     16  C   LIG    1       -1.867   4.788  -1.042  0.00  0.00    +0.070 C 
ATOM     17  C   LIG    1       -2.723   2.448  -0.858  0.00  0.00    +0.050 C 
ENDBRANCH   5  15
ENDBRANCH   1   9
BRANCH   3  18
ATOM     18  C   LIG    1        7.473   3.522  -0.267  0.00  0.00    +0.310 C 
BRANCH  18  19
ATOM     19  N   LIG    1        7.825   4.941  -0.360  0.00  0.00    -0.720 N 
ATOM     20  H   LIG    1        7.128   5.616  -0.335  0.00  0.00    +0.410 HD
ATOM     21  C   LIG    1        9.116   5.309  -0.481  0.00  0.00    +0.520 C 
ATOM     22  O   LIG    1        9.986   4.465  -0.512  0.00  0.00    -0.540 OA
BRANCH  21  23
ATOM     23  C   LIG    1        9.477   6.769  -0.577  0.00  0.00    +0.000 C 
ATOM     24  C   LIG    1        8.802   7.382  -1.805  0.00  0.00    +0.030 C 
ATOM     25  C   LIG    1        9.169   8.864  -1.903  0.00  0.00    +0.020 C 
ATOM     26  C   LIG    1       10.687   9.006  -2.031  0.00  0.00    +0.000 C 
ATOM     27  C   LIG    1       11.362   8.393  -0.803  0.00  0.00    +0.010 C 
ATOM     28  C   LIG    1       10.995   6.911  -0.706  0.00  0.00    +0.040 C 
ENDBRANCH  21  23
ENDBRANCH  18  19
ENDBRANCH   3  18
TORSDOF 5
