REMARK  Name = ZINCqH0000035FGh.0
REMARK                            x       y       z     vdW  Elec       q    Type
REMARK                         _______ _______ _______ _____ _____    ______ ____
ROOT
ATOM      1  C   LIG    1        0.043  -2.029   1.433  0.00  0.00    +0.520 C 
ATOM      2  N   LIG    1        0.064  -2.709   2.597  0.00  0.00    -0.620 N 
ATOM      3  H   LIG    1        0.065  -2.228   3.439  0.00  0.00    +0.430 HD
ATOM      4  O   LIG    1        0.041  -2.629   0.380  0.00  0.00    -0.500 OA
ENDROOT
BRANCH   2   5
ATOM      5  C   LIG    1        0.082  -4.098   2.589  0.00  0.00    +0.280 A 
ATOM      6  N   LIG    1        0.103  -4.853   3.643  0.00  0.00    -0.500 NA
ATOM      7  C   LIG    1        0.118  -6.163   3.445  0.00  0.00    +0.130 A 
ATOM      8  C   LIG    1        0.110  -6.552   2.157  0.00  0.00    -0.110 A 
ATOM      9  S   LIG    1        0.075  -5.108   1.147  0.00  0.00    +0.220 S 
BRANCH   7  10
ATOM     10  C   LIG    1        0.141  -7.135   4.565  0.00  0.00    -0.070 A 
ATOM     11  C   LIG    1        0.148  -6.691   5.890  0.00  0.00    +0.090 A 
ATOM     12  C   LIG    1        0.170  -7.637   6.900  0.00  0.00    -0.030 A 
ATOM     13  C   LIG    1        0.183  -8.980   6.569  0.00  0.00    +0.260 A 
ATOM     14  N   LIG    1        0.175  -9.369   5.308  0.00  0.00    -0.480 NA
ATOM     15  C   LIG    1        0.150  -8.506   4.314  0.00  0.00    +0.280 A 
ENDBRANCH   7  10
ENDBRANCH   2   5
BRANCH   1  16
ATOM     16  C   LIG    1        0.023  -0.522   1.442  0.00  0.00    +0.090 C 
BRANCH  16  17
ATOM     17  C   LIG    1        0.002  -0.004   0.002  0.00  0.00    +0.110 C 
BRANCH  17  20
ATOM     18  C   LIG    1        1.153   3.596   0.009  0.00  0.00    +0.170 A 
ATOM     19  C   LIG    1        1.169   2.209   0.003  0.00  0.00    -0.050 A 
ATOM     20  C   LIG    1       -0.018   1.503   0.010  0.00  0.00    -0.010 A 
ATOM     21  C   LIG    1       -1.225   2.176   0.020  0.00  0.00    -0.050 A 
ATOM     22  C   LIG    1       -1.246   3.564   0.032  0.00  0.00    +0.170 A 
ATOM     23  C   LIG    1       -0.056   4.274   0.024  0.00  0.00    -0.170 A 
BRANCH  18  25
ATOM     24  C   LIG    1        2.230   5.716   0.009  0.00  0.00    +0.250 C 
ATOM     25  O   LIG    1        2.322   4.290   0.001  0.00  0.00    -0.310 OA
ENDBRANCH  18  25
BRANCH  22  26
ATOM     26  O   LIG    1       -2.433   4.225   0.047  0.00  0.00    -0.310 OA
ATOM     27  C   LIG    1       -2.380   5.653   0.054  0.00  0.00    +0.250 C 
ENDBRANCH  22  26
ENDBRANCH  17  20
ENDBRANCH  16  17
ENDBRANCH   1  16
TORSDOF 7
