REMARK  Name = ZINCpe00000VVGKY.0
REMARK                            x       y       z     vdW  Elec       q    Type
REMARK                         _______ _______ _______ _____ _____    ______ ____
ROOT
ATOM      1  N   LIG    1       -0.111  -8.243  -6.587  0.00  0.00    -0.570 N 
ATOM      2  C   LIG    1       -0.398  -6.971  -6.894  0.00  0.00    +0.710 C 
ATOM      3  N   LIG    1        0.088  -6.101  -5.983  0.00  0.00    -0.720 N 
ATOM      4  H   LIG    1        0.004  -5.134  -5.996  0.00  0.00    +0.440 HD
ATOM      5  C   LIG    1        0.766  -6.910  -4.975  0.00  0.00    +0.090 C 
ATOM      6  C   LIG    1        2.252  -6.532  -4.846  0.00  0.00    +0.070 C 
ATOM      7  C   LIG    1        2.190  -5.378  -3.810  0.00  0.00    +0.210 C 
ATOM      8  N   LIG    1        1.109  -5.763  -2.875  0.00  0.00    -0.500 NA
ATOM      9  C   LIG    1        0.193  -6.689  -3.573  0.00  0.00    +0.240 C 
ATOM     10  O   LIG    1       -1.025  -6.638  -7.880  0.00  0.00    -0.530 OA
ATOM     11  C   LIG    1        0.595  -8.330  -5.437  0.00  0.00    +0.540 C 
ATOM     12  O   LIG    1        1.003  -9.335  -4.897  0.00  0.00    -0.450 OA
ENDROOT
BRANCH   1  14
ATOM     13  C   LIG    1       -2.040  -9.438  -7.499  0.00  0.00    +0.050 C 
ATOM     14  C   LIG    1       -0.514  -9.396  -7.395  0.00  0.00    +0.250 C 
ATOM     15  C   LIG    1        0.090  -9.273  -8.796  0.00  0.00    +0.050 C 
ENDBRANCH   1  14
BRANCH   8  16
ATOM     16  C   LIG    1        0.390  -4.579  -2.386  0.00  0.00    +0.210 C 
BRANCH  16  17
ATOM     17  C   LIG    1        1.291  -3.784  -1.477  0.00  0.00    +0.520 C 
ATOM     18  N   LIG    1        0.841  -2.648  -0.908  0.00  0.00    -0.730 N 
ATOM     19  H   LIG    1       -0.063  -2.343  -1.083  0.00  0.00    +0.400 HD
ATOM     20  O   LIG    1        2.421  -4.165  -1.258  0.00  0.00    -0.510 OA
BRANCH  18  21
ATOM     21  C   LIG    1        1.717  -1.875  -0.024  0.00  0.00    +0.350 C 
ATOM     22  C   LIG    1        1.641  -2.443   1.395  0.00  0.00    +0.040 C 
BRANCH  21  23
ATOM     23  C   LIG    1        1.274  -0.435  -0.012  0.00  0.00    -0.030 A 
ATOM     24  C   LIG    1        2.086   0.638  -0.014  0.00  0.00    -0.040 A 
ATOM     25  C   LIG    1        1.254   1.781  -0.000  0.00  0.00    -0.060 A 
ATOM     26  C   LIG    1       -0.016   1.339   0.009  0.00  0.00    +0.180 A 
ATOM     27  O   LIG    1        0.002  -0.004   0.002  0.00  0.00    -0.180 OA
ENDBRANCH  21  23
ENDBRANCH  18  21
ENDBRANCH  16  17
ENDBRANCH   8  16
TORSDOF 5
