REMARK  Name = ZINCrD00000hQ69V.0
REMARK                            x       y       z     vdW  Elec       q    Type
REMARK                         _______ _______ _______ _____ _____    ______ ____
ROOT
ATOM      1  N   LIG    1       -1.406  -2.736   0.572  0.00  0.00    -0.530 NA
ATOM      2  C   LIG    1       -0.406  -3.021   1.610  0.00  0.00    +0.170 C 
ATOM      3  C   LIG    1       -0.920  -2.516   2.962  0.00  0.00    +0.290 C 
ATOM      4  N   LIG    1       -2.249  -3.098   3.204  0.00  0.00    -0.620 N 
ATOM      5  C   LIG    1       -3.266  -2.972   2.148  0.00  0.00    +0.280 C 
ATOM      6  C   LIG    1       -2.528  -3.730   4.361  0.00  0.00    +0.520 C 
ATOM      7  O   LIG    1       -1.653  -3.904   5.183  0.00  0.00    -0.530 OA
ATOM      8  C   LIG    1       -2.659  -3.458   0.828  0.00  0.00    +0.170 C 
ENDROOT
BRANCH   6   9
ATOM      9  C   LIG    1       -3.926  -4.221   4.633  0.00  0.00    +0.070 C 
ATOM     10  C   LIG    1       -4.782  -3.063   5.150  0.00  0.00    +0.050 C 
BRANCH   9  11
ATOM     11  C   LIG    1       -3.882  -5.314   5.669  0.00  0.00    -0.170 A 
ATOM     12  C   LIG    1       -3.414  -5.207   6.923  0.00  0.00    +0.270 A 
ATOM     13  N   LIG    1       -3.537  -6.407   7.571  0.00  0.00    -0.490 N 
ATOM     14  C   LIG    1       -4.100  -7.338   6.728  0.00  0.00    +0.090 A 
ATOM     15  C   LIG    1       -4.440  -8.679   6.872  0.00  0.00    -0.010 A 
ATOM     16  C   LIG    1       -5.005  -9.360   5.816  0.00  0.00    +0.020 A 
ATOM     17  C   LIG    1       -5.241  -8.721   4.607  0.00  0.00    -0.020 A 
ATOM     18  C   LIG    1       -4.915  -7.404   4.443  0.00  0.00    +0.040 A 
ATOM     19  C   LIG    1       -3.129  -6.661   8.954  0.00  0.00    +0.310 C 
ATOM     20  C   LIG    1       -4.347  -6.693   5.502  0.00  0.00    -0.100 A 
ENDBRANCH   9  11
ENDBRANCH   6   9
BRANCH   1  21
ATOM     21  C   LIG    1       -0.882  -3.047  -0.764  0.00  0.00    +0.280 C 
BRANCH  21  26
ATOM     22  C   LIG    1        2.565   0.866  -2.288  0.00  0.00    +0.180 C 
ATOM     23  C   LIG    1        1.813  -0.337  -1.780  0.00  0.00    +0.040 A 
ATOM     24  N   LIG    1        2.353  -1.357  -1.203  0.00  0.00    -0.480 NA
ATOM     25  C   LIG    1        1.548  -2.327  -0.819  0.00  0.00    +0.210 A 
ATOM     26  C   LIG    1        0.257  -2.114  -1.087  0.00  0.00    -0.220 A 
ATOM     27  S   LIG    1        0.119  -0.549  -1.886  0.00  0.00    +0.150 S 
ENDBRANCH  21  26
ENDBRANCH   1  21
TORSDOF 4
