REMARK  Name = ZINCrH000004rjVN.0
REMARK                            x       y       z     vdW  Elec       q    Type
REMARK                         _______ _______ _______ _____ _____    ______ ____
ROOT
ATOM      1  N   LIG    1       -5.121   1.651   0.986  0.00  0.00    -0.540 N 
ATOM      2  C   LIG    1       -4.248   1.577  -0.039  0.00  0.00    +0.530 C 
ATOM      3  O   LIG    1       -4.613   1.155  -1.116  0.00  0.00    -0.510 OA
ENDROOT
BRANCH   2   4
ATOM      4  C   LIG    1       -2.820   2.017   0.154  0.00  0.00    -0.010 C 
ATOM      5  C   LIG    1       -2.141   1.112   1.185  0.00  0.00    +0.040 C 
ATOM      6  C   LIG    1       -0.697   1.580   1.408  0.00  0.00    +0.030 C 
ATOM      7  C   LIG    1        0.073   1.477   0.088  0.00  0.00    +0.260 C 
ATOM      8  N   LIG    1       -0.653   2.227  -0.947  0.00  0.00    -0.610 N 
ATOM      9  C   LIG    1       -0.030   3.178  -1.669  0.00  0.00    +0.550 C 
ATOM     10  O   LIG    1       -0.640   3.790  -2.520  0.00  0.00    -0.530 OA
ATOM     11  C   LIG    1       -2.071   1.919  -1.178  0.00  0.00    +0.310 C 
BRANCH   9  12
ATOM     12  C   LIG    1        1.425   3.482  -1.421  0.00  0.00    -0.070 C 
ATOM     13  C   LIG    1        1.768   4.836  -0.796  0.00  0.00    +0.060 C 
ATOM     14  C   LIG    1        2.075   4.574  -2.272  0.00  0.00    +0.060 C 
ENDBRANCH   9  12
ENDBRANCH   2   4
BRANCH   1  19
ATOM     15  C   LIG    1      -10.367  -0.302   0.465  0.00  0.00    +0.100 C 
ATOM     16  C   LIG    1       -8.951   0.202   0.574  0.00  0.00    -0.160 A 
ATOM     17  C   LIG    1       -7.992  -0.199  -0.346  0.00  0.00    +0.080 A 
ATOM     18  C   LIG    1       -6.703   0.286  -0.209  0.00  0.00    -0.020 A 
ATOM     19  C   LIG    1       -6.415   1.154   0.837  0.00  0.00    +0.350 A 
ATOM     20  N   LIG    1       -7.356   1.509   1.697  0.00  0.00    -0.500 NA
ATOM     21  C   LIG    1       -8.595   1.067   1.589  0.00  0.00    +0.280 A 
ENDBRANCH   1  19
BRANCH   1  22
ATOM     22  C   LIG    1       -4.709   2.254   2.256  0.00  0.00    +0.240 C 
ATOM     23  C   LIG    1       -4.927   1.251   3.391  0.00  0.00    +0.010 C 
ATOM     24  C   LIG    1       -4.497   1.881   4.718  0.00  0.00    +0.020 C 
ATOM     25  C   LIG    1       -5.331   3.136   4.980  0.00  0.00    +0.010 C 
ATOM     26  C   LIG    1       -5.113   4.139   3.845  0.00  0.00    +0.020 C 
ATOM     27  C   LIG    1       -5.543   3.510   2.519  0.00  0.00    +0.020 C 
ENDBRANCH   1  22
TORSDOF 4
