REMARK  Name = ZINCvU00000007FJ.0
REMARK                            x       y       z     vdW  Elec       q    Type
REMARK                         _______ _______ _______ _____ _____    ______ ____
ROOT
ATOM      1  C   LIG    1        2.310   0.028  -0.020  0.00  0.00    +0.440 A 
ATOM      2  N   LIG    1        1.188  -0.635  -0.013  0.00  0.00    -0.550 NA
ATOM      3  C   LIG    1        0.002  -0.004   0.002  0.00  0.00    +0.540 A 
ATOM      4  C   LIG    1       -0.018   1.471   0.010  0.00  0.00    -0.220 A 
ATOM      5  C   LIG    1        1.202   2.122   0.002  0.00  0.00    +0.060 A 
ATOM      6  S   LIG    1        0.956   3.862   0.014  0.00  0.00    +0.190 S 
ATOM      7  C   LIG    1       -0.788   3.686   0.029  0.00  0.00    -0.040 A 
ATOM      8  C   LIG    1       -1.139   2.400   0.020  0.00  0.00    +0.010 A 
ATOM      9  O   LIG    1       -1.040  -0.640   0.008  0.00  0.00    -0.470 OA
ATOM     10  N   LIG    1        2.357   1.369  -0.013  0.00  0.00    -0.590 N 
ATOM     11  H   LIG    1        3.218   1.817  -0.020  0.00  0.00    +0.420 HD
ENDROOT
BRANCH   8  12
ATOM     12  C   LIG    1       -2.553   1.953   0.023  0.00  0.00    -0.040 A 
ATOM     13  C   LIG    1       -2.991   1.013  -0.909  0.00  0.00    +0.080 A 
ATOM     14  C   LIG    1       -4.306   0.596  -0.898  0.00  0.00    +0.030 A 
ATOM     15  C   LIG    1       -5.193   1.118   0.028  0.00  0.00    -0.030 A 
ATOM     16  C   LIG    1       -4.764   2.056   0.952  0.00  0.00    +0.020 A 
ATOM     17 CL   LIG    1       -6.848   0.594   0.032  0.00  0.00    -0.070 Cl
ATOM     18  C   LIG    1       -3.450   2.475   0.953  0.00  0.00    +0.040 A 
ENDBRANCH   8  12
BRANCH   1  19
ATOM     19  C   LIG    1        3.606  -0.741  -0.036  0.00  0.00    +0.290 C 
BRANCH  19  20
ATOM     20  N   LIG    1        3.320  -2.182  -0.041  0.00  0.00    -0.510 NA
ATOM     21  C   LIG    1        2.659  -2.583  -1.291  0.00  0.00    +0.200 C 
BRANCH  20  23
ATOM     22  C   LIG    1        5.149  -2.588   1.535  0.00  0.00    +0.050 C 
ATOM     23  C   LIG    1        4.544  -2.963   0.181  0.00  0.00    +0.180 C 
BRANCH  23  24
ATOM     24  C   LIG    1        4.211  -4.433   0.169  0.00  0.00    -0.080 A 
ATOM     25  C   LIG    1        3.056  -4.885   0.778  0.00  0.00    +0.120 A 
ATOM     26  C   LIG    1        2.748  -6.232   0.763  0.00  0.00    +0.030 A 
ATOM     27  C   LIG    1        3.602  -7.129   0.148  0.00  0.00    +0.100 A 
ATOM     28  C   LIG    1        4.760  -6.678  -0.456  0.00  0.00    -0.050 A 
ATOM     29  C   LIG    1        5.065  -5.330  -0.446  0.00  0.00    +0.100 A 
BRANCH  28  30
ATOM     30  N   LIG    1        5.674  -7.638  -1.114  0.00  0.00    +0.030 N 
ATOM     31  O   LIG    1        5.406  -8.826  -1.123  0.00  0.00    -0.160 OA
ATOM     32  O   LIG    1        6.695  -7.240  -1.646  0.00  0.00    -0.160 OA
ENDBRANCH  28  30
ENDBRANCH  23  24
ENDBRANCH  20  23
ENDBRANCH  19  20
ENDBRANCH   1  19
TORSDOF 6
