REMARK  Name = ZINCrD00000F5LEe.0
REMARK                            x       y       z     vdW  Elec       q    Type
REMARK                         _______ _______ _______ _____ _____    ______ ____
ROOT
ATOM      1  C   LIG    1       -4.883   1.305   0.245  0.00  0.00    -0.140 A 
ATOM      2  C   LIG    1       -4.871  -0.091   0.232  0.00  0.00    +0.050 A 
ATOM      3  C   LIG    1       -6.056  -0.789   0.344  0.00  0.00    +0.010 A 
ATOM      4  C   LIG    1       -7.255  -0.109   0.457  0.00  0.00    +0.050 A 
ATOM      5  C   LIG    1       -7.274   1.275   0.466  0.00  0.00    -0.090 A 
ATOM      6  C   LIG    1       -6.097   1.985   0.360  0.00  0.00    +0.100 A 
ENDROOT
BRANCH   5   7
ATOM      7  C   LIG    1       -8.585   2.008   0.590  0.00  0.00    +0.270 C 
ATOM      8  C   LIG    1       -9.042   2.020   2.064  0.00  0.00    +0.050 C 
ATOM      9  C   LIG    1      -10.578   1.827   1.954  0.00  0.00    +0.040 C 
ATOM     10  C   LIG    1      -10.684   0.869   0.741  0.00  0.00    +0.250 C 
ATOM     11  N   LIG    1       -9.623   1.310  -0.183  0.00  0.00    -0.610 N 
ATOM     12  C   LIG    1       -9.607   1.106  -1.515  0.00  0.00    +0.560 C 
ATOM     13  O   LIG    1       -8.676   1.516  -2.181  0.00  0.00    -0.530 OA
BRANCH  12  14
ATOM     14  C   LIG    1      -10.716   0.389  -2.163  0.00  0.00    -0.090 C 
ATOM     15  C   LIG    1      -10.701   0.188  -3.477  0.00  0.00    +0.140 C 
ENDBRANCH  12  14
ENDBRANCH   5   7
BRANCH   1  18
ATOM     16  N   LIG    1       -2.447   1.399   0.021  0.00  0.00    -0.660 N 
ATOM     17  H   LIG    1       -2.440   0.432  -0.047  0.00  0.00    +0.420 HD
ATOM     18  C   LIG    1       -3.617   2.059   0.132  0.00  0.00    +0.570 C 
ATOM     19  O   LIG    1       -3.631   3.275   0.139  0.00  0.00    -0.510 OA
BRANCH  16  26
ATOM     20  C   LIG    1       -0.091   1.568   0.590  0.00  0.00    +0.190 A 
ATOM     21  N   LIG    1        1.053   2.241   0.568  0.00  0.00    -0.420 NA
ATOM     22  C   LIG    1        1.146   3.430   0.009  0.00  0.00    +0.250 A 
ATOM     23  C   LIG    1        0.046   4.029  -0.585  0.00  0.00    +0.080 A 
ATOM     24  C   LIG    1       -1.173   3.364  -0.588  0.00  0.00    +0.050 A 
ATOM     25  F   LIG    1        0.159   5.248  -1.155  0.00  0.00    -0.120 F 
ATOM     26  C   LIG    1       -1.244   2.108   0.005  0.00  0.00    +0.150 A 
BRANCH  20  28
ATOM     27  C   LIG    1       -0.190  -0.779   1.718  0.00  0.00    +0.100 C 
ATOM     28  C   LIG    1       -0.145   0.278   1.210  0.00  0.00    -0.150 C 
ENDBRANCH  20  28
ENDBRANCH  16  26
ENDBRANCH   1  18
TORSDOF 5
