REMARK  Name = ZINCrH00000tj1l5.0
REMARK                            x       y       z     vdW  Elec       q    Type
REMARK                         _______ _______ _______ _____ _____    ______ ____
ROOT
ATOM      1  C   LIG    1        1.218   4.045   9.517  0.00  0.00    -0.010 C 
ATOM      2  C   LIG    1       -0.077   3.349   9.944  0.00  0.00    +0.050 C 
ATOM      3  C   LIG    1       -1.270   4.053   9.289  0.00  0.00    +0.300 C 
ATOM      4  N   LIG    1       -1.057   4.092   7.836  0.00  0.00    -0.630 N 
ATOM      5  C   LIG    1        0.200   4.653   7.321  0.00  0.00    +0.260 C 
ATOM      6  C   LIG    1       -1.994   3.617   6.992  0.00  0.00    +0.710 C 
ATOM      7  N   LIG    1       -1.744   3.565   5.668  0.00  0.00    -0.740 N 
ATOM      8  H   LIG    1       -0.917   3.929   5.316  0.00  0.00    +0.390 HD
ATOM      9  O   LIG    1       -3.064   3.234   7.424  0.00  0.00    -0.580 OA
ATOM     10  C   LIG    1        1.374   3.948   7.997  0.00  0.00    +0.030 C 
ENDROOT
BRANCH   1  14
ATOM     11  C   LIG    1        4.783   3.172  10.605  0.00  0.00    +0.290 C 
ATOM     12  N   LIG    1        3.642   3.823   9.956  0.00  0.00    -0.740 N 
ATOM     13  H   LIG    1        3.787   4.574   9.360  0.00  0.00    +0.400 HD
ATOM     14  C   LIG    1        2.391   3.376  10.185  0.00  0.00    +0.510 C 
ATOM     15  O   LIG    1        2.210   2.436  10.930  0.00  0.00    -0.530 OA
ENDBRANCH   1  14
BRANCH   7  16
ATOM     16  C   LIG    1       -2.723   2.960   4.761  0.00  0.00    +0.310 C 
BRANCH  16  17
ATOM     17  C   LIG    1       -2.021   2.469   3.521  0.00  0.00    -0.090 A 
ATOM     18  C   LIG    1       -2.387   1.263   2.952  0.00  0.00    +0.020 A 
ATOM     19  C   LIG    1       -1.744   0.813   1.814  0.00  0.00    +0.010 A 
ATOM     20  C   LIG    1       -0.735   1.568   1.246  0.00  0.00    -0.070 A 
ATOM     21  C   LIG    1       -0.365   2.771   1.818  0.00  0.00    +0.010 A 
ATOM     22  C   LIG    1       -1.012   3.223   2.953  0.00  0.00    +0.010 A 
BRANCH  20  23
ATOM     23  C   LIG    1       -0.034   1.077   0.005  0.00  0.00    +0.060 C 
BRANCH  23  24
ATOM     24  C   LIG    1       -0.768   1.593  -1.234  0.00  0.00    -0.020 C 
ATOM     25  C   LIG    1       -0.132   0.994  -2.490  0.00  0.00    +0.020 C 
ATOM     26  C   LIG    1       -0.667   3.119  -1.289  0.00  0.00    +0.010 C 
ENDBRANCH  23  24
ENDBRANCH  20  23
ENDBRANCH  16  17
BRANCH  16  27
ATOM     27  C   LIG    1       -3.773   4.003   4.374  0.00  0.00    -0.020 C 
ATOM     28  C   LIG    1       -3.090   5.179   3.675  0.00  0.00    +0.010 C 
ATOM     29  C   LIG    1       -4.485   4.501   5.633  0.00  0.00    +0.030 C 
ENDBRANCH  16  27
ENDBRANCH   7  16
TORSDOF 6
