REMARK  Name = ZINCqH0000008HGh.0
REMARK                            x       y       z     vdW  Elec       q    Type
REMARK                         _______ _______ _______ _____ _____    ______ ____
ROOT
ATOM      1  N   LIG    1       -0.654   8.615   1.326  0.00  0.00    -0.710 N 
ATOM      2  H   LIG    1       -1.228   9.010   2.001  0.00  0.00    +0.410 HD
ATOM      3  C   LIG    1        0.683   8.618   1.492  0.00  0.00    +0.560 C 
ATOM      4  O   LIG    1        1.402   8.122   0.647  0.00  0.00    -0.540 OA
ENDROOT
BRANCH   3   5
ATOM      5  C   LIG    1        1.276   9.224   2.704  0.00  0.00    -0.120 A 
ATOM      6  C   LIG    1        2.661   9.229   2.879  0.00  0.00    +0.080 A 
ATOM      7  C   LIG    1        3.207   9.796   4.012  0.00  0.00    +0.030 A 
ATOM      8  C   LIG    1        2.386  10.358   4.973  0.00  0.00    -0.050 A 
ATOM      9  C   LIG    1        1.012  10.352   4.808  0.00  0.00    +0.050 A 
ATOM     10  C   LIG    1        0.453   9.793   3.677  0.00  0.00    +0.040 A 
BRANCH   8  11
ATOM     11  C   LIG    1        2.990  10.976   6.208  0.00  0.00    +0.150 C 
ATOM     12  S   LIG    1        2.314  10.182   7.710  0.00  0.00    -0.230 S 
ATOM     13  C   LIG    1        2.209  11.648   8.803  0.00  0.00    +0.140 C 
ATOM     14  C   LIG    1        1.611  12.765   7.920  0.00  0.00    +0.130 C 
ATOM     15  S   LIG    1        2.511  12.731   6.337  0.00  0.00    -0.230 S 
ENDBRANCH   8  11
ENDBRANCH   3   5
BRANCH   1  16
ATOM     16  C   LIG    1       -1.241   8.014   0.126  0.00  0.00    +0.280 C 
BRANCH  16  17
ATOM     17  C   LIG    1       -2.753   8.252   0.123  0.00  0.00    +0.090 C 
ATOM     18  C   LIG    1       -3.384   7.512  -1.057  0.00  0.00    +0.020 C 
ATOM     19  C   LIG    1       -3.032   9.751  -0.006  0.00  0.00    +0.050 C 
BRANCH  17  23
ATOM     20  C   LIG    1       -6.846   7.693   2.798  0.00  0.00    +0.050 C 
ATOM     21  C   LIG    1       -5.327   7.517   2.773  0.00  0.00    +0.160 C 
ATOM     22  C   LIG    1       -4.778   7.996   1.427  0.00  0.00    +0.160 C 
ATOM     23  N   LIG    1       -3.329   7.754   1.379  0.00  0.00    -0.520 NA
ATOM     24  C   LIG    1       -3.033   6.326   1.564  0.00  0.00    +0.160 C 
ATOM     25  C   LIG    1       -3.599   5.863   2.909  0.00  0.00    +0.190 C 
ATOM     26  C   LIG    1       -2.901   6.614   4.044  0.00  0.00    +0.020 C 
ATOM     27  O   LIG    1       -5.003   6.135   2.949  0.00  0.00    -0.380 OA
ENDBRANCH  17  23
ENDBRANCH  16  17
ENDBRANCH   1  16
TORSDOF 5
