REMARK  Name = ZINCqH0000038Ex0.0
REMARK                            x       y       z     vdW  Elec       q    Type
REMARK                         _______ _______ _______ _____ _____    ______ ____
ROOT
ATOM      1  C   LIG    1       -1.723   7.597  -2.528  0.00  0.00    +0.610 C 
ATOM      2  N   LIG    1       -1.933   6.573  -1.677  0.00  0.00    -0.650 N 
ATOM      3  H   LIG    1       -1.548   6.595  -0.787  0.00  0.00    +0.400 HD
ATOM      4  O   LIG    1       -2.206   7.570  -3.644  0.00  0.00    -0.480 OA
ENDROOT
BRANCH   1   7
ATOM      5  C   LIG    1       -1.106  10.009  -4.275  0.00  0.00    +0.170 C 
ATOM      6  C   LIG    1       -0.618   9.835  -2.860  0.00  0.00    +0.180 A 
ATOM      7  C   LIG    1       -0.912   8.745  -2.107  0.00  0.00    -0.310 A 
ATOM      8  S   LIG    1       -0.139   8.952  -0.537  0.00  0.00    +0.160 S 
ATOM      9  C   LIG    1        0.488  10.462  -1.035  0.00  0.00    +0.100 A 
ATOM     10  N   LIG    1        0.123  10.724  -2.249  0.00  0.00    -0.470 NA
BRANCH   9  11
ATOM     11  C   LIG    1        1.343  11.362  -0.180  0.00  0.00    +0.280 C 
ATOM     12  C   LIG    1        0.469  12.053   0.868  0.00  0.00    +0.020 C 
BRANCH  11  13
ATOM     13  N   LIG    1        2.375  10.561   0.493  0.00  0.00    -0.840 NA
ATOM     14  H   LIG    1        1.960   9.816   1.032  0.00  0.00    +0.340 HD
ATOM     15  H   LIG    1        2.962  11.142   1.073  0.00  0.00    +0.360 HD
ENDBRANCH  11  13
ENDBRANCH   9  11
ENDBRANCH   1   7
BRANCH   2  16
ATOM     16  C   LIG    1       -2.704   5.482  -2.076  0.00  0.00    +0.310 A 
ATOM     17  C   LIG    1       -3.299   5.318  -3.290  0.00  0.00    -0.090 A 
ATOM     18  C   LIG    1       -3.976   4.096  -3.273  0.00  0.00    +0.260 A 
ATOM     19  N   LIG    1       -3.796   3.539  -2.103  0.00  0.00    -0.280 NA
ATOM     20  N   LIG    1       -2.995   4.388  -1.327  0.00  0.00    -0.390 N 
BRANCH  20  21
ATOM     21  C   LIG    1       -2.556   4.141   0.048  0.00  0.00    +0.390 C 
BRANCH  21  22
ATOM     22  C   LIG    1       -1.241   3.405   0.032  0.00  0.00    -0.090 A 
ATOM     23  C   LIG    1       -0.054   4.113   0.025  0.00  0.00    +0.030 A 
ATOM     24  C   LIG    1        1.153   3.439   0.010  0.00  0.00    +0.070 A 
ATOM     25  C   LIG    1        1.174   2.057   0.002  0.00  0.00    -0.060 A 
ATOM     26  C   LIG    1       -0.016   1.347   0.009  0.00  0.00    +0.110 A 
ATOM     27  F   LIG    1        0.002  -0.004   0.002  0.00  0.00    -0.120 F 
ATOM     28 CL   LIG    1        2.690   1.211  -0.018  0.00  0.00    -0.040 Cl
ATOM     29  C   LIG    1       -1.224   2.023   0.019  0.00  0.00    +0.040 A 
ENDBRANCH  21  22
ENDBRANCH  20  21
ENDBRANCH   2  16
TORSDOF 6
