REMARK  Name = ZINCqH0000006ZOa.0
REMARK                            x       y       z     vdW  Elec       q    Type
REMARK                         _______ _______ _______ _____ _____    ______ ____
ROOT
ATOM      1  S   LIG    1       -6.386   4.199   0.085  0.00  0.00    +0.150 S 
ENDROOT
BRANCH   1   5
ATOM      2  C   LIG    1       -2.521   3.868   0.046  0.00  0.00    +0.220 A 
ATOM      3  N   LIG    1       -2.679   5.170   0.054  0.00  0.00    -0.270 NA
ATOM      4  N   LIG    1       -3.936   5.447   0.067  0.00  0.00    -0.290 NA
ATOM      5  C   LIG    1       -4.630   4.333   0.068  0.00  0.00    +0.120 A 
ATOM      6  O   LIG    1       -3.752   3.311   0.050  0.00  0.00    -0.200 OA
BRANCH   2  10
ATOM      7  C   LIG    1        1.181   1.786   0.000  0.00  0.00    +0.160 A 
ATOM      8  C   LIG    1       -0.013   1.076   0.008  0.00  0.00    -0.010 A 
ATOM      9  C   LIG    1       -1.216   1.748   0.017  0.00  0.00    +0.100 A 
ATOM     10  C   LIG    1       -1.234   3.144   0.030  0.00  0.00    -0.070 A 
ATOM     11  C   LIG    1       -0.031   3.854   0.022  0.00  0.00    +0.120 A 
ATOM     12  C   LIG    1        1.168   3.174   0.007  0.00  0.00    -0.070 A 
BRANCH   7  14
ATOM     13  C   LIG    1        3.555   1.911  -0.022  0.00  0.00    +0.250 C 
ATOM     14  O   LIG    1        2.365   1.119  -0.015  0.00  0.00    -0.310 OA
ENDBRANCH   7  14
ENDBRANCH   2  10
ENDBRANCH   1   5
BRANCH   1  15
ATOM     15  C   LIG    1       -6.835   5.953   0.097  0.00  0.00    +0.090 C 
BRANCH  15  16
ATOM     16  C   LIG    1       -8.336   6.087   0.112  0.00  0.00    +0.540 C 
ATOM     17  N   LIG    1       -8.903   7.310   0.123  0.00  0.00    -0.710 N 
ATOM     18  H   LIG    1       -8.345   8.103   0.121  0.00  0.00    +0.400 HD
ATOM     19  O   LIG    1       -9.034   5.095   0.114  0.00  0.00    -0.520 OA
BRANCH  17  20
ATOM     20  C   LIG    1      -10.362   7.440   0.138  0.00  0.00    +0.240 C 
ATOM     21  C   LIG    1      -10.895   7.367  -1.295  0.00  0.00    +0.000 C 
ATOM     22  C   LIG    1      -12.419   7.503  -1.280  0.00  0.00    +0.020 C 
ATOM     23  C   LIG    1      -12.805   8.848  -0.660  0.00  0.00    +0.010 C 
ATOM     24  C   LIG    1      -12.272   8.921   0.772  0.00  0.00    -0.010 C 
ATOM     25  C   LIG    1      -12.657  10.266   1.392  0.00  0.00    +0.020 C 
ATOM     26  C   LIG    1      -10.748   8.785   0.757  0.00  0.00    -0.010 C 
ATOM     27  C   LIG    1      -10.215   8.858   2.189  0.00  0.00    +0.020 C 
ENDBRANCH  17  20
ENDBRANCH  15  16
ENDBRANCH   1  15
TORSDOF 6
