REMARK  Name = ZINCbu0000000GDx.0
REMARK                            x       y       z     vdW  Elec       q    Type
REMARK                         _______ _______ _______ _____ _____    ______ ____
ROOT
ATOM      1  C   LIG    1        2.397   0.026  -0.021  0.00  0.00    -0.120 A 
ATOM      2  C   LIG    1        1.208  -0.679  -0.013  0.00  0.00    +0.070 A 
ATOM      3  C   LIG    1        0.002  -0.004   0.002  0.00  0.00    +0.090 A 
ATOM      4  C   LIG    1       -0.017   1.379   0.010  0.00  0.00    -0.060 A 
ATOM      5  C   LIG    1        1.175   2.087   0.002  0.00  0.00    +0.130 A 
ATOM      6  F   LIG    1        1.158   3.438   0.010  0.00  0.00    -0.110 F 
ATOM      7 CL   LIG    1       -1.531   2.227   0.021  0.00  0.00    -0.010 Cl
ATOM      8  C   LIG    1        2.381   1.409  -0.013  0.00  0.00    -0.010 A 
ENDROOT
BRANCH   1  10
ATOM      9  C   LIG    1        4.264  -0.735  -1.464  0.00  0.00    +0.100 C 
ATOM     10  C   LIG    1        3.711  -0.711  -0.038  0.00  0.00    +0.250 C 
BRANCH  10  11
ATOM     11  N   LIG    1        4.666  -0.031   0.847  0.00  0.00    -0.640 N 
ATOM     12  H   LIG    1        4.807   0.915   0.526  0.00  0.00    +0.430 HD
ATOM     13  H   LIG    1        5.546  -0.525   0.836  0.00  0.00    +0.440 HD
ATOM     14  H   LIG    1        4.301  -0.016   1.788  0.00  0.00    +0.440 HD
ENDBRANCH  10  11
ENDBRANCH   1  10
TORSDOF 2
