REMARK  Name = ZINCvU00000004Xn.0
REMARK                            x       y       z     vdW  Elec       q    Type
REMARK                         _______ _______ _______ _____ _____    ______ ____
ROOT
ATOM      1  C   LIG    1        1.431   3.611  -0.033  0.00  0.00    +0.320 C 
ATOM      2  C   LIG    1        1.077   2.146   0.049  0.00  0.00    -0.100 A 
ATOM      3  C   LIG    1       -0.087   1.441   0.031  0.00  0.00    +0.050 A 
ATOM      4  C   LIG    1       -0.070   0.048   0.130  0.00  0.00    +0.000 A 
ATOM      5  C   LIG    1        1.089  -0.661   0.249  0.00  0.00    +0.040 A 
ATOM      6  C   LIG    1        2.309   0.035   0.271  0.00  0.00    -0.050 A 
ATOM      7  C   LIG    1        3.568  -0.577   0.387  0.00  0.00    +0.040 A 
ATOM      8  C   LIG    1        4.684   0.210   0.395  0.00  0.00    +0.010 A 
ATOM      9  C   LIG    1        4.617   1.601   0.293  0.00  0.00    +0.080 A 
ATOM     10  C   LIG    1        3.413   2.226   0.179  0.00  0.00    -0.120 A 
ATOM     11  C   LIG    1        2.268   1.437   0.169  0.00  0.00    -0.060 A 
ATOM     12  C   LIG    1        2.972   3.663   0.052  0.00  0.00    +0.300 C 
ENDROOT
BRANCH   1  14
ATOM     13  C   LIG    1        0.056   5.559   0.836  0.00  0.00    +0.280 C 
ATOM     14  N   LIG    1        0.833   4.342   1.087  0.00  0.00    -0.620 N 
BRANCH  14  15
ATOM     15  C   LIG    1        1.004   3.879   2.393  0.00  0.00    +0.200 A 
ATOM     16  C   LIG    1        1.837   2.796   2.645  0.00  0.00    -0.050 A 
ATOM     17  C   LIG    1        2.007   2.344   3.939  0.00  0.00    +0.040 A 
ATOM     18  C   LIG    1        1.341   2.962   4.982  0.00  0.00    -0.050 A 
ATOM     19  C   LIG    1        0.507   4.037   4.734  0.00  0.00    +0.040 A 
ATOM     20  C   LIG    1        0.337   4.497   3.443  0.00  0.00    -0.070 A 
ENDBRANCH  14  15
ENDBRANCH   1  14
BRANCH  12  21
ATOM     21  N   LIG    1        3.389   4.428   1.230  0.00  0.00    -1.100 NA
ATOM     22  H   LIG    1        2.839   4.428   2.029  0.00  0.00    +0.430 HD
BRANCH  21  23
ATOM     23  S   LIG    1        4.801   5.294   1.198  0.00  0.00    +2.680 S 
ATOM     24  O   LIG    1        5.798   4.418   0.691  0.00  0.00    -0.950 OA
ATOM     25  O   LIG    1        4.903   5.942   2.458  0.00  0.00    -0.950 OA
BRANCH  23  26
ATOM     26  C   LIG    1        4.603   6.569  -0.002  0.00  0.00    -0.680 A 
ATOM     27  C   LIG    1        4.959   6.341  -1.318  0.00  0.00    +0.140 A 
ATOM     28  C   LIG    1        4.799   7.340  -2.260  0.00  0.00    +0.020 A 
ATOM     29  C   LIG    1        4.293   8.571  -1.885  0.00  0.00    +0.020 A 
ATOM     30  C   LIG    1        3.942   8.800  -0.566  0.00  0.00    +0.020 A 
ATOM     31 CL   LIG    1        4.099   9.828  -3.066  0.00  0.00    -0.050 Cl
ATOM     32  C   LIG    1        4.096   7.800   0.374  0.00  0.00    +0.150 A 
ENDBRANCH  23  26
ENDBRANCH  21  23
ENDBRANCH  12  21
TORSDOF 5
