REMARK  Name = ZINCrD0000074DPA.0
REMARK                            x       y       z     vdW  Elec       q    Type
REMARK                         _______ _______ _______ _____ _____    ______ ____
ROOT
ATOM      1  O   LIG    1        8.234   1.208   0.878  0.00  0.00    -0.330 OA
ENDROOT
BRANCH   1   2
ATOM      2  C   LIG    1        7.620   0.399  -0.008  0.00  0.00    +0.520 C 
ATOM      3  O   LIG    1        8.262  -0.435  -0.615  0.00  0.00    -0.510 OA
BRANCH   2   4
ATOM      4  C   LIG    1        6.170   0.524  -0.239  0.00  0.00    -0.160 A 
ATOM      5  C   LIG    1        5.531  -0.316  -1.157  0.00  0.00    +0.110 A 
ATOM      6  C   LIG    1        4.182  -0.196  -1.371  0.00  0.00    -0.010 A 
ATOM      7  C   LIG    1        3.448   0.760  -0.673  0.00  0.00    +0.150 A 
ATOM      8  C   LIG    1        4.081   1.601   0.237  0.00  0.00    -0.050 A 
ATOM      9  C   LIG    1        5.429   1.483   0.459  0.00  0.00    +0.110 A 
BRANCH   7  10
ATOM     10  N   LIG    1        2.080   0.878  -0.892  0.00  0.00    -0.470 N 
ATOM     11  C   LIG    1        1.381  -0.385  -0.569  0.00  0.00    +0.190 C 
ATOM     12  C   LIG    1        0.002  -0.004   0.002  0.00  0.00    +0.020 C 
ATOM     13  C   LIG    1       -0.019   1.542   0.011  0.00  0.00    -0.010 C 
ATOM     14  C   LIG    1       -0.694   2.067   1.279  0.00  0.00    +0.030 C 
ATOM     15  C   LIG    1        1.486   1.909  -0.002  0.00  0.00    +0.190 C 
ENDBRANCH   7  10
ENDBRANCH   2   4
ENDBRANCH   1   2
BRANCH   1  16
ATOM     16  C   LIG    1        9.664   1.028   1.054  0.00  0.00    +0.250 C 
BRANCH  16  19
ATOM     17  N   LIG    1       11.479   2.031   2.403  0.00  0.00    -0.720 N 
ATOM     18  H   LIG    1       12.092   1.409   1.982  0.00  0.00    +0.400 HD
ATOM     19  C   LIG    1       10.171   2.014   2.075  0.00  0.00    +0.520 C 
ATOM     20  O   LIG    1        9.404   2.791   2.602  0.00  0.00    -0.510 OA
BRANCH  17  21
ATOM     21  C   LIG    1       11.972   2.990   3.395  0.00  0.00    +0.330 C 
BRANCH  21  26
ATOM     22  C   LIG    1       17.663   2.274   4.100  0.00  0.00    +0.090 C 
ATOM     23  C   LIG    1       16.179   2.461   3.916  0.00  0.00    -0.070 A 
ATOM     24  C   LIG    1       15.706   3.341   2.961  0.00  0.00    +0.010 A 
ATOM     25  C   LIG    1       14.345   3.512   2.792  0.00  0.00    +0.030 A 
ATOM     26  C   LIG    1       13.456   2.803   3.579  0.00  0.00    -0.120 A 
ATOM     27  C   LIG    1       13.930   1.927   4.537  0.00  0.00    +0.030 A 
ATOM     28  C   LIG    1       15.291   1.751   4.702  0.00  0.00    +0.000 A 
ENDBRANCH  21  26
ENDBRANCH  17  21
ENDBRANCH  16  19
ENDBRANCH   1  16
TORSDOF 7
