REMARK  Name = ZINCrg000000q8bg.0
REMARK                            x       y       z     vdW  Elec       q    Type
REMARK                         _______ _______ _______ _____ _____    ______ ____
ROOT
ATOM      1  C   LIG    1       -1.250   2.963   1.532  0.00  0.00    +0.290 A 
ATOM      2  N   LIG    1       -0.716   3.586   2.562  0.00  0.00    -0.440 NA
ATOM      3  C   LIG    1       -0.428   4.894   2.474  0.00  0.00    +0.070 A 
ATOM      4  C   LIG    1        0.142   5.580   3.557  0.00  0.00    +0.060 A 
ATOM      5  C   LIG    1        0.426   6.907   3.443  0.00  0.00    +0.030 A 
ATOM      6  C   LIG    1        0.158   7.597   2.264  0.00  0.00    +0.050 A 
ATOM      7  C   LIG    1       -0.395   6.962   1.193  0.00  0.00    +0.050 A 
ATOM      8  C   LIG    1       -0.700   5.595   1.274  0.00  0.00    +0.100 A 
ATOM      9  N   LIG    1       -1.245   4.948   0.233  0.00  0.00    -0.470 NA
ATOM     10  C   LIG    1       -1.518   3.663   0.330  0.00  0.00    +0.320 A 
ENDROOT
BRANCH  10  11
ATOM     11  N   LIG    1       -2.075   2.994  -0.748  0.00  0.00    -0.460 N 
ATOM     12  C   LIG    1       -1.086   2.119  -1.394  0.00  0.00    +0.190 C 
ATOM     13  C   LIG    1       -1.758   1.355  -2.539  0.00  0.00    +0.240 C 
ATOM     14  O   LIG    1       -2.333   2.291  -3.455  0.00  0.00    -0.380 OA
ATOM     15  C   LIG    1       -3.302   3.158  -2.860  0.00  0.00    +0.220 C 
ATOM     16  C   LIG    1       -2.646   3.940  -1.718  0.00  0.00    +0.180 C 
ENDBRANCH  10  11
BRANCH   1  17
ATOM     17  N   LIG    1       -1.548   1.612   1.623  0.00  0.00    -0.450 N 
ATOM     18  C   LIG    1       -0.363   0.837   2.015  0.00  0.00    +0.230 C 
BRANCH  17  19
ATOM     19  C   LIG    1       -2.661   1.379   2.553  0.00  0.00    +0.240 C 
BRANCH  19  22
ATOM     20  N   LIG    1       -4.133  -0.498   3.207  0.00  0.00    -0.730 N 
ATOM     21  H   LIG    1       -4.572   0.104   3.828  0.00  0.00    +0.400 HD
ATOM     22  C   LIG    1       -3.116  -0.053   2.442  0.00  0.00    +0.520 C 
ATOM     23  O   LIG    1       -2.567  -0.806   1.665  0.00  0.00    -0.520 OA
BRANCH  20  24
ATOM     24  C   LIG    1       -4.576  -1.890   3.100  0.00  0.00    +0.260 C 
BRANCH  24  25
ATOM     25  C   LIG    1       -5.735  -2.133   4.069  0.00  0.00    +0.030 C 
BRANCH  25  26
ATOM     26  C   LIG    1       -6.197  -3.587   3.957  0.00  0.00    +0.160 C 
BRANCH  26  28
ATOM     27  C   LIG    1       -7.789  -5.149   4.836  0.00  0.00    +0.200 C 
ATOM     28  O   LIG    1       -7.280  -3.814   4.861  0.00  0.00    -0.390 OA
ENDBRANCH  26  28
ENDBRANCH  25  26
ENDBRANCH  24  25
ENDBRANCH  20  24
ENDBRANCH  19  22
ENDBRANCH  17  19
ENDBRANCH   1  17
TORSDOF 8
