REMARK  Name = ZINCqH0000038ggN.0
REMARK                            x       y       z     vdW  Elec       q    Type
REMARK                         _______ _______ _______ _____ _____    ______ ____
ROOT
ATOM      1  C   LIG    1        2.507  -7.283   5.875  0.00  0.00    +0.090 C 
ATOM      2  C   LIG    1        1.884  -6.204   5.028  0.00  0.00    -0.080 A 
ATOM      3  C   LIG    1        0.544  -5.898   5.171  0.00  0.00    +0.000 A 
ATOM      4  C   LIG    1       -0.020  -4.911   4.388  0.00  0.00    +0.010 A 
ATOM      5  C   LIG    1        0.748  -4.225   3.457  0.00  0.00    -0.110 A 
ATOM      6  C   LIG    1        0.067  -3.177   2.621  0.00  0.00    +0.320 C 
ATOM      7  N   LIG    1        1.069  -2.393   1.890  0.00  0.00    -0.630 N 
ATOM      8  C   LIG    1        2.168  -3.132   1.246  0.00  0.00    +0.310 C 
ATOM      9  C   LIG    1        2.985  -3.810   2.345  0.00  0.00    +0.070 C 
ATOM     10  C   LIG    1        0.990  -1.050   1.816  0.00  0.00    +0.720 C 
ATOM     11  N   LIG    1        0.030  -0.393   2.497  0.00  0.00    -0.740 N 
ATOM     12  H   LIG    1       -0.643  -0.889   2.988  0.00  0.00    +0.400 HD
ATOM     13  O   LIG    1        1.784  -0.430   1.135  0.00  0.00    -0.570 OA
ATOM     14  C   LIG    1        2.086  -4.522   3.320  0.00  0.00    -0.060 A 
ATOM     15  C   LIG    1        2.650  -5.518   4.108  0.00  0.00    +0.000 A 
ENDROOT
BRANCH  11  16
ATOM     16  C   LIG    1        0.003   1.072   2.495  0.00  0.00    +0.400 C 
BRANCH  16  17
ATOM     17  C   LIG    1       -0.701   1.563   3.734  0.00  0.00    +0.170 A 
ATOM     18  N   LIG    1       -0.307   2.534   4.523  0.00  0.00    -0.460 NA
ATOM     19  C   LIG    1       -1.240   2.616   5.489  0.00  0.00    +0.210 A 
ATOM     20  N   LIG    1       -2.136   1.708   5.243  0.00  0.00    -0.380 NA
ATOM     21  O   LIG    1       -1.848   1.096   4.236  0.00  0.00    +0.080 OA
BRANCH  19  22
ATOM     22  C   LIG    1       -1.244   3.583   6.645  0.00  0.00    +0.060 C 
ATOM     23  C   LIG    1       -2.293   3.372   7.738  0.00  0.00    +0.050 C 
ATOM     24  C   LIG    1       -2.432   4.540   6.760  0.00  0.00    +0.060 C 
ENDBRANCH  19  22
ENDBRANCH  16  17
BRANCH  16  25
ATOM     25  C   LIG    1       -0.743   1.567   1.255  0.00  0.00    -0.020 C 
ATOM     26  C   LIG    1       -0.771   3.097   1.254  0.00  0.00    +0.040 C 
ATOM     27  C   LIG    1       -0.029   1.069  -0.003  0.00  0.00    +0.050 C 
ENDBRANCH  16  25
ENDBRANCH  11  16
TORSDOF 4
