REMARK  Name = ZINCqH00000098Su.0
REMARK                            x       y       z     vdW  Elec       q    Type
REMARK                         _______ _______ _______ _____ _____    ______ ____
ROOT
ATOM      1  C   LIG    1        4.017   1.961  -0.026  0.00  0.00    +0.110 A 
ATOM      2  N   LIG    1        3.926   3.269  -0.024  0.00  0.00    -0.280 NA
ATOM      3  N   LIG    1        5.106   3.781  -0.026  0.00  0.00    -0.270 NA
ATOM      4  C   LIG    1        5.998   2.820  -0.040  0.00  0.00    +0.260 A 
ATOM      5  O   LIG    1        5.327   1.647  -0.040  0.00  0.00    -0.210 OA
ENDROOT
BRANCH   4   6
ATOM      6  C   LIG    1        7.464   2.989  -0.052  0.00  0.00    -0.130 A 
ATOM      7  C   LIG    1        8.395   1.999  -0.060  0.00  0.00    +0.310 A 
ATOM      8  N   LIG    1        9.646   2.544  -0.073  0.00  0.00    -0.580 N 
ATOM      9  H   LIG    1       10.472   2.036  -0.083  0.00  0.00    +0.430 HD
ATOM     10  C   LIG    1        9.566   3.920  -0.066  0.00  0.00    +0.090 A 
ATOM     11  C   LIG    1       10.524   4.929  -0.070  0.00  0.00    +0.000 A 
ATOM     12  C   LIG    1       10.130   6.249  -0.059  0.00  0.00    +0.040 A 
ATOM     13  C   LIG    1        8.785   6.587  -0.045  0.00  0.00    -0.010 A 
ATOM     14  C   LIG    1        7.821   5.602  -0.042  0.00  0.00    +0.070 A 
ATOM     15  C   LIG    1        8.204   4.263  -0.053  0.00  0.00    -0.070 A 
ENDBRANCH   4   6
BRANCH   1  16
ATOM     16  S   LIG    1        2.672   0.823  -0.019  0.00  0.00    +0.150 S 
BRANCH  16  17
ATOM     17  C   LIG    1        1.280   1.980   0.001  0.00  0.00    +0.100 C 
BRANCH  17  20
ATOM     18  N   LIG    1       -1.191   1.867   0.018  0.00  0.00    -0.720 N 
ATOM     19  H   LIG    1       -1.204   2.837   0.023  0.00  0.00    +0.410 HD
ATOM     20  C   LIG    1       -0.014   1.209   0.009  0.00  0.00    +0.540 C 
ATOM     21  O   LIG    1        0.002  -0.004   0.002  0.00  0.00    -0.520 OA
BRANCH  18  23
ATOM     22  C   LIG    1       -2.816   0.740   1.456  0.00  0.00    +0.040 C 
ATOM     23  C   LIG    1       -2.449   1.117   0.020  0.00  0.00    +0.350 C 
BRANCH  23  24
ATOM     24  C   LIG    1       -3.543   1.969  -0.571  0.00  0.00    -0.030 A 
ATOM     25  C   LIG    1       -4.512   1.542  -1.400  0.00  0.00    -0.040 A 
ATOM     26  C   LIG    1       -5.314   2.666  -1.705  0.00  0.00    -0.060 A 
ATOM     27  C   LIG    1       -4.787   3.712  -1.044  0.00  0.00    +0.180 A 
ATOM     28  O   LIG    1       -3.718   3.283  -0.354  0.00  0.00    -0.170 OA
ENDBRANCH  23  24
ENDBRANCH  18  23
ENDBRANCH  17  20
ENDBRANCH  16  17
ENDBRANCH   1  16
TORSDOF 6
