REMARK  Name = ZINCvU00000006nh.0
REMARK                            x       y       z     vdW  Elec       q    Type
REMARK                         _______ _______ _______ _____ _____    ______ ____
ROOT
ATOM      1  C   LIG    1       -2.744   3.438  -0.096  0.00  0.00    +0.100 A 
ATOM      2  C   LIG    1       -3.504   2.417  -0.624  0.00  0.00    +0.190 A 
ATOM      3  N   LIG    1       -4.742   2.938  -0.884  0.00  0.00    -0.380 N 
ATOM      4  C   LIG    1       -5.883   2.389  -1.405  0.00  0.00    +0.230 A 
ATOM      5  C   LIG    1       -6.992   3.137  -1.567  0.00  0.00    +0.000 A 
ATOM      6  C   LIG    1       -6.992   4.495  -1.205  0.00  0.00    -0.730 A 
ATOM      7  C   LIG    1       -5.867   5.057  -0.686  0.00  0.00    +0.220 A 
ATOM      8  C   LIG    1       -4.712   4.264  -0.520  0.00  0.00    +0.200 A 
ATOM      9  N   LIG    1       -3.507   4.545  -0.050  0.00  0.00    -0.440 NA
ENDROOT
BRANCH   1  12
ATOM     10  C   LIG    1        0.461   2.221   1.077  0.00  0.00    +0.110 A 
ATOM     11  N   LIG    1       -0.790   2.194   0.721  0.00  0.00    -0.430 NA
ATOM     12  C   LIG    1       -1.330   3.337   0.339  0.00  0.00    +0.140 A 
ATOM     13  C   LIG    1       -0.505   4.404   0.366  0.00  0.00    -0.020 A 
ATOM     14  S   LIG    1        1.075   3.865   0.929  0.00  0.00    +0.110 S 
BRANCH  10  19
ATOM     15  C   LIG    1        3.312   0.108   2.319  0.00  0.00    +0.130 A 
ATOM     16  C   LIG    1        2.709  -1.140   2.392  0.00  0.00    -0.060 A 
ATOM     17  C   LIG    1        1.381  -1.293   2.039  0.00  0.00    +0.050 A 
ATOM     18  C   LIG    1        0.646  -0.206   1.612  0.00  0.00    +0.030 A 
ATOM     19  C   LIG    1        1.245   1.053   1.535  0.00  0.00    +0.010 A 
ATOM     20  C   LIG    1        2.586   1.205   1.887  0.00  0.00    +0.000 A 
BRANCH  15  22
ATOM     21  C   LIG    1        5.308  -0.922   3.099  0.00  0.00    +0.250 C 
ATOM     22  O   LIG    1        4.618   0.253   2.667  0.00  0.00    -0.320 OA
ENDBRANCH  15  22
ENDBRANCH  10  19
ENDBRANCH   1  12
BRANCH   6  23
ATOM     23  P   LIG    1       -8.488   5.497  -1.428  0.00  0.00    +2.560 P 
ATOM     24  O   LIG    1       -8.228   6.881  -0.974  0.00  0.00    -1.000 OA
ATOM     25  C   LIG    1       -9.850   4.781  -0.450  0.00  0.00    -0.500 C 
ATOM     26  C   LIG    1       -8.950   5.513  -3.192  0.00  0.00    -0.500 C 
ENDBRANCH   6  23
BRANCH   2  27
ATOM     27  N   LIG    1       -3.090   1.101  -0.848  0.00  0.00    -0.550 N 
ATOM     28  H   LIG    1       -2.326   1.069  -1.506  0.00  0.00    +0.370 HD
BRANCH  27  29
ATOM     29  C   LIG    1       -4.211   0.267  -1.302  0.00  0.00    +0.090 C 
ATOM     30  C   LIG    1       -5.369   0.385  -0.309  0.00  0.00    +0.040 C 
ATOM     31  C   LIG    1       -3.759  -1.192  -1.388  0.00  0.00    +0.060 C 
ATOM     32  C   LIG    1       -4.673   0.740  -2.682  0.00  0.00    +0.010 C 
ENDBRANCH  27  29
ENDBRANCH   2  27
TORSDOF 6
