REMARK  Name = ZINCpk00000KfLfD.0
REMARK                            x       y       z     vdW  Elec       q    Type
REMARK                         _______ _______ _______ _____ _____    ______ ____
ROOT
ATOM      1  C   LIG    1       -0.807   2.985  -1.216  0.00  0.00    +0.160 C 
ATOM      2  C   LIG    1       -1.534   3.499   0.029  0.00  0.00    +0.190 C 
ATOM      3  N   LIG    1       -0.817   3.048   1.230  0.00  0.00    -0.530 NA
ATOM      4  C   LIG    1       -0.731   1.580   1.266  0.00  0.00    +0.150 C 
ATOM      5  C   LIG    1       -0.013   1.086   0.008  0.00  0.00    +0.230 C 
ATOM      6  O   LIG    1       -0.706   1.560  -1.149  0.00  0.00    -0.360 OA
ENDROOT
BRANCH   1   7
ATOM      7  C   LIG    1       -1.592   3.384  -2.467  0.00  0.00    +0.370 C 
BRANCH   7  11
ATOM      8  C   LIG    1        0.163   0.749  -6.358  0.00  0.00    +0.190 C 
ATOM      9  C   LIG    1       -0.086   1.838  -5.347  0.00  0.00    +0.220 A 
ATOM     10  N   LIG    1       -0.921   1.768  -4.344  0.00  0.00    -0.300 NA
ATOM     11  N   LIG    1       -0.839   2.993  -3.662  0.00  0.00    -0.370 N 
ATOM     12  C   LIG    1        0.063   3.736  -4.325  0.00  0.00    +0.270 A 
ATOM     13  C   LIG    1        0.487   5.138  -3.970  0.00  0.00    +0.190 C 
ATOM     14  N   LIG    1        0.510   3.030  -5.331  0.00  0.00    -0.540 NA
ENDBRANCH   7  11
ENDBRANCH   1   7
BRANCH   3  15
ATOM     15  C   LIG    1       -1.451   3.568   2.449  0.00  0.00    +0.360 C 
BRANCH  15  16
ATOM     16  C   LIG    1       -0.849   2.895   3.655  0.00  0.00    +0.180 A 
ATOM     17  N   LIG    1        0.196   3.302   4.332  0.00  0.00    -0.460 NA
ATOM     18  C   LIG    1        0.364   2.395   5.321  0.00  0.00    +0.250 A 
ATOM     19  N   LIG    1       -0.575   1.494   5.182  0.00  0.00    -0.370 NA
ATOM     20  O   LIG    1       -1.277   1.768   4.232  0.00  0.00    +0.080 OA
BRANCH  18  21
ATOM     21  C   LIG    1        1.418   2.414   6.364  0.00  0.00    -0.140 A 
ATOM     22  C   LIG    1        2.403   3.337   6.518  0.00  0.00    +0.260 A 
ATOM     23  O   LIG    1        3.145   2.994   7.579  0.00  0.00    -0.170 OA
ATOM     24  C   LIG    1        2.687   1.861   8.133  0.00  0.00    +0.180 A 
ATOM     25  C   LIG    1        1.618   1.435   7.439  0.00  0.00    -0.030 A 
ENDBRANCH  18  21
ENDBRANCH  15  16
ENDBRANCH   3  15
TORSDOF 5
