REMARK  Name = ZINCqH0000007aCA.0
REMARK                            x       y       z     vdW  Elec       q    Type
REMARK                         _______ _______ _______ _____ _____    ______ ____
ROOT
ATOM      1  N   LIG    1       -1.850  -0.811  -1.349  0.00  0.00    -0.520 NA
ATOM      2  C   LIG    1       -0.987  -1.587  -2.250  0.00  0.00    +0.180 C 
ENDROOT
BRANCH   1   3
ATOM      3  C   LIG    1       -1.293  -0.775   0.010  0.00  0.00    +0.250 C 
BRANCH   3   7
ATOM      4  C   LIG    1        2.383   1.412  -0.014  0.00  0.00    +0.170 A 
ATOM      5  C   LIG    1        2.396   0.024  -0.022  0.00  0.00    -0.120 A 
ATOM      6  C   LIG    1        1.207  -0.680  -0.014  0.00  0.00    +0.100 A 
ATOM      7  C   LIG    1        0.002  -0.004   0.002  0.00  0.00    -0.150 A 
ATOM      8  C   LIG    1       -0.017   1.384   0.010  0.00  0.00    +0.190 A 
ATOM      9  C   LIG    1        1.175   2.092   0.002  0.00  0.00    -0.110 A 
BRANCH   4  11
ATOM     10  C   LIG    1        4.759   1.337  -0.039  0.00  0.00    +0.250 C 
ATOM     11  O   LIG    1        3.553   2.103  -0.022  0.00  0.00    -0.320 OA
ENDBRANCH   4  11
BRANCH   8  12
ATOM     12  O   LIG    1       -1.202   2.048   0.019  0.00  0.00    -0.300 OA
ATOM     13  C   LIG    1       -1.146   3.476   0.026  0.00  0.00    +0.240 C 
ENDBRANCH   8  12
ENDBRANCH   3   7
ENDBRANCH   1   3
BRANCH   1  14
ATOM     14  C   LIG    1       -3.219  -1.343  -1.343  0.00  0.00    +0.240 C 
BRANCH  14  15
ATOM     15  C   LIG    1       -3.843  -1.140  -2.699  0.00  0.00    +0.050 A 
ATOM     16  C   LIG    1       -3.812  -2.121  -3.635  0.00  0.00    -0.090 A 
ATOM     17  C   LIG    1       -4.408  -1.907  -4.897  0.00  0.00    +0.510 A 
ATOM     18  O   LIG    1       -5.004  -0.745  -5.206  0.00  0.00    -0.270 OA
ATOM     19  C   LIG    1       -5.065   0.274  -4.322  0.00  0.00    +0.150 A 
ATOM     20  C   LIG    1       -5.685   1.470  -4.660  0.00  0.00    +0.000 A 
ATOM     21  C   LIG    1       -5.739   2.500  -3.744  0.00  0.00    -0.030 A 
ATOM     22  C   LIG    1       -5.177   2.357  -2.484  0.00  0.00    -0.020 A 
ATOM     23  C   LIG    1       -4.557   1.180  -2.128  0.00  0.00    +0.110 A 
ATOM     24  C   LIG    1       -6.413   3.795  -4.118  0.00  0.00    +0.100 C 
ATOM     25  O   LIG    1       -4.378  -2.797  -5.727  0.00  0.00    -0.470 OA
ATOM     26  C   LIG    1       -4.496   0.127  -3.045  0.00  0.00    -0.150 A 
ENDBRANCH  14  15
ENDBRANCH   1  14
TORSDOF 6
