REMARK  Name = ZINCpk00000xIdie.0
REMARK                            x       y       z     vdW  Elec       q    Type
REMARK                         _______ _______ _______ _____ _____    ______ ____
ROOT
ATOM      1  C   LIG    1       -1.042   6.315  -1.456  0.00  0.00    +0.470 C 
ATOM      2  O   LIG    1       -2.216   6.098  -1.271  0.00  0.00    -0.490 OA
ENDROOT
BRANCH   1   3
ATOM      3  C   LIG    1       -0.004   5.616  -0.616  0.00  0.00    +0.170 C 
BRANCH   3   7
ATOM      4  C   LIG    1       -1.950   3.047   2.196  0.00  0.00    +0.110 A 
ATOM      5  C   LIG    1       -1.854   4.406   2.447  0.00  0.00    +0.010 A 
ATOM      6  C   LIG    1       -1.225   5.235   1.536  0.00  0.00    -0.070 A 
ATOM      7  C   LIG    1       -0.688   4.709   0.375  0.00  0.00    -0.050 A 
ATOM      8  C   LIG    1       -0.776   3.353   0.121  0.00  0.00    +0.000 A 
ATOM      9 BR   LIG    1       -1.101   7.091   1.877  0.00  0.00    -0.040 Br
ATOM     10  C   LIG    1       -1.404   2.517   1.030  0.00  0.00    +0.120 A 
BRANCH   4  12
ATOM     11  C   LIG    1       -3.108   2.844   4.264  0.00  0.00    +0.250 C 
ATOM     12  O   LIG    1       -2.572   2.231   3.089  0.00  0.00    -0.300 OA
ENDBRANCH   4  12
BRANCH  10  13
ATOM     13  O   LIG    1       -1.492   1.183   0.782  0.00  0.00    -0.300 OA
ATOM     14  C   LIG    1       -0.915   0.711  -0.437  0.00  0.00    +0.250 C 
ENDBRANCH  10  13
ENDBRANCH   3   7
ENDBRANCH   1   3
BRANCH   1  15
ATOM     15  O   LIG    1       -0.662   7.178  -2.412  0.00  0.00    -0.330 OA
BRANCH  15  16
ATOM     16  C   LIG    1       -1.715   7.813  -3.183  0.00  0.00    +0.200 C 
ATOM     17  C   LIG    1       -2.133   9.116  -2.498  0.00  0.00    +0.090 C 
BRANCH  16  18
ATOM     18  C   LIG    1       -1.210   8.115  -4.570  0.00  0.00    +0.540 C 
ATOM     19  N   LIG    1       -2.072   8.498  -5.533  0.00  0.00    -0.580 N 
ATOM     20  C   LIG    1       -3.506   8.760  -5.338  0.00  0.00    +0.270 C 
ATOM     21  C   LIG    1       -4.003   9.159  -6.741  0.00  0.00    +0.270 C 
ATOM     22  N   LIG    1       -2.796   9.079  -7.578  0.00  0.00    -0.730 N 
ATOM     23  H   LIG    1       -2.757   9.270  -8.528  0.00  0.00    +0.440 HD
ATOM     24  C   LIG    1       -1.757   8.707  -6.818  0.00  0.00    +0.700 C 
ATOM     25  O   LIG    1       -0.632   8.568  -7.256  0.00  0.00    -0.530 OA
ATOM     26  O   LIG    1       -0.028   8.012  -4.821  0.00  0.00    -0.440 OA
ENDBRANCH  16  18
ENDBRANCH  15  16
ENDBRANCH   1  15
TORSDOF 7
