REMARK  Name = ZINCqH0000003IGW.0
REMARK                            x       y       z     vdW  Elec       q    Type
REMARK                         _______ _______ _______ _____ _____    ______ ____
ROOT
ATOM      1  C   LIG    1       -0.018   0.800   0.054  0.00  0.00    +0.250 C 
ENDROOT
BRANCH   1   3
ATOM      2  C   LIG    1       -1.456  -0.052   1.827  0.00  0.00    +0.570 C 
ATOM      3  N   LIG    1       -0.381   0.678   1.468  0.00  0.00    -0.710 N 
ATOM      4  H   LIG    1        0.152   1.122   2.146  0.00  0.00    +0.410 HD
ATOM      5  O   LIG    1       -2.124  -0.609   0.978  0.00  0.00    -0.540 OA
BRANCH   2   9
ATOM      6  C   LIG    1       -2.508  -0.407   5.926  0.00  0.00    +0.160 A 
ATOM      7  C   LIG    1       -3.273  -1.045   4.957  0.00  0.00    -0.020 A 
ATOM      8  C   LIG    1       -2.935  -0.932   3.627  0.00  0.00    +0.120 A 
ATOM      9  C   LIG    1       -1.821  -0.176   3.252  0.00  0.00    -0.180 A 
ATOM     10  C   LIG    1       -1.052   0.459   4.231  0.00  0.00    +0.090 A 
ATOM     11  C   LIG    1       -1.399   0.346   5.558  0.00  0.00    -0.080 A 
BRANCH   6  12
ATOM     12  O   LIG    1       -2.844  -0.521   7.236  0.00  0.00    -0.310 OA
BRANCH  12  14
ATOM     13  C   LIG    1       -2.546  -0.083   9.594  0.00  0.00    +0.070 C 
ATOM     14  C   LIG    1       -2.014   0.159   8.180  0.00  0.00    +0.190 C 
ENDBRANCH  12  14
ENDBRANCH   6  12
ENDBRANCH   2   9
ENDBRANCH   1   3
BRANCH   1  15
ATOM     15  C   LIG    1        1.455   1.097  -0.062  0.00  0.00    +0.520 C 
ATOM     16  N   LIG    1        2.098   0.869  -1.224  0.00  0.00    -0.660 N 
ATOM     17  H   LIG    1        1.609   0.535  -1.992  0.00  0.00    +0.410 HD
ATOM     18  O   LIG    1        2.061   1.542   0.889  0.00  0.00    -0.510 OA
BRANCH  16  19
ATOM     19  C   LIG    1        3.473   1.114  -1.323  0.00  0.00    +0.140 A 
ATOM     20  C   LIG    1        4.097   1.952  -0.409  0.00  0.00    +0.020 A 
ATOM     21  C   LIG    1        5.455   2.188  -0.505  0.00  0.00    +0.010 A 
ATOM     22  C   LIG    1        6.190   1.599  -1.517  0.00  0.00    -0.010 A 
ATOM     23  C   LIG    1        5.570   0.768  -2.433  0.00  0.00    +0.030 A 
ATOM     24  C   LIG    1        4.214   0.524  -2.338  0.00  0.00    -0.120 A 
ATOM     25  C   LIG    1        3.539  -0.381  -3.336  0.00  0.00    +0.080 C 
ENDBRANCH  16  19
ENDBRANCH   1  15
BRANCH   1  26
ATOM     26  C   LIG    1       -0.820   1.937  -0.582  0.00  0.00    -0.010 C 
ATOM     27  C   LIG    1       -0.563   1.962  -2.090  0.00  0.00    +0.030 C 
ATOM     28  C   LIG    1       -0.388   3.271   0.031  0.00  0.00    +0.030 C 
ENDBRANCH   1  26
TORSDOF 7
