REMARK  Name = ZINCpk00000KfLqx.0
REMARK                            x       y       z     vdW  Elec       q    Type
REMARK                         _______ _______ _______ _____ _____    ______ ____
ROOT
ATOM      1  N   LIG    1        2.194   1.355   1.123  0.00  0.00    -0.530 NA
ATOM      2  C   LIG    1        1.532   1.710  -0.140  0.00  0.00    +0.200 C 
ATOM      3  C   LIG    1        0.144   1.066  -0.184  0.00  0.00    +0.190 C 
ATOM      4  N   LIG    1        0.279  -0.392  -0.056  0.00  0.00    -0.530 NA
ATOM      5  C   LIG    1        0.942  -0.747   1.207  0.00  0.00    +0.200 C 
ATOM      6  C   LIG    1        2.329  -0.103   1.251  0.00  0.00    +0.180 C 
ENDROOT
BRANCH   1   7
ATOM      7  C   LIG    1        3.501   2.017   1.237  0.00  0.00    +0.270 C 
ATOM      8  C   LIG    1        3.326   3.525   1.050  0.00  0.00    +0.080 C 
BRANCH   7  13
ATOM      9  C   LIG    1        6.592   0.852   5.000  0.00  0.00    +0.210 C 
ATOM     10  C   LIG    1        5.381   1.253   4.198  0.00  0.00    +0.170 A 
ATOM     11  N   LIG    1        4.205   1.539   4.672  0.00  0.00    -0.390 NA
ATOM     12  O   LIG    1        3.446   1.823   3.770  0.00  0.00    +0.090 OA
ATOM     13  C   LIG    1        4.085   1.743   2.599  0.00  0.00    +0.190 A 
ATOM     14  N   LIG    1        5.316   1.376   2.861  0.00  0.00    -0.480 NA
ENDBRANCH   7  13
ENDBRANCH   1   7
BRANCH   4  15
ATOM     15  C   LIG    1       -1.027  -1.054  -0.170  0.00  0.00    +0.160 C 
BRANCH  15  16
ATOM     16  C   LIG    1       -0.825  -2.566  -0.282  0.00  0.00    +0.230 C 
BRANCH  16  17
ATOM     17  O   LIG    1       -0.041  -2.857  -1.441  0.00  0.00    -0.540 OA
ATOM     18  H   LIG    1       -0.440  -2.560  -2.270  0.00  0.00    +0.370 HD
ENDBRANCH  16  17
BRANCH  16  19
ATOM     19  C   LIG    1       -2.186  -3.255  -0.400  0.00  0.00    +0.170 C 
BRANCH  19  20
ATOM     20  O   LIG    1       -2.004  -4.673  -0.388  0.00  0.00    -0.300 OA
BRANCH  20  21
ATOM     21  C   LIG    1       -3.122  -5.439  -0.486  0.00  0.00    +0.130 A 
ATOM     22  C   LIG    1       -4.369  -4.838  -0.586  0.00  0.00    -0.080 A 
ATOM     23  C   LIG    1       -5.504  -5.619  -0.691  0.00  0.00    +0.040 A 
ATOM     24  C   LIG    1       -5.399  -6.998  -0.685  0.00  0.00    -0.040 A 
ATOM     25  C   LIG    1       -4.158  -7.598  -0.580  0.00  0.00    +0.050 A 
ATOM     26  C   LIG    1       -3.020  -6.822  -0.480  0.00  0.00    -0.020 A 
ENDBRANCH  20  21
ENDBRANCH  19  20
ENDBRANCH  16  19
ENDBRANCH  15  16
ENDBRANCH   4  15
TORSDOF 8
