REMARK  Name = ZINCrD000000B5Uu.0
REMARK                            x       y       z     vdW  Elec       q    Type
REMARK                         _______ _______ _______ _____ _____    ______ ____
ROOT
ATOM      1  C   LIG    1        0.083  -4.173   2.589  0.00  0.00    +0.000 C 
ATOM      2  C   LIG    1       -1.166  -4.696   1.876  0.00  0.00    +0.030 C 
ATOM      3  C   LIG    1       -1.124  -6.227   1.838  0.00  0.00    +0.300 C 
ATOM      4  N   LIG    1       -0.958  -6.729   3.209  0.00  0.00    -1.000 NA
ATOM      5  C   LIG    1        0.160  -6.222   4.016  0.00  0.00    +0.300 C 
ATOM      6  C   LIG    1        0.105  -4.691   4.029  0.00  0.00    +0.050 C 
ENDROOT
BRANCH   1   8
ATOM      7  O   LIG    1        0.065  -2.066   3.651  0.00  0.00    -0.530 OA
ATOM      8  C   LIG    1        0.063  -2.667   2.597  0.00  0.00    +0.520 C 
ATOM      9  N   LIG    1        0.043  -1.987   1.434  0.00  0.00    -0.730 N 
ATOM     10  H   LIG    1        0.041  -2.467   0.591  0.00  0.00    +0.400 HD
BRANCH   9  11
ATOM     11  C   LIG    1        0.023  -0.522   1.442  0.00  0.00    +0.260 C 
BRANCH  11  12
ATOM     12  C   LIG    1        0.002  -0.004   0.002  0.00  0.00    +0.110 C 
BRANCH  12  13
ATOM     13  C   LIG    1       -0.018   1.503   0.010  0.00  0.00    -0.180 A 
ATOM     14  C   LIG    1        1.061   2.287   0.004  0.00  0.00    +0.010 A 
ATOM     15  C   LIG    1        0.795   3.645   0.014  0.00  0.00    +0.000 A 
ATOM     16  C   LIG    1       -0.499   3.965   0.027  0.00  0.00    -0.040 A 
ATOM     17  S   LIG    1       -1.469   2.497   0.022  0.00  0.00    +0.100 S 
ENDBRANCH  12  13
ENDBRANCH  11  12
ENDBRANCH   9  11
ENDBRANCH   1   8
BRANCH   4  18
ATOM     18  S   LIG    1       -2.010  -7.846   3.833  0.00  0.00    +2.690 S 
ATOM     19  O   LIG    1       -1.313  -8.516   4.874  0.00  0.00    -0.940 OA
ATOM     20  O   LIG    1       -2.583  -8.521   2.722  0.00  0.00    -0.940 OA
BRANCH  18  21
ATOM     21  C   LIG    1       -3.320  -6.954   4.604  0.00  0.00    -0.680 A 
ATOM     22  C   LIG    1       -4.442  -6.608   3.874  0.00  0.00    +0.170 A 
ATOM     23  C   LIG    1       -5.471  -5.909   4.478  0.00  0.00    +0.000 A 
ATOM     24  C   LIG    1       -5.378  -5.556   5.813  0.00  0.00    +0.170 A 
ATOM     25  C   LIG    1       -4.252  -5.904   6.543  0.00  0.00    -0.100 A 
ATOM     26 CL   LIG    1       -4.133  -5.463   8.218  0.00  0.00    -0.030 Cl
ATOM     27  F   LIG    1       -6.382  -4.873   6.403  0.00  0.00    -0.110 F 
ATOM     28  C   LIG    1       -3.227  -6.608   5.939  0.00  0.00    +0.180 A 
ENDBRANCH  18  21
ENDBRANCH   4  18
TORSDOF 6
