REMARK  Name = ZINCrD0000072BbK.0
REMARK                            x       y       z     vdW  Elec       q    Type
REMARK                         _______ _______ _______ _____ _____    ______ ____
ROOT
ATOM      1  C   LIG    1       -4.321   0.462  -5.106  0.00  0.00    +0.520 C 
ATOM      2  O   LIG    1       -4.005  -0.475  -5.812  0.00  0.00    -0.500 OA
ENDROOT
BRANCH   1   3
ATOM      3  C   LIG    1       -5.232   1.502  -5.623  0.00  0.00    -0.120 A 
ATOM      4  C   LIG    1       -5.597   2.579  -4.814  0.00  0.00    +0.120 A 
ATOM      5  C   LIG    1       -6.449   3.550  -5.300  0.00  0.00    +0.030 A 
ATOM      6  C   LIG    1       -6.945   3.459  -6.588  0.00  0.00    +0.000 A 
ATOM      7  C   LIG    1       -6.588   2.389  -7.402  0.00  0.00    +0.140 A 
ATOM      8 CL   LIG    1       -8.017   4.685  -7.191  0.00  0.00    -0.040 Cl
ATOM      9  C   LIG    1       -5.728   1.413  -6.926  0.00  0.00    +0.120 A 
BRANCH   7  10
ATOM     10  N   LIG    1       -7.092   2.302  -8.705  0.00  0.00    -0.580 N 
ATOM     11  C   LIG    1       -6.443   2.884  -9.886  0.00  0.00    +0.260 C 
ATOM     12  C   LIG    1       -7.091   2.179 -11.100  0.00  0.00    +0.060 C 
ATOM     13  C   LIG    1       -8.468   1.771 -10.527  0.00  0.00    +0.070 C 
ATOM     14  C   LIG    1       -8.236   1.678  -9.035  0.00  0.00    +0.520 C 
ATOM     15  O   LIG    1       -8.976   1.122  -8.251  0.00  0.00    -0.510 OA
ENDBRANCH   7  10
ENDBRANCH   1   3
BRANCH   1  16
ATOM     16  O   LIG    1       -3.839   0.552  -3.851  0.00  0.00    -0.330 OA
BRANCH  16  17
ATOM     17  C   LIG    1       -2.948  -0.506  -3.409  0.00  0.00    +0.260 C 
BRANCH  17  20
ATOM     18  C   LIG    1       -1.193  -2.283  -2.070  0.00  0.00    +0.290 C 
ATOM     19  N   LIG    1       -1.679  -1.093  -1.368  0.00  0.00    -0.610 N 
ATOM     20  C   LIG    1       -2.514  -0.237  -1.991  0.00  0.00    +0.520 C 
ATOM     21  O   LIG    1       -2.916   0.748  -1.410  0.00  0.00    -0.510 OA
BRANCH  19  22
ATOM     22  C   LIG    1       -1.257  -0.832   0.010  0.00  0.00    +0.370 C 
BRANCH  22  23
ATOM     23  C   LIG    1        0.002  -0.004   0.002  0.00  0.00    -0.120 A 
ATOM     24  C   LIG    1        1.219  -0.550  -0.013  0.00  0.00    -0.040 A 
ATOM     25  S   LIG    1        2.435   0.721  -0.017  0.00  0.00    +0.100 S 
ATOM     26  C   LIG    1        1.185   1.958   0.001  0.00  0.00    -0.050 A 
ATOM     27  C   LIG    1       -0.017   1.380   0.010  0.00  0.00    +0.030 A 
ENDBRANCH  22  23
ENDBRANCH  19  22
ENDBRANCH  17  20
ENDBRANCH  16  17
ENDBRANCH   1  16
TORSDOF 7
