REMARK  Name = ZINCvU0000000EzQ.0
REMARK                            x       y       z     vdW  Elec       q    Type
REMARK                         _______ _______ _______ _____ _____    ______ ____
ROOT
ATOM      1  C   LIG    1       -1.514   1.233  -1.720  0.00  0.00    +0.610 C 
ATOM      2  N   LIG    1       -0.470   2.035  -1.430  0.00  0.00    -0.720 N 
ATOM      3  H   LIG    1       -0.282   2.806  -1.987  0.00  0.00    +0.410 HD
ATOM      4  O   LIG    1       -1.750   0.266  -1.022  0.00  0.00    -0.500 OA
ENDROOT
BRANCH   1   7
ATOM      5  C   LIG    1       -4.140   3.046  -1.794  0.00  0.00    +0.220 C 
ATOM      6  C   LIG    1       -3.500   2.303  -2.938  0.00  0.00    +0.030 A 
ATOM      7  C   LIG    1       -2.369   1.529  -2.882  0.00  0.00    -0.240 A 
ATOM      8  C   LIG    1       -2.216   1.069  -4.279  0.00  0.00    +0.090 A 
ATOM      9  N   LIG    1       -3.225   1.598  -4.924  0.00  0.00    -0.320 NA
ATOM     10  O   LIG    1       -3.922   2.270  -4.204  0.00  0.00    +0.120 OA
BRANCH   8  11
ATOM     11  C   LIG    1       -1.153   0.195  -4.829  0.00  0.00    -0.060 A 
ATOM     12  C   LIG    1       -0.831  -1.004  -4.191  0.00  0.00    +0.140 A 
ATOM     13  C   LIG    1        0.159  -1.817  -4.713  0.00  0.00    +0.000 A 
ATOM     14  C   LIG    1        0.835  -1.438  -5.858  0.00  0.00    +0.090 A 
ATOM     15  C   LIG    1        0.523  -0.249  -6.492  0.00  0.00    +0.030 A 
ATOM     16  F   LIG    1       -1.487  -1.371  -3.069  0.00  0.00    -0.110 F 
ATOM     17  C   LIG    1       -0.466   0.570  -5.984  0.00  0.00    +0.020 A 
ATOM     18 CL   LIG    1       -0.856   2.061  -6.782  0.00  0.00    -0.040 Cl
ENDBRANCH   8  11
ENDBRANCH   1   7
BRANCH   2  19
ATOM     19  C   LIG    1        0.380   1.741  -0.274  0.00  0.00    +0.390 C 
ATOM     20  C   LIG    1       -0.245   2.345   0.985  0.00  0.00    +0.070 C 
BRANCH  19  21
ATOM     21  C   LIG    1        1.747   2.336  -0.491  0.00  0.00    +0.170 A 
ATOM     22  N   LIG    1        2.896   1.749  -0.267  0.00  0.00    -0.460 NA
ATOM     23  C   LIG    1        3.840   2.657  -0.603  0.00  0.00    +0.220 A 
ATOM     24  N   LIG    1        3.215   3.732  -1.008  0.00  0.00    -0.370 NA
ATOM     25  O   LIG    1        2.015   3.561  -0.955  0.00  0.00    +0.090 OA
BRANCH  23  26
ATOM     26  C   LIG    1        5.310   2.469  -0.527  0.00  0.00    -0.040 A 
ATOM     27  C   LIG    1        5.837   1.264  -0.067  0.00  0.00    +0.110 A 
ATOM     28  C   LIG    1        7.205   1.091  -0.004  0.00  0.00    -0.010 A 
ATOM     29  C   LIG    1        8.053   2.118  -0.385  0.00  0.00    +0.120 A 
ATOM     30  C   LIG    1        7.533   3.320  -0.837  0.00  0.00    -0.010 A 
ATOM     31  F   LIG    1        9.392   1.946  -0.315  0.00  0.00    -0.130 F 
ATOM     32  C   LIG    1        6.167   3.499  -0.909  0.00  0.00    +0.090 A 
ENDBRANCH  23  26
ENDBRANCH  19  21
ENDBRANCH   2  19
TORSDOF 5
