REMARK  Name = ZINCpk0000053tbF.1
REMARK                            x       y       z     vdW  Elec       q    Type
REMARK                         _______ _______ _______ _____ _____    ______ ____
ROOT
ATOM      1  C   LIG    1       -2.742   4.413   0.860  0.00  0.00    +0.540 C 
ATOM      2  N   LIG    1       -1.571   3.949   0.382  0.00  0.00    -0.600 N 
ATOM      3  C   LIG    1       -0.700   3.225   1.262  0.00  0.00    +0.300 C 
ATOM      4  C   LIG    1       -1.128   1.749   1.238  0.00  0.00    -0.050 C 
ATOM      5  C   LIG    1       -0.637   1.056   0.037  0.00  0.00    +0.280 C 
ATOM      6  N   LIG    1       -1.144   1.725  -1.184  0.00  0.00    -0.600 N 
ATOM      7  C   LIG    1       -0.541   2.946  -1.638  0.00  0.00    +0.210 C 
ATOM      8  C   LIG    1       -0.636   3.008  -3.164  0.00  0.00    +0.050 C 
ATOM      9  C   LIG    1       -2.174   1.188  -1.868  0.00  0.00    +0.520 C 
ATOM     10  O   LIG    1       -2.655   1.785  -2.807  0.00  0.00    -0.530 OA
ATOM     11  C   LIG    1       -0.568   1.052   2.480  0.00  0.00    +0.040 C 
ATOM     12  C   LIG    1       -1.223   4.203  -1.043  0.00  0.00    +0.260 C 
ATOM     13  O   LIG    1       -3.045   4.217   2.018  0.00  0.00    -0.530 OA
ENDROOT
BRANCH   1  16
ATOM     14  C   LIG    1       -4.990   5.677   0.558  0.00  0.00    +0.000 C 
ATOM     15  C   LIG    1       -4.997   4.505  -0.425  0.00  0.00    +0.060 C 
ATOM     16  C   LIG    1       -3.676   5.176  -0.044  0.00  0.00    -0.080 C 
BRANCH  14  18
ATOM     17  C   LIG    1       -6.550   6.052   2.473  0.00  0.00    +0.000 C 
ATOM     18  C   LIG    1       -5.256   5.365   2.032  0.00  0.00    +0.070 C 
ENDBRANCH  14  18
ENDBRANCH   1  16
BRANCH   9  19
ATOM     19  C   LIG    1       -2.727  -0.155  -1.465  0.00  0.00    +0.050 C 
BRANCH  19  20
ATOM     20  C   LIG    1       -3.881  -0.531  -2.396  0.00  0.00    +0.170 C 
BRANCH  20  21
ATOM     21  C   LIG    1       -4.435  -1.874  -1.993  0.00  0.00    -0.020 A 
ATOM     22  C   LIG    1       -5.722  -2.161  -1.689  0.00  0.00    +0.150 A 
ATOM     23  N   LIG    1       -5.753  -3.480  -1.389  0.00  0.00    -0.390 N 
ATOM     24  H   LIG    1       -6.539  -3.985  -1.129  0.00  0.00    +0.450 HD
ATOM     25  N   LIG    1       -4.560  -3.949  -1.506  0.00  0.00    -0.080 NA
ATOM     26  N   LIG    1       -3.751  -3.017  -1.871  0.00  0.00    -0.260 NA
ENDBRANCH  20  21
ENDBRANCH  19  20
ENDBRANCH   9  19
TORSDOF 5
