REMARK  Name = ZINCpk0000053tbF.0
REMARK                            x       y       z     vdW  Elec       q    Type
REMARK                         _______ _______ _______ _____ _____    ______ ____
ROOT
ATOM      1  C   LIG    1       -3.110   3.040   0.980  0.00  0.00    +0.540 C 
ATOM      2  N   LIG    1       -1.888   3.227   0.442  0.00  0.00    -0.610 N 
ATOM      3  C   LIG    1       -0.731   3.056   1.272  0.00  0.00    +0.300 C 
ATOM      4  C   LIG    1       -0.352   1.567   1.250  0.00  0.00    -0.050 C 
ATOM      5  C   LIG    1        0.366   1.202   0.019  0.00  0.00    +0.280 C 
ATOM      6  N   LIG    1       -0.467   1.506  -1.169  0.00  0.00    -0.600 N 
ATOM      7  C   LIG    1       -0.587   2.859  -1.636  0.00  0.00    +0.210 C 
ATOM      8  C   LIG    1       -0.771   2.843  -3.155  0.00  0.00    +0.050 C 
ATOM      9  C   LIG    1       -1.112   0.512  -1.811  0.00  0.00    +0.520 C 
ATOM     10  O   LIG    1       -1.874   0.771  -2.718  0.00  0.00    -0.530 OA
ATOM     11  C   LIG    1        0.541   1.266   2.455  0.00  0.00    +0.040 C 
ATOM     12  C   LIG    1       -1.784   3.604  -0.994  0.00  0.00    +0.260 C 
ATOM     13  O   LIG    1       -3.217   2.732   2.148  0.00  0.00    -0.530 OA
ENDROOT
BRANCH   1  16
ATOM     14  C   LIG    1       -5.699   2.986   0.798  0.00  0.00    +0.000 C 
ATOM     15  C   LIG    1       -5.156   1.959  -0.197  0.00  0.00    +0.060 C 
ATOM     16  C   LIG    1       -4.342   3.212   0.130  0.00  0.00    -0.080 C 
BRANCH  14  18
ATOM     17  C   LIG    1       -7.143   2.543   2.789  0.00  0.00    +0.000 C 
ATOM     18  C   LIG    1       -5.702   2.602   2.279  0.00  0.00    +0.070 C 
ENDBRANCH  14  18
ENDBRANCH   1  16
BRANCH   9  19
ATOM     19  C   LIG    1       -0.887  -0.920  -1.400  0.00  0.00    +0.050 C 
BRANCH  19  20
ATOM     20  C   LIG    1       -1.733  -1.842  -2.281  0.00  0.00    +0.170 C 
BRANCH  20  21
ATOM     21  C   LIG    1       -1.508  -3.274  -1.871  0.00  0.00    +0.010 A 
ATOM     22  N   LIG    1       -0.358  -3.903  -1.791  0.00  0.00    -0.280 NA
ATOM     23  N   LIG    1       -0.574  -5.112  -1.406  0.00  0.00    -0.250 N 
ATOM     24  H   LIG    1        0.117  -5.779  -1.271  0.00  0.00    +0.470 HD
ATOM     25  N   LIG    1       -1.831  -5.314  -1.226  0.00  0.00    -0.280 NA
ATOM     26  C   LIG    1       -2.480  -4.204  -1.492  0.00  0.00    +0.180 A 
ENDBRANCH  20  21
ENDBRANCH  19  20
ENDBRANCH   9  19
TORSDOF 5
