REMARK  Name = ZINC590000002rwu.0
REMARK                            x       y       z     vdW  Elec       q    Type
REMARK                         _______ _______ _______ _____ _____    ______ ____
ROOT
ATOM      1  C   LIG    1       -0.754   3.418   1.277  0.00  0.00    +0.100 C 
ATOM      2  C   LIG    1       -0.733   1.888   1.268  0.00  0.00    +0.150 C 
ENDROOT
BRANCH   2   3
ATOM      3  N   LIG    1       -2.111   1.380   1.279  0.00  0.00    -0.640 N 
ATOM      4  H   LIG    1       -2.599   1.714   0.462  0.00  0.00    +0.430 HD
ATOM      5  H   LIG    1       -2.583   1.705   2.109  0.00  0.00    +0.440 HD
ATOM      6  H   LIG    1       -2.098   0.371   1.273  0.00  0.00    +0.440 HD
ENDBRANCH   2   3
BRANCH   2   7
ATOM      7  C   LIG    1       -0.017   1.395   0.010  0.00  0.00    +0.280 C 
ATOM      8  F   LIG    1        0.002  -0.004   0.002  0.00  0.00    -0.200 F 
ENDBRANCH   2   7
TORSDOF 2
