REMARK  Name = ZINCpk000000mZ9w.1
REMARK                            x       y       z     vdW  Elec       q    Type
REMARK                         _______ _______ _______ _____ _____    ______ ____
ROOT
ATOM      1  S   LIG    1       -3.679   3.331   0.874  0.00  0.00    +2.690 S 
ATOM      2  O   LIG    1       -4.031   1.997   0.534  0.00  0.00    -0.950 OA
ATOM      3  O   LIG    1       -4.552   4.436   0.690  0.00  0.00    -0.940 OA
ENDROOT
BRANCH   1   7
ATOM      4  C   LIG    1       -2.584   3.283   5.268  0.00  0.00    +0.210 A 
ATOM      5  C   LIG    1       -3.002   4.463   4.668  0.00  0.00    +0.010 A 
ATOM      6  C   LIG    1       -3.335   4.475   3.328  0.00  0.00    +0.150 A 
ATOM      7  C   LIG    1       -3.252   3.312   2.583  0.00  0.00    -0.700 A 
ATOM      8  C   LIG    1       -2.841   2.134   3.179  0.00  0.00    +0.140 A 
ATOM      9  C   LIG    1       -2.502   2.117   4.518  0.00  0.00    -0.030 A 
BRANCH   4  12
ATOM     10  C   LIG    1       -2.453   4.146   8.929  0.00  0.00    +0.120 C 
ATOM     11  C   LIG    1       -2.894   4.074   7.490  0.00  0.00    +0.510 C 
ATOM     12  N   LIG    1       -2.246   3.268   6.626  0.00  0.00    -0.680 N 
ATOM     13  H   LIG    1       -1.546   2.678   6.945  0.00  0.00    +0.420 HD
ATOM     14  O   LIG    1       -3.833   4.741   7.110  0.00  0.00    -0.520 OA
ENDBRANCH   4  12
ENDBRANCH   1   7
BRANCH   1  15
ATOM     15  N   LIG    1       -2.298   3.680   0.028  0.00  0.00    -1.040 N 
ATOM     16  H   LIG    1       -2.234   4.506  -0.476  0.00  0.00    +0.440 HD
BRANCH  15  17
ATOM     17  C   LIG    1       -1.225   2.784   0.041  0.00  0.00    +0.130 A 
ATOM     18  C   LIG    1       -1.451   1.412   0.074  0.00  0.00    +0.070 A 
ATOM     19  C   LIG    1       -0.354   0.563   0.092  0.00  0.00    +0.020 A 
ATOM     20  C   LIG    1        0.918   1.100   0.066  0.00  0.00    +0.290 A 
ATOM     21  N   LIG    1        1.105   2.405   0.029  0.00  0.00    -0.470 NA
ATOM     22  C   LIG    1        0.090   3.252   0.016  0.00  0.00    +0.340 A 
BRANCH  22  23
ATOM     23  N   LIG    1        0.335   4.629  -0.023  0.00  0.00    -0.330 N 
ATOM     24  C   LIG    1        1.444   5.265   0.406  0.00  0.00    +0.530 A 
ATOM     25  N   LIG    1        1.283   6.546   0.195  0.00  0.00    -0.540 NA
ATOM     26  C   LIG    1        0.093   6.767  -0.363  0.00  0.00    +0.460 A 
ATOM     27  N   LIG    1       -0.522   5.624  -0.522  0.00  0.00    -0.330 NA
ENDBRANCH  22  23
ENDBRANCH  15  17
ENDBRANCH   1  15
TORSDOF 5
