REMARK  Name = ZINCvU0000000Ewo.0
REMARK                            x       y       z     vdW  Elec       q    Type
REMARK                         _______ _______ _______ _____ _____    ______ ____
ROOT
ATOM      1  C   LIG    1       -6.970   1.603  -6.027  0.00  0.00    +0.240 A 
ATOM      2  N   LIG    1       -6.067   1.968  -5.174  0.00  0.00    -0.500 NA
ATOM      3  C   LIG    1       -4.805   1.927  -5.580  0.00  0.00    +0.180 A 
ATOM      4  C   LIG    1       -4.648   1.507  -6.848  0.00  0.00    -0.130 A 
ATOM      5  S   LIG    1       -6.242   1.149  -7.506  0.00  0.00    +0.240 S 
ENDROOT
BRANCH   3   6
ATOM      6  C   LIG    1       -3.665   2.318  -4.712  0.00  0.00    -0.110 A 
ATOM      7  C   LIG    1       -3.741   2.756  -3.427  0.00  0.00    +0.050 A 
ATOM      8  N   LIG    1       -2.474   3.008  -2.991  0.00  0.00    -0.440 N 
ATOM      9  C   LIG    1       -1.596   2.735  -3.999  0.00  0.00    +0.030 A 
ATOM     10  C   LIG    1       -0.099   2.887  -3.927  0.00  0.00    +0.130 C 
ATOM     11  C   LIG    1       -5.005   2.931  -2.625  0.00  0.00    +0.140 C 
ATOM     12  C   LIG    1       -2.293   2.304  -5.068  0.00  0.00    -0.040 A 
BRANCH   8  13
ATOM     13  C   LIG    1       -2.114   3.498  -1.658  0.00  0.00    +0.310 C 
BRANCH  13  14
ATOM     14  C   LIG    1       -1.880   2.309  -0.724  0.00  0.00    +0.150 C 
ATOM     15  C   LIG    1       -1.552   2.804   0.708  0.00  0.00    +0.020 C 
ATOM     16  C   LIG    1       -0.753   1.593   1.264  0.00  0.00    +0.020 C 
ATOM     17  C   LIG    1       -0.013   1.086   0.008  0.00  0.00    +0.190 C 
ATOM     18  O   LIG    1       -0.722   1.569  -1.139  0.00  0.00    -0.370 OA
ENDBRANCH  13  14
ENDBRANCH   8  13
ENDBRANCH   3   6
BRANCH   1  20
ATOM     19  C   LIG    1       -9.192   1.183  -6.738  0.00  0.00    +0.510 C 
ATOM     20  N   LIG    1       -8.336   1.582  -5.776  0.00  0.00    -0.620 N 
ATOM     21  H   LIG    1       -8.675   1.855  -4.909  0.00  0.00    +0.420 HD
ATOM     22  O   LIG    1       -8.769   0.841  -7.822  0.00  0.00    -0.470 OA
BRANCH  19  23
ATOM     23  C   LIG    1      -10.674   1.160  -6.466  0.00  0.00    +0.250 C 
BRANCH  23  24
ATOM     24  O   LIG    1      -11.365   0.703  -7.630  0.00  0.00    -0.290 OA
BRANCH  24  30
ATOM     25  C   LIG    1      -15.454   1.280  -5.028  0.00  0.00    +0.090 C 
ATOM     26  C   LIG    1      -14.747   0.896  -6.303  0.00  0.00    -0.050 A 
ATOM     27  C   LIG    1      -15.477   0.462  -7.394  0.00  0.00    -0.020 A 
ATOM     28  C   LIG    1      -14.831   0.109  -8.564  0.00  0.00    +0.050 A 
ATOM     29  C   LIG    1      -13.455   0.194  -8.648  0.00  0.00    -0.110 A 
ATOM     30  C   LIG    1      -12.720   0.624  -7.552  0.00  0.00    +0.130 A 
ATOM     31  C   LIG    1      -12.752  -0.185  -9.926  0.00  0.00    +0.100 C 
ATOM     32  C   LIG    1      -13.370   0.978  -6.379  0.00  0.00    -0.080 A 
ENDBRANCH  24  30
ENDBRANCH  23  24
ENDBRANCH  19  23
ENDBRANCH   1  20
TORSDOF 7
