REMARK  Name = ZINCpk00000K9po2.1
REMARK                            x       y       z     vdW  Elec       q    Type
REMARK                         _______ _______ _______ _____ _____    ______ ____
ROOT
ATOM      1  C   LIG    1        7.410  -0.465   0.790  0.00  0.00    +0.540 C 
ATOM      2  N   LIG    1        6.418   0.419   0.560  0.00  0.00    -0.600 N 
ATOM      3  C   LIG    1        6.015   1.378   1.598  0.00  0.00    +0.270 C 
ATOM      4  C   LIG    1        4.510   1.224   1.849  0.00  0.00    +0.270 C 
ATOM      5  N   LIG    1        3.813   1.246   0.555  0.00  0.00    -0.610 N 
ATOM      6  C   LIG    1        4.213   0.283  -0.481  0.00  0.00    +0.280 C 
ATOM      7  C   LIG    1        2.821   2.129   0.325  0.00  0.00    +0.550 C 
ATOM      8  O   LIG    1        2.497   2.915   1.190  0.00  0.00    -0.540 OA
ATOM      9  C   LIG    1        5.721   0.441  -0.734  0.00  0.00    +0.280 C 
ATOM     10  O   LIG    1        8.036  -0.417   1.828  0.00  0.00    -0.530 OA
ENDROOT
BRANCH   1  11
ATOM     11  C   LIG    1        7.740  -1.512  -0.241  0.00  0.00    +0.140 C 
ATOM     12  C   LIG    1        8.572  -2.646   0.394  0.00  0.00    +0.050 C 
ATOM     13  C   LIG    1       10.020  -2.183   0.127  0.00  0.00    +0.090 C 
ATOM     14  C   LIG    1        9.936  -1.312  -1.109  0.00  0.00    -0.080 A 
ATOM     15  C   LIG    1       10.928  -0.891  -1.978  0.00  0.00    +0.010 A 
ATOM     16  C   LIG    1       10.611  -0.086  -3.056  0.00  0.00    +0.020 A 
ATOM     17  C   LIG    1        9.301   0.299  -3.267  0.00  0.00    +0.010 A 
ATOM     18  C   LIG    1        8.310  -0.120  -2.401  0.00  0.00    +0.040 A 
ATOM     19  C   LIG    1        8.626  -0.927  -1.320  0.00  0.00    -0.100 A 
BRANCH  11  21
ATOM     20  C   LIG    1        6.812  -3.020  -1.894  0.00  0.00    +0.210 C 
ATOM     21  N   LIG    1        6.507  -2.052  -0.831  0.00  0.00    -0.520 NA
ATOM     22  C   LIG    1        5.650  -2.654   0.199  0.00  0.00    +0.200 C 
ENDBRANCH  11  21
ENDBRANCH   1  11
BRANCH   7  23
ATOM     23  C   LIG    1        2.116   2.139  -1.006  0.00  0.00    -0.070 C 
ATOM     24  C   LIG    1        0.999   3.166  -1.206  0.00  0.00    +0.060 C 
ATOM     25  C   LIG    1        0.655   1.685  -1.035  0.00  0.00    +0.060 C 
ENDBRANCH   7  23
TORSDOF 3
