REMARK  Name = ZINCpe000000YZrz.0
REMARK                            x       y       z     vdW  Elec       q    Type
REMARK                         _______ _______ _______ _____ _____    ______ ____
ROOT
ATOM      1  O   LIG    1        5.335  -1.794  -4.586  0.00  0.00    -0.510 OA
ATOM      2  C   LIG    1        4.157  -1.519  -4.496  0.00  0.00    +0.500 C 
ATOM      3  N   LIG    1        3.760  -0.504  -3.704  0.00  0.00    -0.610 N 
ATOM      4  C   LIG    1        4.739   0.284  -2.940  0.00  0.00    +0.300 C 
ATOM      5  C   LIG    1        4.287   0.335  -1.477  0.00  0.00    +0.170 C 
ATOM      6  N   LIG    1        2.905   0.829  -1.411  0.00  0.00    -0.530 NA
ATOM      7  C   LIG    1        1.979  -0.086  -2.093  0.00  0.00    +0.170 C 
ATOM      8  C   LIG    1        2.337  -0.154  -3.581  0.00  0.00    +0.290 C 
ENDROOT
BRANCH   6   9
ATOM      9  C   LIG    1        2.491   1.055  -0.020  0.00  0.00    +0.230 C 
BRANCH   9  10
ATOM     10  C   LIG    1        1.173   1.786   0.000  0.00  0.00    -0.080 A 
ATOM     11  C   LIG    1       -0.013   1.076   0.008  0.00  0.00    +0.000 A 
ATOM     12  C   LIG    1       -1.215   1.752   0.017  0.00  0.00    +0.000 A 
ATOM     13  C   LIG    1       -1.244   3.140   0.031  0.00  0.00    -0.070 A 
ATOM     14  C   LIG    1       -2.592   3.813   0.034  0.00  0.00    +0.070 C 
ATOM     15  C   LIG    1       -2.464   5.269   0.479  0.00  0.00    +0.020 C 
ATOM     16  C   LIG    1       -1.368   5.937  -0.360  0.00  0.00    +0.020 C 
ATOM     17  C   LIG    1       -0.019   5.353   0.056  0.00  0.00    +0.070 C 
ATOM     18  C   LIG    1       -0.063   3.847   0.030  0.00  0.00    -0.070 A 
ATOM     19  C   LIG    1        1.147   3.165   0.011  0.00  0.00    +0.020 A 
ENDBRANCH   9  10
ENDBRANCH   6   9
BRANCH   2  20
ATOM     20  C   LIG    1        3.138  -2.314  -5.271  0.00  0.00    +0.380 C 
BRANCH  20  21
ATOM     21  N   LIG    1        3.816  -3.353  -6.049  0.00  0.00    -0.300 N 
ATOM     22  C   LIG    1        3.564  -4.674  -6.011  0.00  0.00    +0.400 A 
ATOM     23  N   LIG    1        4.389  -5.240  -6.857  0.00  0.00    -0.300 NA
ATOM     24  N   LIG    1        5.116  -4.315  -7.383  0.00  0.00    -0.070 NA
ATOM     25  N   LIG    1        4.773  -3.174  -6.896  0.00  0.00    -0.060 NA
ENDBRANCH  20  21
ENDBRANCH   2  20
TORSDOF 4
