REMARK  Name = ZINCnE000001Ebd8.1
REMARK                            x       y       z     vdW  Elec       q    Type
REMARK                         _______ _______ _______ _____ _____    ______ ____
ROOT
ATOM      1  N   LIG    1       -0.242   1.246   2.466  0.00  0.00    -0.730 N 
ATOM      2  H   LIG    1        0.555   0.699   2.544  0.00  0.00    +0.400 HD
ATOM      3  C   LIG    1       -0.718   1.572   1.248  0.00  0.00    +0.510 C 
ATOM      4  O   LIG    1       -1.714   2.256   1.150  0.00  0.00    -0.530 OA
ENDROOT
BRANCH   1   5
ATOM      5  C   LIG    1       -0.927   1.718   3.671  0.00  0.00    +0.290 C 
BRANCH   5   6
ATOM      6  C   LIG    1       -0.187   1.212   4.911  0.00  0.00    +0.130 C 
BRANCH   6  12
ATOM      7  N   LIG    1       -0.512   1.431   7.443  0.00  0.00    -0.500 N 
ATOM      8  C   LIG    1       -1.383   2.036   8.275  0.00  0.00    +0.390 A 
ATOM      9  N   LIG    1       -2.301   2.665   7.511  0.00  0.00    -0.380 NA
ATOM     10  N   LIG    1       -1.960   2.430   6.172  0.00  0.00    -0.320 NA
ATOM     11  S   LIG    1       -1.338   2.006   9.986  0.00  0.00    -0.780 S 
ATOM     12  C   LIG    1       -0.893   1.698   6.151  0.00  0.00    +0.160 A 
BRANCH   7  14
ATOM     13  C   LIG    1        1.594   1.489   8.684  0.00  0.00    +0.040 C 
ATOM     14  C   LIG    1        0.645   0.629   7.848  0.00  0.00    +0.230 C 
ATOM     15  C   LIG    1        0.172  -0.565   8.679  0.00  0.00    +0.040 C 
ENDBRANCH   7  14
ENDBRANCH   6  12
ENDBRANCH   5   6
ENDBRANCH   1   5
BRANCH   3  16
ATOM     16  C   LIG    1       -0.013   1.086   0.008  0.00  0.00    +0.040 C 
BRANCH  16  17
ATOM     17  C   LIG    1       -0.753   1.593  -1.232  0.00  0.00    +0.020 C 
ATOM     18  C   LIG    1       -0.666   3.119  -1.289  0.00  0.00    +0.020 C 
ATOM     19  C   LIG    1       -1.406   3.626  -2.528  0.00  0.00    +0.000 C 
ATOM     20  C   LIG    1       -0.765   3.031  -3.784  0.00  0.00    +0.000 C 
ATOM     21  C   LIG    1       -0.851   1.505  -3.727  0.00  0.00    +0.010 C 
ATOM     22  C   LIG    1       -0.111   0.998  -2.487  0.00  0.00    -0.060 C 
ATOM     23  C   LIG    1       -0.198  -0.528  -2.430  0.00  0.00    +0.010 C 
ATOM     24  C   LIG    1        1.357   1.423  -2.560  0.00  0.00    +0.010 C 
ENDBRANCH  16  17
ENDBRANCH   3  16
TORSDOF 6
