REMARK  Name = ZINCrH000004rUjA.0
REMARK                            x       y       z     vdW  Elec       q    Type
REMARK                         _______ _______ _______ _____ _____    ______ ____
ROOT
ATOM      1  C   LIG    1        0.768   9.890   0.231  0.00  0.00    +0.290 A 
ATOM      2  N   LIG    1        1.666  10.855   0.319  0.00  0.00    -0.500 NA
ATOM      3  C   LIG    1        2.962  10.601   0.300  0.00  0.00    +0.270 A 
ATOM      4  C   LIG    1        3.431   9.307   0.192  0.00  0.00    -0.040 A 
ATOM      5  C   LIG    1        2.525   8.260   0.103  0.00  0.00    +0.100 A 
ATOM      6  C   LIG    1        1.167   8.556   0.125  0.00  0.00    +0.100 A 
ENDROOT
BRANCH   6   7
ATOM      7  N   LIG    1        0.215   7.534   0.038  0.00  0.00    -0.660 N 
ATOM      8  H   LIG    1       -0.676   7.668   0.399  0.00  0.00    +0.410 HD
ATOM      9  C   LIG    1        0.535   6.362  -0.547  0.00  0.00    +0.600 C 
ATOM     10  O   LIG    1        1.617   6.229  -1.090  0.00  0.00    -0.510 OA
BRANCH   9  11
ATOM     11  C   LIG    1       -0.419   5.250  -0.530  0.00  0.00    -0.300 A 
ATOM     12  C   LIG    1       -0.229   3.974  -1.095  0.00  0.00    +0.330 A 
ATOM     13  N   LIG    1        0.788   3.427  -1.764  0.00  0.00    -0.450 NA
ATOM     14  C   LIG    1        0.720   2.188  -2.197  0.00  0.00    +0.380 A 
ATOM     15  C   LIG    1       -0.428   1.422  -1.961  0.00  0.00    -0.040 A 
ATOM     16  C   LIG    1       -1.468   1.974  -1.286  0.00  0.00    +0.360 A 
ATOM     17  N   LIG    1       -1.366   3.260  -0.845  0.00  0.00    -0.310 N 
ATOM     18  N   LIG    1       -2.248   4.082  -0.134  0.00  0.00    -0.300 NA
ATOM     19  C   LIG    1       -1.698   5.252   0.054  0.00  0.00    +0.340 A 
ENDBRANCH   9  11
ENDBRANCH   6   7
BRANCH   1  20
ATOM     20  O   LIG    1       -0.554  10.197   0.248  0.00  0.00    -0.250 OA
BRANCH  20  26
ATOM     21  C   LIG    1       -1.392  14.312   2.735  0.00  0.00    +0.090 C 
ATOM     22  C   LIG    1       -1.323  13.548   1.438  0.00  0.00    -0.080 A 
ATOM     23  C   LIG    1       -1.617  14.183   0.246  0.00  0.00    +0.020 A 
ATOM     24  C   LIG    1       -1.554  13.484  -0.946  0.00  0.00    +0.020 A 
ATOM     25  C   LIG    1       -1.199  12.150  -0.948  0.00  0.00    +0.010 A 
ATOM     26  C   LIG    1       -0.904  11.510   0.247  0.00  0.00    +0.100 A 
ATOM     27  C   LIG    1       -0.972  12.212   1.442  0.00  0.00    -0.080 A 
ATOM     28  C   LIG    1       -0.658  11.518   2.743  0.00  0.00    +0.100 C 
ENDBRANCH  20  26
ENDBRANCH   1  20
TORSDOF 4
