REMARK  Name = ZINCb80000004Ibe.0
REMARK                            x       y       z     vdW  Elec       q    Type
REMARK                         _______ _______ _______ _____ _____    ______ ____
ROOT
ATOM      1  C   LIG    1        1.180   1.497  -2.672  0.00  0.00    +0.090 C 
ATOM      2  C   LIG    1       -0.269   1.798  -2.386  0.00  0.00    +0.510 C 
ATOM      3  N   LIG    1       -0.768   1.595  -1.151  0.00  0.00    -0.620 N 
ATOM      4  C   LIG    1       -0.013   1.086   0.008  0.00  0.00    +0.250 C 
ATOM      5  C   LIG    1       -0.783   1.608   1.247  0.00  0.00    +0.040 C 
ATOM      6  C   LIG    1       -2.256   1.496   0.763  0.00  0.00    -0.010 C 
ATOM      7  C   LIG    1       -3.143   2.505   1.496  0.00  0.00    +0.030 C 
ATOM      8  C   LIG    1       -2.156   1.845  -0.736  0.00  0.00    +0.220 C 
ATOM      9  O   LIG    1       -0.985   2.223  -3.268  0.00  0.00    -0.500 OA
ENDROOT
BRANCH   8  10
ATOM     10  C   LIG    1       -2.506   3.319  -0.952  0.00  0.00    +0.150 C 
BRANCH  10  11
ATOM     11  O   LIG    1       -2.507   3.608  -2.352  0.00  0.00    -0.540 OA
ATOM     12  H   LIG    1       -2.722   4.527  -2.563  0.00  0.00    +0.370 HD
ENDBRANCH  10  11
ENDBRANCH   8  10
TORSDOF 2
