REMARK  Name = ZINCrH000004mtsC.0
REMARK                            x       y       z     vdW  Elec       q    Type
REMARK                         _______ _______ _______ _____ _____    ______ ____
ROOT
ATOM      1  C   LIG    1       -0.331   3.569   0.695  0.00  0.00    +0.560 C 
ATOM      2  N   LIG    1        1.011   3.533   0.569  0.00  0.00    -0.730 N 
ATOM      3  H   LIG    1        1.528   4.350   0.652  0.00  0.00    +0.400 HD
ATOM      4  O   LIG    1       -0.986   2.563   0.502  0.00  0.00    -0.520 OA
ENDROOT
BRANCH   1   8
ATOM      5  C   LIG    1       -2.269   7.200   1.746  0.00  0.00    +0.200 A 
ATOM      6  C   LIG    1       -0.897   7.185   1.510  0.00  0.00    -0.120 A 
ATOM      7  C   LIG    1       -0.265   6.010   1.175  0.00  0.00    +0.120 A 
ATOM      8  C   LIG    1       -1.003   4.828   1.059  0.00  0.00    -0.210 A 
ATOM      9  C   LIG    1       -2.386   4.845   1.297  0.00  0.00    +0.230 A 
ATOM     10  C   LIG    1       -3.010   6.032   1.639  0.00  0.00    -0.110 A 
BRANCH   5  12
ATOM     11  C   LIG    1       -2.062   9.528   2.174  0.00  0.00    +0.240 C 
ATOM     12  O   LIG    1       -2.884   8.362   2.082  0.00  0.00    -0.310 OA
ENDBRANCH   5  12
BRANCH   9  13
ATOM     13  O   LIG    1       -3.109   3.701   1.192  0.00  0.00    -0.270 OA
BRANCH  13  14
ATOM     14  C   LIG    1       -4.526   3.815   1.332  0.00  0.00    +0.150 C 
ATOM     15  C   LIG    1       -4.897   3.773   2.816  0.00  0.00    +0.020 C 
ATOM     16  C   LIG    1       -5.206   2.654   0.603  0.00  0.00    +0.070 C 
ENDBRANCH  13  14
ENDBRANCH   9  13
ENDBRANCH   1   8
BRANCH   2  17
ATOM     17  C   LIG    1        1.689   2.260   0.309  0.00  0.00    +0.310 C 
BRANCH  17  18
ATOM     18  C   LIG    1        3.203   2.474   0.336  0.00  0.00    -0.180 C 
ATOM     19  C   LIG    1        4.022   1.605   1.293  0.00  0.00    +0.040 C 
ATOM     20  C   LIG    1        3.807   3.088   1.601  0.00  0.00    +0.050 C 
BRANCH  18  21
ATOM     21  C   LIG    1        3.842   2.846  -1.004  0.00  0.00    +0.300 C 
BRANCH  21  22
ATOM     22  C   LIG    1        3.705   1.691  -1.962  0.00  0.00    -0.110 A 
ATOM     23  C   LIG    1        4.559   0.608  -1.866  0.00  0.00    +0.010 A 
ATOM     24  C   LIG    1        4.431  -0.453  -2.743  0.00  0.00    +0.000 A 
ATOM     25  C   LIG    1        3.455  -0.427  -3.722  0.00  0.00    +0.000 A 
ATOM     26  C   LIG    1        2.605   0.659  -3.821  0.00  0.00    +0.000 A 
ATOM     27  C   LIG    1        2.730   1.718  -2.942  0.00  0.00    +0.010 A 
ENDBRANCH  21  22
BRANCH  21  28
ATOM     28  O   LIG    1        5.226   3.140  -0.806  0.00  0.00    -0.550 OA
ATOM     29  H   LIG    1        5.737   2.405  -0.441  0.00  0.00    +0.370 HD
ENDBRANCH  21  28
ENDBRANCH  18  21
ENDBRANCH  17  18
ENDBRANCH   2  17
TORSDOF 9
