REMARK  Name = ZINCrD000001WnlL.0
REMARK                            x       y       z     vdW  Elec       q    Type
REMARK                         _______ _______ _______ _____ _____    ______ ____
ROOT
ATOM      1  C   LIG    1       -3.806   5.720  -2.982  0.00  0.00    +0.340 A 
ATOM      2  N   LIG    1       -3.804   6.979  -2.611  0.00  0.00    -0.300 NA
ATOM      3  N   LIG    1       -4.113   7.728  -3.608  0.00  0.00    -0.280 NA
ATOM      4  C   LIG    1       -4.328   6.999  -4.666  0.00  0.00    +0.210 A 
ATOM      5  N   LIG    1       -4.136   5.694  -4.306  0.00  0.00    -0.460 N 
ENDROOT
BRANCH   1  12
ATOM      6  C   LIG    1       -1.519   0.387  -0.095  0.00  0.00    +0.000 C 
ATOM      7  C   LIG    1       -0.892   1.357   0.929  0.00  0.00    +0.020 C 
ATOM      8  C   LIG    1        0.137   2.198   0.223  0.00  0.00    +0.010 C 
ATOM      9  C   LIG    1       -0.436   3.542  -0.266  0.00  0.00    +0.030 C 
ATOM     10  C   LIG    1       -1.844   3.406  -0.880  0.00  0.00    +0.130 C 
ATOM     11  C   LIG    1       -2.135   4.672  -1.698  0.00  0.00    +0.180 C 
ATOM     12  N   LIG    1       -3.522   4.625  -2.182  0.00  0.00    -0.460 N 
ATOM     13  C   LIG    1       -4.465   4.534  -1.058  0.00  0.00    +0.170 C 
ATOM     14  C   LIG    1       -4.150   3.282  -0.236  0.00  0.00    +0.230 C 
ATOM     15  C   LIG    1       -1.967   2.187  -1.756  0.00  0.00    +0.010 C 
ATOM     16  O   LIG    1       -2.789   3.333   0.197  0.00  0.00    -0.360 OA
ATOM     17  C   LIG    1       -2.537   1.031  -0.912  0.00  0.00    +0.000 C 
ENDBRANCH   1  12
BRANCH   4  18
ATOM     18  C   LIG    1       -4.713   7.500  -6.034  0.00  0.00    +0.200 C 
BRANCH  18  19
ATOM     19  C   LIG    1       -3.450   7.772  -6.852  0.00  0.00    -0.050 C 
ATOM     20  C   LIG    1       -3.184   9.216  -7.283  0.00  0.00    +0.020 C 
ATOM     21  C   LIG    1       -3.630   8.179  -8.316  0.00  0.00    +0.030 C 
ENDBRANCH  18  19
ENDBRANCH   4  18
BRANCH   5  22
ATOM     22  C   LIG    1       -4.261   4.512  -5.163  0.00  0.00    +0.330 C 
BRANCH  22  23
ATOM     23  C   LIG    1       -5.662   3.917  -5.010  0.00  0.00    +0.140 C 
ATOM     24  C   LIG    1       -5.779   2.604  -5.816  0.00  0.00    +0.010 C 
ATOM     25  C   LIG    1       -7.218   2.635  -6.377  0.00  0.00    +0.010 C 
ATOM     26  C   LIG    1       -7.800   3.963  -5.844  0.00  0.00    +0.210 C 
ATOM     27  O   LIG    1       -6.648   4.798  -5.590  0.00  0.00    -0.370 OA
ENDBRANCH  22  23
ENDBRANCH   5  22
TORSDOF 5
