REMARK  Name = ZINCvU0000000DZU.0
REMARK                            x       y       z     vdW  Elec       q    Type
REMARK                         _______ _______ _______ _____ _____    ______ ____
ROOT
ATOM      1  C   LIG    1        0.201   1.772   3.734  0.00  0.00    +0.050 C 
ATOM      2  C   LIG    1        1.696   1.754   3.408  0.00  0.00    +0.090 C 
ATOM      3  C   LIG    1        2.052   0.531   2.581  0.00  0.00    +0.030 C 
ATOM      4  C   LIG    1        1.897  -0.780   3.328  0.00  0.00    +0.030 C 
ATOM      5  C   LIG    1        0.426  -1.059   3.642  0.00  0.00    +0.270 C 
ATOM      6  N   LIG    1        0.082  -0.397   4.911  0.00  0.00    -0.560 N 
ATOM      7  C   LIG    1       -0.121  -1.137   6.019  0.00  0.00    +0.550 C 
ATOM      8  O   LIG    1       -0.490  -0.604   7.047  0.00  0.00    -0.450 OA
ATOM      9  C   LIG    1       -0.031   0.930   4.971  0.00  0.00    +0.520 C 
ATOM     10  O   LIG    1       -0.320   1.465   6.020  0.00  0.00    -0.440 OA
ENDROOT
BRANCH   7  11
ATOM     11  C   LIG    1        0.104  -2.597   5.984  0.00  0.00    -0.130 A 
ATOM     12  C   LIG    1        1.083  -3.135   5.145  0.00  0.00    +0.060 A 
ATOM     13  C   LIG    1        1.292  -4.497   5.120  0.00  0.00    +0.020 A 
ATOM     14  C   LIG    1        0.526  -5.333   5.917  0.00  0.00    -0.010 A 
ATOM     15  C   LIG    1       -0.449  -4.806   6.747  0.00  0.00    +0.030 A 
ATOM     16 CL   LIG    1        0.791  -7.048   5.875  0.00  0.00    -0.060 Cl
ATOM     17  C   LIG    1       -0.664  -3.444   6.785  0.00  0.00    +0.090 A 
ENDBRANCH   7  11
BRANCH   1  18
ATOM     18  S   LIG    1       -0.733   1.082   2.345  0.00  0.00    +0.060 S 
BRANCH  18  21
ATOM     19  C   LIG    1       -3.646   0.357   0.961  0.00  0.00    +0.350 C 
ATOM     20  N   LIG    1       -3.528   0.995   2.275  0.00  0.00    -0.460 N 
ATOM     21  C   LIG    1       -2.377   1.333   2.928  0.00  0.00    +0.120 A 
ATOM     22  N   LIG    1       -2.724   1.880   4.071  0.00  0.00    -0.270 NA
ATOM     23  N   LIG    1       -4.005   1.907   4.176  0.00  0.00    -0.260 NA
ATOM     24  C   LIG    1       -4.554   1.384   3.105  0.00  0.00    +0.230 A 
BRANCH  24  25
ATOM     25  C   LIG    1       -6.001   1.238   2.842  0.00  0.00    -0.010 A 
ATOM     26  C   LIG    1       -6.925   1.990   3.569  0.00  0.00    +0.090 A 
ATOM     27  C   LIG    1       -8.274   1.853   3.315  0.00  0.00    +0.040 A 
ATOM     28  C   LIG    1       -8.713   0.963   2.349  0.00  0.00    -0.020 A 
ATOM     29  C   LIG    1       -7.801   0.210   1.628  0.00  0.00    +0.030 A 
ATOM     30 CL   LIG    1      -10.412   0.791   2.040  0.00  0.00    -0.060 Cl
ATOM     31  C   LIG    1       -6.449   0.343   1.869  0.00  0.00    +0.040 A 
ENDBRANCH  24  25
ENDBRANCH  18  21
ENDBRANCH   1  18
TORSDOF 4
