REMARK  Name = ZINCqH00000098jS.0
REMARK                            x       y       z     vdW  Elec       q    Type
REMARK                         _______ _______ _______ _____ _____    ______ ____
ROOT
ATOM      1  N   LIG    1       -1.191   1.867   0.018  0.00  0.00    -0.730 N 
ATOM      2  H   LIG    1       -1.204   2.837   0.023  0.00  0.00    +0.400 HD
ATOM      3  C   LIG    1       -0.014   1.209   0.009  0.00  0.00    +0.520 C 
ATOM      4  O   LIG    1        0.002  -0.004   0.002  0.00  0.00    -0.540 OA
ENDROOT
BRANCH   1   6
ATOM      5  C   LIG    1       -2.816   0.740   1.456  0.00  0.00    +0.040 C 
ATOM      6  C   LIG    1       -2.449   1.117   0.020  0.00  0.00    +0.280 C 
BRANCH   6   7
ATOM      7  C   LIG    1       -3.543   1.969  -0.571  0.00  0.00    -0.060 A 
ATOM      8  C   LIG    1       -3.609   3.316  -0.265  0.00  0.00    +0.010 A 
ATOM      9  C   LIG    1       -4.609   4.103  -0.809  0.00  0.00    +0.060 A 
ATOM     10  C   LIG    1       -5.549   3.542  -1.651  0.00  0.00    +0.000 A 
ATOM     11  C   LIG    1       -5.487   2.189  -1.956  0.00  0.00    +0.140 A 
ATOM     12  C   LIG    1       -4.481   1.403  -1.413  0.00  0.00    +0.020 A 
BRANCH  11  13
ATOM     13  N   LIG    1       -6.441   1.617  -2.811  0.00  0.00    -0.410 N 
ATOM     14  C   LIG    1       -7.485   2.266  -3.417  0.00  0.00    +0.130 A 
ATOM     15  C   LIG    1       -8.146   1.346  -4.146  0.00  0.00    +0.160 A 
ATOM     16  N   LIG    1       -7.526   0.167  -3.992  0.00  0.00    -0.480 NA
ATOM     17  C   LIG    1       -6.500   0.317  -3.199  0.00  0.00    +0.400 A 
ENDBRANCH  11  13
ENDBRANCH   6   7
ENDBRANCH   1   6
BRANCH   3  18
ATOM     18  C   LIG    1        1.280   1.980   0.001  0.00  0.00    +0.070 C 
BRANCH  18  19
ATOM     19  C   LIG    1        2.457   1.002  -0.016  0.00  0.00    +0.070 C 
BRANCH  19  20
ATOM     20  C   LIG    1        3.751   1.773  -0.024  0.00  0.00    +0.400 C 
ATOM     21  O   LIG    1        3.735   2.985  -0.018  0.00  0.00    -0.450 OA
BRANCH  20  22
ATOM     22  C   LIG    1        5.036   1.054  -0.040  0.00  0.00    -0.170 A 
ATOM     23  C   LIG    1        5.059  -0.344  -0.042  0.00  0.00    +0.060 A 
ATOM     24  C   LIG    1        6.266  -1.010  -0.062  0.00  0.00    +0.000 A 
ATOM     25  C   LIG    1        7.453  -0.298  -0.070  0.00  0.00    +0.040 A 
ATOM     26  C   LIG    1        7.439   1.086  -0.063  0.00  0.00    +0.000 A 
ATOM     27  C   LIG    1        6.239   1.766  -0.048  0.00  0.00    +0.070 A 
ENDBRANCH  20  22
ENDBRANCH  19  20
ENDBRANCH  18  19
ENDBRANCH   3  18
TORSDOF 7
