REMARK  Name = ZINCkj00000y7Act.0
REMARK                            x       y       z     vdW  Elec       q    Type
REMARK                         _______ _______ _______ _____ _____    ______ ____
ROOT
ATOM      1  N   LIG    1        0.031   0.922   0.171  0.00  0.00    -0.710 N 
ATOM      2  H   LIG    1        0.048  -0.016  -0.075  0.00  0.00    +0.420 HD
ATOM      3  C   LIG    1       -1.142   1.583   0.228  0.00  0.00    +0.570 C 
ATOM      4  O   LIG    1       -1.163   2.760   0.537  0.00  0.00    -0.530 OA
ENDROOT
BRANCH   1  11
ATOM      5  C   LIG    1        2.471   0.911  -0.203  0.00  0.00    +0.170 C 
ATOM      6  C   LIG    1        3.389   0.474   0.961  0.00  0.00    +0.260 C 
ATOM      7  N   LIG    1        3.055   1.404   2.071  0.00  0.00    -0.510 N 
ATOM      8  C   LIG    1        1.580   1.558   1.986  0.00  0.00    +0.270 C 
ATOM      9  H   LIG    1        3.318   1.005   2.959  0.00  0.00    +0.440 HD
ATOM     10  H   LIG    1        3.511   2.294   1.934  0.00  0.00    +0.440 HD
ATOM     11  C   LIG    1        1.282   1.623   0.473  0.00  0.00    +0.260 C 
BRANCH   5  13
ATOM     12  C   LIG    1        2.816  -0.545  -2.076  0.00  0.00    +0.240 C 
ATOM     13  O   LIG    1        2.017  -0.230  -0.934  0.00  0.00    -0.360 OA
ENDBRANCH   5  13
ENDBRANCH   1  11
BRANCH   3  14
ATOM     14  C   LIG    1       -2.391   0.884  -0.080  0.00  0.00    -0.200 C 
ATOM     15  C   LIG    1       -3.566   1.546  -0.022  0.00  0.00    +0.140 C 
ATOM     16  C   LIG    1       -2.365  -0.573  -0.462  0.00  0.00    +0.090 C 
BRANCH  15  17
ATOM     17  C   LIG    1       -4.831   0.811  -0.169  0.00  0.00    -0.100 A 
ATOM     18  C   LIG    1       -5.885   1.365  -0.903  0.00  0.00    +0.080 A 
ATOM     19  C   LIG    1       -7.066   0.670  -1.041  0.00  0.00    -0.010 A 
ATOM     20  C   LIG    1       -7.216  -0.573  -0.444  0.00  0.00    +0.120 A 
ATOM     21  C   LIG    1       -6.177  -1.127   0.290  0.00  0.00    -0.020 A 
ATOM     22  F   LIG    1       -8.379  -1.248  -0.578  0.00  0.00    -0.130 F 
ATOM     23  C   LIG    1       -4.989  -0.444   0.431  0.00  0.00    +0.070 A 
ENDBRANCH  15  17
ENDBRANCH   3  14
TORSDOF 4
