REMARK  Name = ZINCb70000001NVE.0
REMARK                            x       y       z     vdW  Elec       q    Type
REMARK                         _______ _______ _______ _____ _____    ______ ____
ROOT
ATOM      1  C   LIG    1       -1.214   3.626   0.028  0.00  0.00    -0.100 C 
ATOM      2  C   LIG    1       -2.665   4.117   0.037  0.00  0.00    +0.080 C 
ATOM      3  C   LIG    1       -3.344   3.649   1.327  0.00  0.00    +0.070 C 
ATOM      4  C   LIG    1       -2.550   4.162   2.530  0.00  0.00    +0.260 C 
ATOM      5  N   LIG    1       -1.180   3.636   2.478  0.00  0.00    -0.510 N 
ATOM      6  H   LIG    1       -1.209   2.628   2.448  0.00  0.00    +0.420 HD
ATOM      7  H   LIG    1       -0.675   3.932   3.300  0.00  0.00    +0.430 HD
ATOM      8  C   LIG    1       -0.504   4.153  -1.221  0.00  0.00    +0.090 C 
ATOM      9  C   LIG    1       -0.499   4.139   1.279  0.00  0.00    +0.280 C 
ENDROOT
BRANCH   1  13
ATOM     10  C   LIG    1        0.002  -0.004   0.002  0.00  0.00    +0.310 C 
ATOM     11  N   LIG    1       -0.018   1.461   0.010  0.00  0.00    -0.730 N 
ATOM     12  H   LIG    1        0.816   1.957   0.005  0.00  0.00    +0.400 HD
ATOM     13  C   LIG    1       -1.194   2.119   0.019  0.00  0.00    +0.490 C 
ATOM     14  O   LIG    1       -2.236   1.498   0.021  0.00  0.00    -0.510 OA
ENDBRANCH   1  13
TORSDOF 1
