REMARK  Name = ZINCpk00000ebtbW.0
REMARK                            x       y       z     vdW  Elec       q    Type
REMARK                         _______ _______ _______ _____ _____    ______ ____
ROOT
ATOM      1  O   LIG    1        1.246   8.146  -0.360  0.00  0.00    -0.530 OA
ATOM      2  C   LIG    1        1.126   7.555  -1.413  0.00  0.00    +0.520 C 
ATOM      3  N   LIG    1        1.238   8.224  -2.578  0.00  0.00    -0.620 N 
ATOM      4  C   LIG    1        1.102   7.525  -3.865  0.00  0.00    +0.300 C 
ATOM      5  C   LIG    1        0.077   8.287  -4.720  0.00  0.00    +0.200 C 
ATOM      6  N   LIG    1        0.479   9.696  -4.818  0.00  0.00    -0.470 N 
ATOM      7  C   LIG    1        0.471  10.346  -3.501  0.00  0.00    +0.210 C 
ATOM      8  C   LIG    1        1.507   9.670  -2.595  0.00  0.00    +0.290 C 
ENDROOT
BRANCH   6   9
ATOM      9  C   LIG    1       -0.328  10.383  -5.717  0.00  0.00    +0.260 A 
ATOM     10  C   LIG    1       -0.458   9.929  -7.028  0.00  0.00    +0.210 A 
ATOM     11  N   LIG    1       -1.225  10.585  -7.878  0.00  0.00    -0.420 NA
ATOM     12  C   LIG    1       -1.871  11.671  -7.487  0.00  0.00    +0.190 A 
ATOM     13  C   LIG    1       -1.745  12.124  -6.187  0.00  0.00    +0.250 A 
ATOM     14  N   LIG    1       -0.981  11.471  -5.328  0.00  0.00    -0.480 NA
ENDBRANCH   6   9
BRANCH   2  15
ATOM     15  C   LIG    1        0.851   6.073  -1.418  0.00  0.00    +0.060 C 
BRANCH  15  16
ATOM     16  C   LIG    1        0.771   5.565   0.023  0.00  0.00    +0.110 C 
BRANCH  16  17
ATOM     17  C   LIG    1        0.496   4.083   0.018  0.00  0.00    -0.070 A 
ATOM     18  C   LIG    1       -0.808   3.624   0.028  0.00  0.00    +0.040 A 
ATOM     19  C   LIG    1       -1.065   2.265   0.019  0.00  0.00    +0.040 A 
ATOM     20  C   LIG    1       -0.016   1.361   0.009  0.00  0.00    +0.030 A 
ATOM     21  O   LIG    1        0.002  -0.004   0.002  0.00  0.00    -0.310 OA
ATOM     22  C   LIG    1        1.336  -0.373   0.399  0.00  0.00    +0.430 C 
ATOM     23  O   LIG    1        2.139   0.749  -0.014  0.00  0.00    -0.310 OA
ATOM     24  C   LIG    1        1.297   1.824  -0.001  0.00  0.00    +0.030 A 
ATOM     25  C   LIG    1        1.548   3.186   0.004  0.00  0.00    +0.040 A 
ENDBRANCH  16  17
ENDBRANCH  15  16
ENDBRANCH   2  15
TORSDOF 4
