REMARK  Name = ZINCqH0000001n0r.0
REMARK                            x       y       z     vdW  Elec       q    Type
REMARK                         _______ _______ _______ _____ _____    ______ ____
ROOT
ATOM      1  N   LIG    1       -2.894   4.413   4.601  0.00  0.00    -0.720 N 
ATOM      2  H   LIG    1       -2.297   4.974   4.082  0.00  0.00    +0.400 HD
ATOM      3  C   LIG    1       -3.941   4.961   5.249  0.00  0.00    +0.560 C 
ATOM      4  O   LIG    1       -4.689   4.257   5.900  0.00  0.00    -0.530 OA
ENDROOT
BRANCH   3   5
ATOM      5  C   LIG    1       -4.179   6.415   5.170  0.00  0.00    -0.150 A 
ATOM      6  C   LIG    1       -3.316   7.226   4.427  0.00  0.00    +0.070 A 
ATOM      7  C   LIG    1       -3.544   8.581   4.351  0.00  0.00    +0.010 A 
ATOM      8  C   LIG    1       -4.626   9.145   5.021  0.00  0.00    +0.170 A 
ATOM      9  C   LIG    1       -5.483   8.341   5.766  0.00  0.00    +0.000 A 
ATOM     10  C   LIG    1       -5.264   6.984   5.842  0.00  0.00    +0.100 A 
BRANCH   8  11
ATOM     11  N   LIG    1       -4.849  10.516   4.947  0.00  0.00    -1.060 N 
ATOM     12  H   LIG    1       -5.742  10.852   4.772  0.00  0.00    +0.430 HD
BRANCH  11  13
ATOM     13  S   LIG    1       -3.592  11.573   5.158  0.00  0.00    +2.610 S 
ATOM     14  O   LIG    1       -4.197  12.856   5.082  0.00  0.00    -0.950 OA
ATOM     15  O   LIG    1       -2.625  11.161   4.202  0.00  0.00    -0.950 OA
ATOM     16  C   LIG    1       -3.003  11.245   6.842  0.00  0.00    -0.270 C 
ENDBRANCH  11  13
ENDBRANCH   8  11
ENDBRANCH   3   5
BRANCH   1  17
ATOM     17  C   LIG    1       -2.658   2.969   4.679  0.00  0.00    +0.280 C 
ATOM     18  C   LIG    1       -1.853   2.652   5.942  0.00  0.00    +0.040 C 
BRANCH  17  22
ATOM     19  C   LIG    1       -0.470   1.695   1.239  0.00  0.00    -0.070 A 
ATOM     20  C   LIG    1       -0.150   2.889   1.858  0.00  0.00    +0.010 A 
ATOM     21  C   LIG    1       -0.861   3.304   2.969  0.00  0.00    +0.010 A 
ATOM     22  C   LIG    1       -1.885   2.520   3.466  0.00  0.00    -0.100 A 
ATOM     23  C   LIG    1       -2.201   1.323   2.850  0.00  0.00    +0.020 A 
ATOM     24  C   LIG    1       -1.494   0.911   1.736  0.00  0.00    +0.010 A 
BRANCH  19  25
ATOM     25  C   LIG    1        0.302   1.246   0.025  0.00  0.00    +0.060 C 
BRANCH  25  27
ATOM     26  C   LIG    1        0.474   1.430  -2.461  0.00  0.00    +0.020 C 
ATOM     27  C   LIG    1       -0.376   1.780  -1.238  0.00  0.00    -0.020 C 
ATOM     28  C   LIG    1       -1.761   1.145  -1.381  0.00  0.00    +0.010 C 
ENDBRANCH  25  27
ENDBRANCH  19  25
ENDBRANCH  17  22
ENDBRANCH   1  17
TORSDOF 7
