REMARK  Name = ZINCtV00000tRP5U.0
REMARK                            x       y       z     vdW  Elec       q    Type
REMARK                         _______ _______ _______ _____ _____    ______ ____
ROOT
ATOM      1  C   LIG    1        6.161   2.744  -1.443  0.00  0.00    +0.050 C 
ATOM      2  C   LIG    1        6.056   1.762  -0.274  0.00  0.00    +0.190 C 
ATOM      3  C   LIG    1        7.077   0.619  -0.452  0.00  0.00    +0.040 C 
ATOM      4  C   LIG    1        6.226  -0.508  -1.094  0.00  0.00    +0.040 C 
ATOM      5  C   LIG    1        4.861  -0.308  -0.389  0.00  0.00    +0.240 C 
ATOM      6  N   LIG    1        4.718   1.153  -0.251  0.00  0.00    -0.620 N 
ATOM      7  C   LIG    1        3.553   1.820  -0.131  0.00  0.00    +0.730 C 
ATOM      8  N   LIG    1        2.394   1.140  -0.027  0.00  0.00    -0.680 N 
ATOM      9  H   LIG    1        2.404   0.171   0.024  0.00  0.00    +0.410 HD
ATOM     10  O   LIG    1        3.547   3.036  -0.115  0.00  0.00    -0.560 OA
ENDROOT
BRANCH   8  11
ATOM     11  C   LIG    1        1.177   1.831   0.007  0.00  0.00    +0.170 A 
ATOM     12  C   LIG    1        1.095   3.064   0.640  0.00  0.00    +0.070 A 
ATOM     13  C   LIG    1       -0.107   3.745   0.673  0.00  0.00    +0.030 A 
ATOM     14  C   LIG    1       -1.229   3.199   0.075  0.00  0.00    +0.090 A 
ATOM     15  C   LIG    1       -1.149   1.971  -0.563  0.00  0.00    -0.060 A 
ATOM     16 CL   LIG    1       -2.557   1.292  -1.318  0.00  0.00    -0.040 Cl
ATOM     17  F   LIG    1       -2.403   3.867   0.107  0.00  0.00    -0.130 F 
ATOM     18  C   LIG    1        0.050   1.285  -0.593  0.00  0.00    +0.040 A 
ENDBRANCH   8  11
BRANCH   2  19
ATOM     19  C   LIG    1        6.318   2.490   1.046  0.00  0.00    +0.080 C 
BRANCH  19  20
ATOM     20  C   LIG    1        7.731   3.016   1.057  0.00  0.00    -0.090 A 
ATOM     21  C   LIG    1        8.767   2.200   1.472  0.00  0.00    +0.050 A 
ATOM     22  C   LIG    1       10.064   2.677   1.478  0.00  0.00    -0.060 A 
ATOM     23  C   LIG    1       10.324   3.980   1.078  0.00  0.00    +0.100 A 
ATOM     24  C   LIG    1        9.281   4.798   0.668  0.00  0.00    +0.020 A 
ATOM     25  C   LIG    1        7.987   4.314   0.658  0.00  0.00    +0.070 A 
BRANCH  23  26
ATOM     26  O   LIG    1       11.598   4.454   1.088  0.00  0.00    -0.310 OA
BRANCH  26  27
ATOM     27  C   LIG    1       12.620   3.555   1.523  0.00  0.00    +0.600 C 
ATOM     28  F   LIG    1       12.359   3.152   2.837  0.00  0.00    -0.160 F 
ATOM     29  F   LIG    1       13.861   4.200   1.471  0.00  0.00    -0.130 F 
ATOM     30  F   LIG    1       12.643   2.434   0.686  0.00  0.00    -0.160 F 
ENDBRANCH  26  27
ENDBRANCH  23  26
ENDBRANCH  19  20
ENDBRANCH   2  19
TORSDOF 5
