REMARK  Name = ZINCpk00001AZj8B.0
REMARK                            x       y       z     vdW  Elec       q    Type
REMARK                         _______ _______ _______ _____ _____    ______ ____
ROOT
ATOM      1  C   LIG    1        3.426   0.536  -0.034  0.00  0.00    +0.020 C 
ATOM      2  C   LIG    1        4.050  -0.662   0.061  0.00  0.00    +0.240 C 
ENDROOT
BRANCH   2   3
ATOM      3  C   LIG    1        3.263  -1.903   0.063  0.00  0.00    -0.120 A 
ATOM      4  C   LIG    1        1.932  -1.891   0.496  0.00  0.00    +0.070 A 
ATOM      5  C   LIG    1        1.198  -3.057   0.489  0.00  0.00    -0.010 A 
ATOM      6  C   LIG    1        1.778  -4.243   0.065  0.00  0.00    +0.130 A 
ATOM      7  C   LIG    1        3.098  -4.263  -0.360  0.00  0.00    -0.010 A 
ATOM      8  F   LIG    1        1.054  -5.384   0.067  0.00  0.00    -0.130 F 
ATOM      9  C   LIG    1        3.842  -3.104  -0.363  0.00  0.00    +0.110 A 
ENDBRANCH   2   3
BRANCH   1  10
ATOM     10  N   LIG    1        2.046   0.590  -0.274  0.00  0.00    -0.240 N 
ATOM     11  C   LIG    1        1.120   1.192   0.521  0.00  0.00    +0.160 A 
ATOM     12  C   LIG    1       -0.076   1.003  -0.086  0.00  0.00    -0.020 A 
ATOM     13  N   LIG    1        0.171   0.308  -1.202  0.00  0.00    -0.250 NA
ATOM     14  N   LIG    1        1.433   0.079  -1.284  0.00  0.00    -0.060 NA
BRANCH  12  15
ATOM     15  C   LIG    1       -1.419   1.487   0.397  0.00  0.00    +0.150 C 
BRANCH  15  16
ATOM     16  C   LIG    1       -2.085   2.321  -0.700  0.00  0.00    +0.340 C 
BRANCH  16  17
ATOM     17  N   LIG    1       -3.391   2.791  -0.230  0.00  0.00    -0.380 N 
ATOM     18  C   LIG    1       -3.819   4.064  -0.182  0.00  0.00    +0.470 A 
ATOM     19  N   LIG    1       -5.037   4.065   0.294  0.00  0.00    -0.550 NA
ATOM     20  C   LIG    1       -5.416   2.817   0.569  0.00  0.00    +0.420 A 
ATOM     21  N   LIG    1       -4.441   2.001   0.265  0.00  0.00    -0.320 NA
ENDBRANCH  16  17
ENDBRANCH  15  16
ENDBRANCH  12  15
ENDBRANCH   1  10
BRANCH   1  22
ATOM     22  C   LIG    1        4.194   1.777   0.113  0.00  0.00    +0.520 C 
ATOM     23  O   LIG    1        5.391   1.730   0.321  0.00  0.00    -0.490 OA
BRANCH  22  25
ATOM     24  C   LIG    1        4.394   4.157   0.175  0.00  0.00    +0.290 C 
ATOM     25  O   LIG    1        3.572   2.970   0.018  0.00  0.00    -0.350 OA
ENDBRANCH  22  25
ENDBRANCH   1  22
TORSDOF 7
