REMARK  Name = ZINCvU00000008GP.0
REMARK                            x       y       z     vdW  Elec       q    Type
REMARK                         _______ _______ _______ _____ _____    ______ ____
ROOT
ATOM      1  N   LIG    1        4.229  -0.429  -0.040  0.00  0.00    -0.720 N 
ATOM      2  H   LIG    1        3.747  -1.271  -0.040  0.00  0.00    +0.400 HD
ATOM      3  C   LIG    1        3.551   0.736  -0.028  0.00  0.00    +0.590 C 
ATOM      4  O   LIG    1        4.155   1.791  -0.028  0.00  0.00    -0.500 OA
ENDROOT
BRANCH   3   5
ATOM      5  C   LIG    1        2.077   0.730  -0.014  0.00  0.00    -0.220 A 
ATOM      6  C   LIG    1        1.253   1.838   0.000  0.00  0.00    +0.050 A 
ATOM      7  N   LIG    1       -0.017   1.395   0.010  0.00  0.00    -0.280 N 
ATOM      8  N   LIG    1        0.002  -0.004   0.002  0.00  0.00    -0.240 NA
ATOM      9  C   LIG    1        1.242  -0.410  -0.012  0.00  0.00    +0.300 A 
BRANCH   7  10
ATOM     10  C   LIG    1       -1.165   2.199   0.020  0.00  0.00    +0.150 A 
ATOM     11  C   LIG    1       -2.303   1.795  -0.666  0.00  0.00    +0.050 A 
ATOM     12  C   LIG    1       -3.434   2.588  -0.654  0.00  0.00    +0.080 A 
ATOM     13  C   LIG    1       -3.435   3.784   0.038  0.00  0.00    +0.010 A 
ATOM     14  C   LIG    1       -2.302   4.191   0.724  0.00  0.00    +0.130 A 
ATOM     15  F   LIG    1       -2.305   5.360   1.401  0.00  0.00    -0.120 F 
ATOM     16  C   LIG    1       -1.168   3.398   0.720  0.00  0.00    -0.020 A 
ENDBRANCH   7  10
BRANCH   6  17
ATOM     17  C   LIG    1        1.696   3.279   0.003  0.00  0.00    +0.530 C 
ATOM     18  F   LIG    1        0.735   4.063  -0.643  0.00  0.00    -0.170 F 
ATOM     19  F   LIG    1        2.918   3.393  -0.667  0.00  0.00    -0.120 F 
ATOM     20  F   LIG    1        1.845   3.718   1.323  0.00  0.00    -0.160 F 
ENDBRANCH   6  17
ENDBRANCH   3   5
BRANCH   1  21
ATOM     21  C   LIG    1        5.694  -0.424  -0.054  0.00  0.00    +0.360 C 
BRANCH  21  22
ATOM     22  C   LIG    1        6.195  -1.707  -0.666  0.00  0.00    +0.040 A 
ATOM     23  N   LIG    1        7.135  -1.788  -1.546  0.00  0.00    -0.430 NA
ATOM     24  C   LIG    1        7.454  -2.992  -1.975  0.00  0.00    -0.020 A 
ATOM     25  C   LIG    1        6.738  -3.981  -1.434  0.00  0.00    +0.000 A 
ATOM     26  S   LIG    1        5.595  -3.265  -0.299  0.00  0.00    +0.200 S 
BRANCH  24  27
ATOM     27  C   LIG    1        8.536  -3.233  -2.997  0.00  0.00    +0.550 C 
ATOM     28  F   LIG    1        9.774  -2.863  -2.462  0.00  0.00    -0.160 F 
ATOM     29  F   LIG    1        8.275  -2.470  -4.140  0.00  0.00    -0.160 F 
ATOM     30  F   LIG    1        8.561  -4.590  -3.337  0.00  0.00    -0.170 F 
ENDBRANCH  24  27
ENDBRANCH  21  22
BRANCH  21  32
ATOM     31  C   LIG    1        5.813   1.054   1.957  0.00  0.00    +0.040 C 
ATOM     32  C   LIG    1        6.217  -0.303   1.379  0.00  0.00    +0.020 C 
ENDBRANCH  21  32
ENDBRANCH   1  21
TORSDOF 7
