REMARK  Name = ZINCrH000004jHto.0
REMARK                            x       y       z     vdW  Elec       q    Type
REMARK                         _______ _______ _______ _____ _____    ______ ____
ROOT
ATOM      1  N   LIG    1       -3.532   2.096   0.438  0.00  0.00    -0.710 N 
ATOM      2  H   LIG    1       -3.589   2.997   0.083  0.00  0.00    +0.410 HD
ATOM      3  C   LIG    1       -2.353   1.623   0.889  0.00  0.00    +0.570 C 
ATOM      4  O   LIG    1       -2.281   0.494   1.333  0.00  0.00    -0.540 OA
ENDROOT
BRANCH   3   5
ATOM      5  C   LIG    1       -1.149   2.476   0.842  0.00  0.00    -0.220 A 
ATOM      6  C   LIG    1        0.083   1.995   1.308  0.00  0.00    +0.180 A 
ATOM      7  C   LIG    1        1.181   2.828   1.240  0.00  0.00    -0.040 A 
ATOM      8  C   LIG    1        1.030   4.110   0.719  0.00  0.00    +0.340 A 
ATOM      9  N   LIG    1       -0.148   4.537   0.292  0.00  0.00    -0.540 NA
ATOM     10  C   LIG    1       -1.221   3.776   0.339  0.00  0.00    +0.350 A 
BRANCH   8  11
ATOM     11  O   LIG    1        2.105   4.933   0.649  0.00  0.00    -0.290 OA
BRANCH  11  12
ATOM     12  C   LIG    1        1.889   6.236   0.105  0.00  0.00    +0.270 C 
BRANCH  12  13
ATOM     13  C   LIG    1        3.207   7.014   0.107  0.00  0.00    +0.460 C 
ATOM     14  F   LIG    1        3.679   7.128   1.419  0.00  0.00    -0.170 F 
ATOM     15  F   LIG    1        2.996   8.290  -0.425  0.00  0.00    -0.170 F 
ATOM     16  F   LIG    1        4.150   6.335  -0.671  0.00  0.00    -0.170 F 
ENDBRANCH  12  13
ENDBRANCH  11  12
ENDBRANCH   8  11
ENDBRANCH   3   5
BRANCH   1  17
ATOM     17  C   LIG    1       -4.726   1.249   0.484  0.00  0.00    +0.290 C 
BRANCH  17  18
ATOM     18  C   LIG    1       -5.920   2.020  -0.083  0.00  0.00    +0.210 C 
BRANCH  18  19
ATOM     19  C   LIG    1       -7.172   1.196   0.077  0.00  0.00    -0.110 A 
ATOM     20  C   LIG    1       -7.270   0.281   1.108  0.00  0.00    +0.040 A 
ATOM     21  C   LIG    1       -8.420  -0.471   1.257  0.00  0.00    +0.020 A 
ATOM     22  C   LIG    1       -9.468  -0.316   0.369  0.00  0.00    +0.030 A 
ATOM     23  C   LIG    1       -9.369   0.595  -0.665  0.00  0.00    +0.030 A 
ATOM     24  C   LIG    1       -8.221   1.352  -0.812  0.00  0.00    -0.030 A 
ATOM     25 CL   LIG    1       -8.095   2.496  -2.112  0.00  0.00    -0.060 Cl
ENDBRANCH  18  19
BRANCH  18  27
ATOM     26  C   LIG    1       -7.054   4.158  -0.020  0.00  0.00    +0.200 C 
ATOM     27  N   LIG    1       -6.073   3.289   0.642  0.00  0.00    -0.530 NA
ATOM     28  C   LIG    1       -6.440   3.052   2.045  0.00  0.00    +0.180 C 
ENDBRANCH  18  27
ENDBRANCH  17  18
ENDBRANCH   1  17
TORSDOF 8
