REMARK  Name = ZINCvU0000000Hcz.0
REMARK                            x       y       z     vdW  Elec       q    Type
REMARK                         _______ _______ _______ _____ _____    ______ ____
ROOT
ATOM      1  O   LIG    1        0.923   2.615  -3.637  0.00  0.00    -0.470 OA
ATOM      2  C   LIG    1        1.184   2.108  -2.563  0.00  0.00    +0.580 C 
ATOM      3  N   LIG    1        1.012   0.784  -2.383  0.00  0.00    -0.640 N 
ENDROOT
BRANCH   3   4
ATOM      4  C   LIG    1        0.314   0.290  -1.193  0.00  0.00    +0.290 C 
ATOM      5  C   LIG    1        1.222   0.445   0.040  0.00  0.00    +0.060 C 
ATOM      6  C   LIG    1        0.323   0.225   1.284  0.00  0.00    -0.280 C 
ATOM      7  S   LIG    1       -1.196   1.155   0.847  0.00  0.00    +2.380 S 
ATOM      8  O   LIG    1       -2.339   0.388   1.198  0.00  0.00    -0.930 OA
ATOM      9  O   LIG    1       -1.075   2.495   1.305  0.00  0.00    -0.920 OA
ATOM     10  C   LIG    1       -0.970   1.112  -0.968  0.00  0.00    -0.340 C 
ENDBRANCH   3   4
BRANCH   2  11
ATOM     11  C   LIG    1        1.689   2.946  -1.454  0.00  0.00    -0.140 A 
ATOM     12  C   LIG    1        1.025   2.959  -0.227  0.00  0.00    +0.020 A 
ATOM     13  C   LIG    1        1.504   3.739   0.805  0.00  0.00    +0.060 A 
ATOM     14  C   LIG    1        2.636   4.514   0.622  0.00  0.00    -0.060 A 
ATOM     15  C   LIG    1        3.297   4.509  -0.593  0.00  0.00    +0.040 A 
ATOM     16  C   LIG    1        2.830   3.730  -1.632  0.00  0.00    +0.070 A 
BRANCH  14  17
ATOM     17  C   LIG    1        3.150   5.369   1.752  0.00  0.00    +0.120 C 
BRANCH  17  18
ATOM     18  S   LIG    1        2.380   7.009   1.669  0.00  0.00    -0.080 S 
BRANCH  18  19
ATOM     19  C   LIG    1        3.091   7.851   3.043  0.00  0.00    -0.090 A 
ATOM     20  C   LIG    1        4.004   7.199   3.863  0.00  0.00    +0.010 A 
ATOM     21  C   LIG    1        4.563   7.862   4.938  0.00  0.00    +0.050 A 
ATOM     22  C   LIG    1        4.207   9.173   5.204  0.00  0.00    -0.040 A 
ATOM     23  C   LIG    1        3.295   9.824   4.392  0.00  0.00    +0.050 A 
ATOM     24 CL   LIG    1        4.907  10.002   6.559  0.00  0.00    -0.070 Cl
ATOM     25  C   LIG    1        2.737   9.167   3.313  0.00  0.00    +0.050 A 
ENDBRANCH  18  19
ENDBRANCH  17  18
ENDBRANCH  14  17
ENDBRANCH   2  11
BRANCH   3  26
ATOM     26  C   LIG    1        1.523  -0.163  -3.378  0.00  0.00    +0.420 C 
BRANCH  26  27
ATOM     27  C   LIG    1        0.462  -0.422  -4.417  0.00  0.00    -0.050 A 
ATOM     28  C   LIG    1        0.285   0.278  -5.552  0.00  0.00    -0.020 A 
ATOM     29  C   LIG    1       -0.813  -0.305  -6.225  0.00  0.00    -0.070 A 
ATOM     30  C   LIG    1       -1.247  -1.320  -5.457  0.00  0.00    +0.170 A 
ATOM     31  O   LIG    1       -0.471  -1.386  -4.363  0.00  0.00    -0.180 OA
ENDBRANCH  26  27
ENDBRANCH   3  26
TORSDOF 7
