REMARK  Name = ZINCvU00000007Ln.0
REMARK                            x       y       z     vdW  Elec       q    Type
REMARK                         _______ _______ _______ _____ _____    ______ ____
ROOT
ATOM      1  C   LIG    1       -1.470   6.397  -5.992  0.00  0.00    +0.250 A 
ATOM      2  N   LIG    1       -0.390   6.927  -5.466  0.00  0.00    -0.250 NA
ATOM      3  N   LIG    1       -0.322   6.639  -4.215  0.00  0.00    -0.280 NA
ATOM      4  C   LIG    1       -1.355   5.907  -3.863  0.00  0.00    +0.150 A 
ATOM      5  N   LIG    1       -2.120   5.722  -4.982  0.00  0.00    -0.420 N 
ENDROOT
BRANCH   5   6
ATOM      6  C   LIG    1       -3.317   4.998  -5.081  0.00  0.00    +0.110 A 
ATOM      7  C   LIG    1       -3.367   3.835  -5.837  0.00  0.00    +0.060 A 
ATOM      8  C   LIG    1       -4.546   3.122  -5.928  0.00  0.00    +0.060 A 
ATOM      9  C   LIG    1       -5.680   3.571  -5.276  0.00  0.00    -0.020 A 
ATOM     10  C   LIG    1       -5.635   4.733  -4.526  0.00  0.00    +0.060 A 
ATOM     11 CL   LIG    1       -7.163   2.676  -5.398  0.00  0.00    -0.050 Cl
ATOM     12  C   LIG    1       -4.457   5.447  -4.427  0.00  0.00    +0.050 A 
ENDBRANCH   5   6
BRANCH   1  18
ATOM     13  C   LIG    1       -0.988   6.269  -8.436  0.00  0.00    +0.170 A 
ATOM     14  C   LIG    1       -1.404   6.368  -9.754  0.00  0.00    -0.070 A 
ATOM     15  C   LIG    1       -2.716   6.695 -10.044  0.00  0.00    +0.070 A 
ATOM     16  C   LIG    1       -3.622   6.924  -9.024  0.00  0.00    -0.030 A 
ATOM     17  C   LIG    1       -3.225   6.824  -7.706  0.00  0.00    +0.080 A 
ATOM     18  C   LIG    1       -1.902   6.501  -7.400  0.00  0.00    -0.060 A 
BRANCH  13  20
ATOM     19  C   LIG    1        1.175   5.727  -9.258  0.00  0.00    +0.240 C 
ATOM     20  O   LIG    1        0.300   5.949  -8.150  0.00  0.00    -0.300 OA
ENDBRANCH  13  20
ENDBRANCH   1  18
BRANCH   4  21
ATOM     21  S   LIG    1       -1.688   5.276  -2.252  0.00  0.00    +0.070 S 
BRANCH  21  22
ATOM     22  C   LIG    1       -0.256   5.927  -1.357  0.00  0.00    +0.170 C 
BRANCH  22  23
ATOM     23  C   LIG    1       -0.320   7.397  -1.332  0.00  0.00    +0.200 C 
ATOM     24  N   LIG    1       -0.369   8.532  -1.313  0.00  0.00    -0.390 NA
ENDBRANCH  22  23
BRANCH  22  25
ATOM     25  C   LIG    1       -0.264   5.392   0.076  0.00  0.00    +0.150 C 
BRANCH  25  26
ATOM     26  C   LIG    1       -0.076   3.897   0.056  0.00  0.00    -0.100 A 
ATOM     27  C   LIG    1        1.197   3.360   0.109  0.00  0.00    +0.020 A 
ATOM     28  C   LIG    1        1.370   1.988   0.089  0.00  0.00    +0.000 A 
ATOM     29  C   LIG    1        0.270   1.154   0.018  0.00  0.00    +0.010 A 
ATOM     30  C   LIG    1       -1.002   1.691  -0.040  0.00  0.00    +0.000 A 
ATOM     31  C   LIG    1       -1.175   3.062  -0.017  0.00  0.00    +0.020 A 
ENDBRANCH  25  26
ENDBRANCH  22  25
ENDBRANCH  21  22
ENDBRANCH   4  21
TORSDOF 8
