REMARK  Name = ZINCrH000004sOCh.0
REMARK                            x       y       z     vdW  Elec       q    Type
REMARK                         _______ _______ _______ _____ _____    ______ ____
ROOT
ATOM      1  N   LIG    1        3.312   9.605   1.205  0.00  0.00    -0.740 N 
ATOM      2  H   LIG    1        2.885  10.021   0.440  0.00  0.00    +0.400 HD
ATOM      3  C   LIG    1        3.542   8.277   1.209  0.00  0.00    +0.710 C 
ATOM      4  N   LIG    1        3.178   7.527   0.151  0.00  0.00    -0.630 N 
ATOM      5  C   LIG    1        2.533   8.155  -1.005  0.00  0.00    +0.280 C 
ATOM      6  O   LIG    1        4.077   7.756   2.169  0.00  0.00    -0.580 OA
ENDROOT
BRANCH   4   7
ATOM      7  C   LIG    1        3.428   6.083   0.156  0.00  0.00    +0.270 C 
ATOM      8  C   LIG    1        4.340   5.718  -1.020  0.00  0.00    +0.000 C 
ATOM      9  C   LIG    1        4.547   4.202  -1.042  0.00  0.00    +0.040 C 
ATOM     10  C   LIG    1        3.187   3.507  -1.146  0.00  0.00    +0.190 C 
ATOM     11  N   LIG    1        2.353   3.888   0.001  0.00  0.00    -0.490 N 
ATOM     12  C   LIG    1        2.101   5.334   0.017  0.00  0.00    +0.190 C 
BRANCH  11  13
ATOM     13  C   LIG    1        1.155   3.171   0.008  0.00  0.00    +0.110 A 
ATOM     14  C   LIG    1        1.174   1.782   0.000  0.00  0.00    -0.010 A 
ATOM     15  C   LIG    1       -0.013   1.076   0.008  0.00  0.00    +0.030 A 
ATOM     16  C   LIG    1       -1.220   1.750   0.017  0.00  0.00    -0.030 A 
ATOM     17  C   LIG    1       -1.243   3.133   0.031  0.00  0.00    +0.030 A 
ATOM     18  C   LIG    1       -0.060   3.845   0.023  0.00  0.00    -0.050 A 
ENDBRANCH  11  13
ENDBRANCH   4   7
BRANCH   1  19
ATOM     19  C   LIG    1        3.707  10.421   2.356  0.00  0.00    +0.280 C 
BRANCH  19  20
ATOM     20  C   LIG    1        3.335  11.883   2.096  0.00  0.00    +0.070 C 
ATOM     21  C   LIG    1        4.156  12.417   0.921  0.00  0.00    +0.030 C 
BRANCH  20  28
ATOM     22  C   LIG    1        6.196  12.284   3.575  0.00  0.00    +0.160 C 
ATOM     23  C   LIG    1        4.871  12.881   3.977  0.00  0.00    +0.030 A 
ATOM     24  N   LIG    1        4.646  13.667   4.990  0.00  0.00    -0.360 NA
ATOM     25  O   LIG    1        3.480  13.980   5.060  0.00  0.00    +0.100 OA
ATOM     26  C   LIG    1        2.762  13.431   4.070  0.00  0.00    -0.020 A 
ATOM     27  C   LIG    1        1.283  13.593   3.830  0.00  0.00    +0.190 C 
ATOM     28  C   LIG    1        3.629  12.701   3.327  0.00  0.00    -0.200 A 
ENDBRANCH  20  28
ENDBRANCH  19  20
ENDBRANCH   1  19
TORSDOF 5
