REMARK  Name = ZINCtV000002zWZv.0
REMARK                            x       y       z     vdW  Elec       q    Type
REMARK                         _______ _______ _______ _____ _____    ______ ____
ROOT
ATOM      1  C   LIG    1       -0.875   2.121   0.076  0.00  0.00    +0.610 C 
ATOM      2  N   LIG    1        0.170   1.272   0.020  0.00  0.00    -0.650 N 
ATOM      3  H   LIG    1        0.015   0.315  -0.024  0.00  0.00    +0.420 HD
ATOM      4  O   LIG    1       -0.687   3.322   0.020  0.00  0.00    -0.480 OA
ENDROOT
BRANCH   1   6
ATOM      5  C   LIG    1       -3.367   2.355   0.273  0.00  0.00    -0.070 A 
ATOM      6  C   LIG    1       -2.242   1.597   0.206  0.00  0.00    -0.020 A 
ATOM      7  O   LIG    1       -2.569   0.289   0.272  0.00  0.00    -0.180 OA
ATOM      8  C   LIG    1       -3.902   0.133   0.392  0.00  0.00    +0.080 A 
ATOM      9  C   LIG    1       -4.724  -0.982   0.497  0.00  0.00    +0.030 A 
ATOM     10  C   LIG    1       -6.089  -0.821   0.603  0.00  0.00    +0.060 A 
ATOM     11  C   LIG    1       -6.655   0.446   0.606  0.00  0.00    +0.010 A 
ATOM     12  C   LIG    1       -5.867   1.557   0.504  0.00  0.00    +0.080 A 
ATOM     13  C   LIG    1       -4.481   1.416   0.396  0.00  0.00    -0.130 A 
BRANCH   5  14
ATOM     14  C   LIG    1       -3.450   3.859   0.228  0.00  0.00    +0.260 C 
BRANCH  14  16
ATOM     15  C   LIG    1       -3.673   5.706  -1.283  0.00  0.00    +0.210 C 
ATOM     16  O   LIG    1       -3.586   4.288  -1.128  0.00  0.00    -0.380 OA
ENDBRANCH  14  16
ENDBRANCH   5  14
ENDBRANCH   1   6
BRANCH   2  17
ATOM     17  C   LIG    1        1.478   1.771   0.017  0.00  0.00    +0.150 A 
ATOM     18  C   LIG    1        1.749   3.014   0.569  0.00  0.00    +0.030 A 
ATOM     19  C   LIG    1        3.041   3.505   0.566  0.00  0.00    +0.050 A 
ATOM     20  C   LIG    1        4.066   2.759   0.013  0.00  0.00    +0.020 A 
ATOM     21  C   LIG    1        3.804   1.519  -0.539  0.00  0.00    +0.040 A 
ATOM     22  C   LIG    1        2.513   1.017  -0.534  0.00  0.00    +0.050 A 
BRANCH  22  23
ATOM     23  O   LIG    1        2.254  -0.205  -1.071  0.00  0.00    -0.240 OA
BRANCH  23  24
ATOM     24  C   LIG    1        1.905  -0.265  -2.383  0.00  0.00    +0.120 A 
ATOM     25  C   LIG    1        1.720   0.904  -3.106  0.00  0.00    -0.040 A 
ATOM     26  C   LIG    1        1.365   0.841  -4.440  0.00  0.00    +0.050 A 
ATOM     27  C   LIG    1        1.194  -0.385  -5.055  0.00  0.00    +0.000 A 
ATOM     28  C   LIG    1        1.378  -1.553  -4.336  0.00  0.00    +0.060 A 
ATOM     29  C   LIG    1        1.740  -1.496  -3.004  0.00  0.00    -0.060 A 
ATOM     30 CL   LIG    1        1.978  -2.962  -2.104  0.00  0.00    -0.050 Cl
ENDBRANCH  23  24
ENDBRANCH  22  23
ENDBRANCH   2  17
TORSDOF 6
