REMARK  Name = ZINCrH00000No581.0
REMARK                            x       y       z     vdW  Elec       q    Type
REMARK                         _______ _______ _______ _____ _____    ______ ____
ROOT
ATOM      1  N   LIG    1       -2.418   1.451   0.021  0.00  0.00    -0.220 NA
ATOM      2  C   LIG    1       -1.302   2.114   0.020  0.00  0.00    +0.130 C 
ATOM      3  C   LIG    1       -1.321   3.621   0.028  0.00  0.00    +0.090 C 
ENDROOT
BRANCH   2   4
ATOM      4  C   LIG    1       -0.017   1.393   0.010  0.00  0.00    -0.020 A 
ATOM      5  C   LIG    1        0.002  -0.004   0.002  0.00  0.00    +0.060 A 
ATOM      6  C   LIG    1        1.205  -0.676  -0.013  0.00  0.00    +0.020 A 
ATOM      7  C   LIG    1        2.400   0.034  -0.021  0.00  0.00    +0.070 A 
ATOM      8  C   LIG    1        2.386   1.427  -0.014  0.00  0.00    +0.130 A 
ATOM      9  F   LIG    1        3.550   2.113  -0.022  0.00  0.00    -0.120 F 
ATOM     10  C   LIG    1        1.186   2.105   0.002  0.00  0.00    +0.020 A 
BRANCH   7  11
ATOM     11  N   LIG    1        3.617  -0.651  -0.037  0.00  0.00    -0.500 N 
ATOM     12  C   LIG    1        3.765  -1.434  -1.272  0.00  0.00    +0.160 C 
ATOM     13  C   LIG    1        5.135  -2.118  -1.275  0.00  0.00    +0.220 C 
ATOM     14  O   LIG    1        5.259  -2.928  -0.103  0.00  0.00    -0.380 OA
ATOM     15  C   LIG    1        5.121  -2.197   1.119  0.00  0.00    +0.220 C 
ATOM     16  C   LIG    1        3.752  -1.513   1.146  0.00  0.00    +0.160 C 
ENDBRANCH   7  11
ENDBRANCH   2   4
BRANCH   1  18
ATOM     17  C   LIG    1       -4.799   1.449   0.033  0.00  0.00    +0.610 C 
ATOM     18  N   LIG    1       -3.640   2.137   0.031  0.00  0.00    -0.580 N 
ATOM     19  H   LIG    1       -3.652   3.107   0.036  0.00  0.00    +0.390 HD
ATOM     20  O   LIG    1       -4.784   0.231   0.026  0.00  0.00    -0.490 OA
BRANCH  17  24
ATOM     21  C   LIG    1       -7.966   3.777   0.060  0.00  0.00    -0.180 A 
ATOM     22  C   LIG    1       -8.343   2.493   0.055  0.00  0.00    -0.120 A 
ATOM     23  C   LIG    1       -7.313   1.583   0.045  0.00  0.00    +0.130 A 
ATOM     24  C   LIG    1       -6.077   2.166   0.043  0.00  0.00    -0.280 A 
ATOM     25  C   LIG    1       -9.791   2.076   0.059  0.00  0.00    +0.110 C 
ATOM     26  S   LIG    1       -6.266   3.914   0.061  0.00  0.00    +0.190 S 
BRANCH  21  28
ATOM     27  C   LIG    1       -9.233   5.334   1.516  0.00  0.00    +0.040 C 
ATOM     28  C   LIG    1       -8.917   4.946   0.071  0.00  0.00    +0.110 C 
ENDBRANCH  21  28
ENDBRANCH  17  24
ENDBRANCH   1  18
TORSDOF 5
