REMARK  Name = ZINCvU0000000FlG.0
REMARK                            x       y       z     vdW  Elec       q    Type
REMARK                         _______ _______ _______ _____ _____    ______ ____
ROOT
ATOM      1  C   LIG    1       -1.174  -0.881   0.009  0.00  0.00    +0.610 C 
ATOM      2  N   LIG    1       -2.412  -0.348   0.024  0.00  0.00    -0.720 N 
ATOM      3  H   LIG    1       -2.525   0.615   0.029  0.00  0.00    +0.410 HD
ATOM      4  O   LIG    1       -1.032  -2.090   0.002  0.00  0.00    -0.510 OA
ENDROOT
BRANCH   1   8
ATOM      5  C   LIG    1        1.245   1.808  -0.000  0.00  0.00    +0.050 A 
ATOM      6  C   LIG    1        2.101   0.743  -0.014  0.00  0.00    -0.030 A 
ATOM      7  C   LIG    1        1.317  -0.415  -0.013  0.00  0.00    +0.060 A 
ATOM      8  C   LIG    1        0.002  -0.004   0.002  0.00  0.00    -0.070 A 
ATOM      9  O   LIG    1       -0.016   1.345   0.009  0.00  0.00    -0.150 OA
BRANCH   5  13
ATOM     10  C   LIG    1        2.380   5.894   0.012  0.00  0.00    -0.160 A 
ATOM     11  C   LIG    1        1.024   5.543   0.023  0.00  0.00    +0.080 A 
ATOM     12  C   LIG    1        0.660   4.227   0.019  0.00  0.00    +0.030 A 
ATOM     13  C   LIG    1        1.640   3.229   0.004  0.00  0.00    +0.010 A 
ATOM     14  C   LIG    1        2.994   3.579  -0.002  0.00  0.00    +0.030 A 
ATOM     15  C   LIG    1        3.361   4.894  -0.003  0.00  0.00    +0.070 A 
BRANCH  10  17
ATOM     16  C   LIG    1        4.232   7.687   0.004  0.00  0.00    +0.090 C 
ATOM     17  C   LIG    1        2.773   7.310   0.016  0.00  0.00    +0.390 C 
ATOM     18  O   LIG    1        1.923   8.175   0.029  0.00  0.00    -0.450 OA
ENDBRANCH  10  17
ENDBRANCH   5  13
ENDBRANCH   1   8
BRANCH   2  19
ATOM     19  C   LIG    1       -3.586  -1.224   0.030  0.00  0.00    +0.320 C 
BRANCH  19  20
ATOM     20  C   LIG    1       -4.838  -0.386   0.047  0.00  0.00    -0.100 A 
ATOM     21  C   LIG    1       -5.404  -0.012   1.251  0.00  0.00    +0.030 A 
ATOM     22  C   LIG    1       -6.550   0.761   1.266  0.00  0.00    +0.030 A 
ATOM     23  C   LIG    1       -7.135   1.152   0.077  0.00  0.00    -0.090 A 
ATOM     24  C   LIG    1       -6.573   0.774  -1.128  0.00  0.00    +0.030 A 
ATOM     25  C   LIG    1       -5.424   0.005  -1.143  0.00  0.00    +0.030 A 
BRANCH  23  26
ATOM     26  C   LIG    1       -8.387   1.991   0.093  0.00  0.00    +0.240 C 
BRANCH  26  27
ATOM     27  O   LIG    1       -9.533   1.137   0.100  0.00  0.00    -0.370 OA
BRANCH  27  28
ATOM     28  C   LIG    1      -10.779   1.835   0.115  0.00  0.00    +0.220 C 
BRANCH  28  29
ATOM     29  C   LIG    1      -11.930   0.827   0.121  0.00  0.00    +0.460 C 
ATOM     30  F   LIG    1      -11.857   0.029  -1.026  0.00  0.00    -0.180 F 
ATOM     31  F   LIG    1      -13.150   1.511   0.137  0.00  0.00    -0.180 F 
ATOM     32  F   LIG    1      -11.834   0.018   1.259  0.00  0.00    -0.170 F 
ENDBRANCH  28  29
ENDBRANCH  27  28
ENDBRANCH  26  27
ENDBRANCH  23  26
ENDBRANCH  19  20
ENDBRANCH   2  19
TORSDOF 9
