REMARK  Name = ZINCqH0000050fhn.0
REMARK                            x       y       z     vdW  Elec       q    Type
REMARK                         _______ _______ _______ _____ _____    ______ ____
ROOT
ATOM      1  N   LIG    1        2.406   1.041   0.011  0.00  0.00    -0.730 N 
ATOM      2  H   LIG    1        2.291   0.149  -0.351  0.00  0.00    +0.410 HD
ENDROOT
BRANCH   1   6
ATOM      3  C   LIG    1        7.098  -0.032   1.012  0.00  0.00    +0.090 C 
ATOM      4  C   LIG    1        5.939   0.932   1.021  0.00  0.00    -0.020 A 
ATOM      5  C   LIG    1        4.715   0.545   0.515  0.00  0.00    -0.050 A 
ATOM      6  C   LIG    1        3.647   1.433   0.524  0.00  0.00    +0.230 A 
ATOM      7  C   LIG    1        3.813   2.713   1.037  0.00  0.00    -0.070 A 
ATOM      8  C   LIG    1        5.037   3.099   1.547  0.00  0.00    +0.060 A 
ATOM      9  C   LIG    1        6.104   2.210   1.539  0.00  0.00    +0.080 A 
BRANCH   9  10
ATOM     10  N   LIG    1        7.348   2.603   2.052  0.00  0.00    -0.570 N 
ATOM     11  C   LIG    1        7.757   2.434   3.451  0.00  0.00    +0.250 C 
ATOM     12  C   LIG    1        8.967   3.375   3.643  0.00  0.00    +0.040 C 
ATOM     13  C   LIG    1        9.516   3.482   2.201  0.00  0.00    +0.050 C 
ATOM     14  C   LIG    1        8.321   3.179   1.325  0.00  0.00    +0.520 C 
ATOM     15  O   LIG    1        8.250   3.423   0.139  0.00  0.00    -0.520 OA
ENDBRANCH   9  10
ENDBRANCH   1   6
BRANCH   1  16
ATOM     16  C   LIG    1        1.280   1.979   0.020  0.00  0.00    +0.250 C 
ATOM     17  C   LIG    1        1.348   2.869  -1.222  0.00  0.00    +0.050 C 
BRANCH  16  18
ATOM     18  C   LIG    1       -0.015   1.208   0.016  0.00  0.00    +0.520 C 
ATOM     19  N   LIG    1       -1.191   1.867   0.018  0.00  0.00    -0.670 N 
ATOM     20  H   LIG    1       -1.205   2.834   0.091  0.00  0.00    +0.420 HD
ATOM     21  O   LIG    1        0.001  -0.005   0.006  0.00  0.00    -0.510 OA
BRANCH  19  22
ATOM     22  C   LIG    1       -2.392   1.155  -0.086  0.00  0.00    +0.110 A 
ATOM     23  C   LIG    1       -2.511  -0.098   0.498  0.00  0.00    +0.060 A 
ATOM     24  C   LIG    1       -3.697  -0.798   0.395  0.00  0.00    +0.030 A 
ATOM     25  C   LIG    1       -4.767  -0.253  -0.290  0.00  0.00    +0.040 A 
ATOM     26  C   LIG    1       -4.654   0.996  -0.875  0.00  0.00    +0.000 A 
ATOM     27  C   LIG    1       -3.471   1.704  -0.770  0.00  0.00    +0.070 A 
ATOM     28  F   LIG    1       -3.362   2.926  -1.337  0.00  0.00    -0.140 F 
ENDBRANCH  19  22
ENDBRANCH  16  18
ENDBRANCH   1  16
TORSDOF 5
