REMARK  Name = ZINCtV00001bB3IM.0
REMARK                            x       y       z     vdW  Elec       q    Type
REMARK                         _______ _______ _______ _____ _____    ______ ____
ROOT
ATOM      1  C   LIG    1        3.414  -0.022  -0.399  0.00  0.00    +0.590 C 
ATOM      2  N   LIG    1        2.325   0.757  -0.242  0.00  0.00    -0.720 N 
ATOM      3  H   LIG    1        2.429   1.705  -0.064  0.00  0.00    +0.410 HD
ATOM      4  O   LIG    1        3.544  -0.689  -1.409  0.00  0.00    -0.470 OA
ENDROOT
BRANCH   2   5
ATOM      5  C   LIG    1        1.047   0.199  -0.334  0.00  0.00    +0.190 A 
ATOM      6  C   LIG    1       -0.017   0.968  -0.787  0.00  0.00    -0.110 A 
ATOM      7  C   LIG    1       -1.278   0.411  -0.883  0.00  0.00    +0.030 A 
ATOM      8  C   LIG    1       -1.482  -0.908  -0.523  0.00  0.00    -0.020 A 
ATOM      9  C   LIG    1       -0.426  -1.675  -0.066  0.00  0.00    +0.030 A 
ATOM     10  C   LIG    1        0.837  -1.125   0.032  0.00  0.00    -0.110 A 
BRANCH   6  11
ATOM     11  C   LIG    1        0.205   2.405  -1.180  0.00  0.00    +0.020 C 
ATOM     12  C   LIG    1       -0.739   3.305  -0.379  0.00  0.00    +0.030 C 
ATOM     13  C   LIG    1       -0.076   2.575  -2.675  0.00  0.00    +0.040 C 
ENDBRANCH   6  11
BRANCH  10  14
ATOM     14  C   LIG    1        1.988  -1.962   0.529  0.00  0.00    +0.020 C 
ATOM     15  C   LIG    1        2.286  -3.071  -0.482  0.00  0.00    +0.030 C 
ATOM     16  C   LIG    1        1.620  -2.585   1.877  0.00  0.00    +0.040 C 
ENDBRANCH  10  14
ENDBRANCH   2   5
BRANCH   1  18
ATOM     17  C   LIG    1        5.724  -0.317   0.317  0.00  0.00    +0.120 C 
ATOM     18  C   LIG    1        4.438  -0.067   0.643  0.00  0.00    -0.060 C 
BRANCH  17  23
ATOM     19  C   LIG    1        6.167   0.611  -3.301  0.00  0.00    +0.140 A 
ATOM     20  C   LIG    1        6.888  -0.477  -3.764  0.00  0.00    -0.060 A 
ATOM     21  C   LIG    1        7.230  -1.509  -2.904  0.00  0.00    +0.060 A 
ATOM     22  C   LIG    1        6.860  -1.460  -1.578  0.00  0.00    +0.000 A 
ATOM     23  C   LIG    1        6.126  -0.370  -1.096  0.00  0.00    -0.020 A 
ATOM     24  C   LIG    1        5.781   0.673  -1.967  0.00  0.00    +0.060 A 
BRANCH  19  26
ATOM     25  C   LIG    1        6.266   1.489  -5.510  0.00  0.00    +0.250 C 
ATOM     26  O   LIG    1        5.837   1.619  -4.153  0.00  0.00    -0.300 OA
ENDBRANCH  19  26
BRANCH  24  27
ATOM     27  O   LIG    1        5.074   1.738  -1.510  0.00  0.00    -0.320 OA
BRANCH  27  28
ATOM     28  C   LIG    1        5.823   2.846  -1.005  0.00  0.00    +0.570 C 
ATOM     29  F   LIG    1        6.650   3.349  -2.015  0.00  0.00    -0.200 F 
ATOM     30  F   LIG    1        6.608   2.425   0.073  0.00  0.00    -0.200 F 
ENDBRANCH  27  28
ENDBRANCH  24  27
ENDBRANCH  17  23
ENDBRANCH   1  18
TORSDOF 8
