REMARK  Name = ZINCqH0000004Ich.0
REMARK                            x       y       z     vdW  Elec       q    Type
REMARK                         _______ _______ _______ _____ _____    ______ ____
ROOT
ATOM      1  C   LIG    1        5.146  -2.453  -0.062  0.00  0.00    +0.160 C 
ATOM      2  C   LIG    1        5.105  -3.900   0.475  0.00  0.00    +0.050 C 
ATOM      3  C   LIG    1        3.813  -3.980   1.315  0.00  0.00    +0.060 C 
ATOM      4  C   LIG    1        3.182  -2.575   1.215  0.00  0.00    +0.200 C 
ATOM      5  N   LIG    1        3.728  -2.008  -0.045  0.00  0.00    -0.430 N 
ENDROOT
BRANCH   5   6
ATOM      6  C   LIG    1        3.643  -0.632  -0.046  0.00  0.00    +0.400 A 
ATOM      7  N   LIG    1        4.736   0.118  -0.060  0.00  0.00    -0.570 NA
ATOM      8  C   LIG    1        4.667   1.440  -0.060  0.00  0.00    +0.530 A 
ATOM      9  N   LIG    1        3.531   2.096  -0.047  0.00  0.00    -0.530 NA
ATOM     10  C   LIG    1        2.364   1.435  -0.032  0.00  0.00    +0.170 A 
ATOM     11  C   LIG    1        1.133   2.103  -0.019  0.00  0.00    +0.030 A 
ATOM     12  C   LIG    1       -0.024   1.381  -0.005  0.00  0.00    +0.070 A 
ATOM     13  C   LIG    1       -0.002  -0.010  -0.004  0.00  0.00    +0.000 A 
ATOM     14  C   LIG    1        1.180  -0.692  -0.017  0.00  0.00    +0.070 A 
ATOM     15  C   LIG    1        2.385   0.019  -0.031  0.00  0.00    -0.160 A 
ENDBRANCH   5   6
BRANCH   1  18
ATOM     16  N   LIG    1        6.962  -2.799  -1.705  0.00  0.00    -0.670 N 
ATOM     17  H   LIG    1        7.550  -3.016  -0.965  0.00  0.00    +0.410 HD
ATOM     18  C   LIG    1        5.687  -2.429  -1.468  0.00  0.00    +0.530 C 
ATOM     19  O   LIG    1        4.977  -2.078  -2.385  0.00  0.00    -0.500 OA
BRANCH  16  24
ATOM     20  C   LIG    1        8.821  -3.916  -4.674  0.00  0.00    -0.060 A 
ATOM     21  C   LIG    1        8.374  -3.010  -5.619  0.00  0.00    -0.010 A 
ATOM     22  C   LIG    1        7.460  -2.034  -5.267  0.00  0.00    +0.020 A 
ATOM     23  C   LIG    1        6.989  -1.962  -3.971  0.00  0.00    +0.020 A 
ATOM     24  C   LIG    1        7.436  -2.870  -3.019  0.00  0.00    +0.150 A 
ATOM     25  C   LIG    1        8.359  -3.845  -3.374  0.00  0.00    -0.020 A 
BRANCH  20  27
ATOM     26  C   LIG    1       11.237  -4.445  -4.850  0.00  0.00    +0.030 C 
ATOM     27  C   LIG    1        9.818  -4.977  -5.061  0.00  0.00    +0.050 C 
ENDBRANCH  20  27
ENDBRANCH  16  24
ENDBRANCH   1  18
TORSDOF 4
