REMARK  Name = ZINCpe000000XSBq.0
REMARK                            x       y       z     vdW  Elec       q    Type
REMARK                         _______ _______ _______ _____ _____    ______ ____
ROOT
ATOM      1  N   LIG    1        0.062  -2.796   2.391  0.00  0.00    -0.600 N 
ENDROOT
BRANCH   1   7
ATOM      2  C   LIG    1       -0.018   1.503   0.010  0.00  0.00    +0.080 C 
ATOM      3  C   LIG    1        0.002  -0.004   0.002  0.00  0.00    -0.040 A 
ATOM      4  C   LIG    1       -0.006  -0.688  -1.200  0.00  0.00    -0.050 A 
ATOM      5  C   LIG    1        0.019  -2.071  -1.212  0.00  0.00    +0.050 A 
ATOM      6  C   LIG    1        0.040  -2.773  -0.023  0.00  0.00    -0.070 A 
ATOM      7  C   LIG    1        0.042  -2.089   1.186  0.00  0.00    +0.230 A 
ATOM      8  C   LIG    1        0.023  -0.700   1.195  0.00  0.00    -0.080 A 
ENDBRANCH   1   7
BRANCH   1   9
ATOM      9  C   LIG    1        0.064  -2.073   3.665  0.00  0.00    +0.410 C 
BRANCH   9  10
ATOM     10  C   LIG    1       -1.356  -1.845   4.114  0.00  0.00    +0.400 A 
ATOM     11  N   LIG    1       -2.323  -2.283   3.363  0.00  0.00    -0.500 NA
ATOM     12  C   LIG    1       -3.612  -2.122   3.700  0.00  0.00    +0.340 A 
ATOM     13  C   LIG    1       -3.929  -1.451   4.892  0.00  0.00    -0.350 A 
ATOM     14  C   LIG    1       -2.827  -0.961   5.721  0.00  0.00    +0.580 A 
ATOM     15  O   LIG    1       -3.037  -0.372   6.766  0.00  0.00    -0.520 OA
ATOM     16  C   LIG    1       -5.332  -1.420   4.994  0.00  0.00    +0.330 A 
ATOM     17  N   LIG    1       -5.832  -2.022   3.950  0.00  0.00    -0.270 NA
ATOM     18  N   LIG    1       -4.793  -2.470   3.126  0.00  0.00    -0.350 N 
ATOM     19  C   LIG    1       -4.951  -3.191   1.860  0.00  0.00    +0.360 C 
ATOM     20  N   LIG    1       -1.567  -1.186   5.282  0.00  0.00    -0.650 N 
ATOM     21  H   LIG    1       -0.811  -0.875   5.805  0.00  0.00    +0.420 HD
ENDBRANCH   9  10
ENDBRANCH   1   9
BRANCH   1  22
ATOM     22  C   LIG    1        0.082  -4.261   2.380  0.00  0.00    +0.320 C 
BRANCH  22  23
ATOM     23  C   LIG    1        1.531  -4.751   2.363  0.00  0.00    +0.030 C 
BRANCH  23  24
ATOM     24  C   LIG    1        1.552  -6.258   2.352  0.00  0.00    +0.520 C 
ATOM     25  O   LIG    1        0.510  -6.879   2.357  0.00  0.00    -0.540 OA
ATOM     26  N   LIG    1        2.728  -6.916   2.336  0.00  0.00    -0.860 N 
ATOM     27  H   LIG    1        2.741  -7.886   2.329  0.00  0.00    +0.400 HD
ATOM     28  H   LIG    1        3.561  -6.420   2.332  0.00  0.00    +0.400 HD
ENDBRANCH  23  24
ENDBRANCH  22  23
ENDBRANCH   1  22
TORSDOF 6
