REMARK  Name = ZINCpe000000Tdlr.0
REMARK                            x       y       z     vdW  Elec       q    Type
REMARK                         _______ _______ _______ _____ _____    ______ ____
ROOT
ATOM      1  N   LIG    1        2.834   5.795  -4.550  0.00  0.00    -0.500 NA
ATOM      2  C   LIG    1        2.380   5.195  -5.830  0.00  0.00    +0.190 C 
ATOM      3  C   LIG    1        2.913   6.185  -6.896  0.00  0.00    +0.050 C 
ATOM      4  C   LIG    1        2.726   7.560  -6.214  0.00  0.00    +0.050 C 
ATOM      5  C   LIG    1        2.661   7.256  -4.706  0.00  0.00    +0.190 C 
ENDROOT
BRANCH   4   6
ATOM      6  C   LIG    1        3.896   8.460  -6.516  0.00  0.00    +0.220 A 
ATOM      7  C   LIG    1        3.694   9.670  -7.080  0.00  0.00    -0.120 A 
ATOM      8  C   LIG    1        4.809  10.497  -7.354  0.00  0.00    +0.550 A 
ATOM      9  N   LIG    1        6.048  10.061  -7.047  0.00  0.00    -0.660 N 
ATOM     10  H   LIG    1        6.817  10.623  -7.232  0.00  0.00    +0.430 HD
ATOM     11  C   LIG    1        6.221   8.850  -6.486  0.00  0.00    +0.700 A 
ATOM     12  O   LIG    1        7.344   8.470  -6.214  0.00  0.00    -0.540 OA
ATOM     13  O   LIG    1        4.652  11.593  -7.862  0.00  0.00    -0.510 OA
ATOM     14  N   LIG    1        5.169   8.057  -6.215  0.00  0.00    -0.630 N 
ATOM     15  H   LIG    1        5.314   7.189  -5.806  0.00  0.00    +0.440 HD
ENDBRANCH   4   6
BRANCH   1  16
ATOM     16  C   LIG    1        2.042   5.289  -3.421  0.00  0.00    +0.210 C 
BRANCH  16  18
ATOM     17  N   LIG    1        1.379   3.094  -2.493  0.00  0.00    -0.610 N 
ATOM     18  C   LIG    1        2.046   3.782  -3.441  0.00  0.00    +0.520 C 
ATOM     19  O   LIG    1        2.648   3.188  -4.311  0.00  0.00    -0.520 OA
ATOM     20  C   LIG    1        0.651   3.811  -1.443  0.00  0.00    +0.270 C 
BRANCH  17  25
ATOM     21  C   LIG    1        3.272   1.581   1.380  0.00  0.00    +0.000 C 
ATOM     22  C   LIG    1        2.643   1.087   0.075  0.00  0.00    -0.020 C 
ATOM     23  C   LIG    1        1.204   1.595  -0.021  0.00  0.00    +0.010 C 
ATOM     24  C   LIG    1        0.575   1.101  -1.325  0.00  0.00    +0.020 C 
ATOM     25  C   LIG    1        1.382   1.629  -2.513  0.00  0.00    +0.220 C 
ATOM     26  C   LIG    1        2.822   1.121  -2.416  0.00  0.00    +0.020 C 
ATOM     27  C   LIG    1        3.451   1.615  -1.112  0.00  0.00    +0.010 C 
ENDBRANCH  17  25
ENDBRANCH  16  18
ENDBRANCH   1  16
TORSDOF 4
