REMARK  Name = ZINCrH00000tj1cT.0
REMARK                            x       y       z     vdW  Elec       q    Type
REMARK                         _______ _______ _______ _____ _____    ______ ____
ROOT
ATOM      1  N   LIG    1       -0.011   0.966   0.007  0.00  0.00    -0.520 N 
ATOM      2  H   LIG    1        0.002  -0.004   0.002  0.00  0.00    +0.430 HD
ATOM      3  C   LIG    1       -1.187   1.624   0.017  0.00  0.00    +0.600 C 
ATOM      4  O   LIG    1       -1.204   2.841   0.023  0.00  0.00    -0.530 OA
ENDROOT
BRANCH   3   5
ATOM      5  C   LIG    1       -2.447   0.874   0.018  0.00  0.00    -0.270 A 
ATOM      6  C   LIG    1       -3.689   1.419   0.027  0.00  0.00    +0.120 A 
ATOM      7  C   LIG    1       -4.718   0.484   0.019  0.00  0.00    -0.110 A 
ATOM      8  C   LIG    1       -4.310  -0.792   0.073  0.00  0.00    -0.150 A 
ATOM      9  C   LIG    1       -5.129  -2.070   0.202  0.00  0.00    +0.110 C 
ATOM     10  C   LIG    1       -6.627  -1.807   0.293  0.00  0.00    +0.030 C 
ATOM     11  C   LIG    1       -7.228  -1.546  -1.076  0.00  0.00    +0.000 C 
ATOM     12  C   LIG    1       -6.329  -0.723  -1.977  0.00  0.00    +0.020 C 
ATOM     13  C   LIG    1       -6.583   0.737  -1.591  0.00  0.00    +0.010 C 
ATOM     14  C   LIG    1       -6.160   0.944  -0.135  0.00  0.00    +0.090 C 
ATOM     15  S   LIG    1       -2.592  -0.873   0.002  0.00  0.00    +0.170 S 
ENDBRANCH   3   5
BRANCH   1  17
ATOM     16  C   LIG    1        2.369   1.025  -0.015  0.00  0.00    +0.530 C 
ATOM     17  N   LIG    1        1.193   1.683  -0.000  0.00  0.00    -0.520 N 
ATOM     18  H   LIG    1        1.179   2.653   0.005  0.00  0.00    +0.440 HD
ATOM     19  O   LIG    1        2.385  -0.188  -0.022  0.00  0.00    -0.510 OA
BRANCH  16  20
ATOM     20  C   LIG    1        3.663   1.796  -0.023  0.00  0.00    +0.110 C 
BRANCH  20  21
ATOM     21  S   LIG    1        5.058   0.636  -0.043  0.00  0.00    -0.150 S 
BRANCH  21  22
ATOM     22  C   LIG    1        6.502   1.734  -0.051  0.00  0.00    +0.170 C 
BRANCH  22  29
ATOM     23  C   LIG    1        8.134   0.659  -2.641  0.00  0.00    +0.160 C 
ATOM     24  C   LIG    1        8.479   0.436  -1.191  0.00  0.00    +0.040 A 
ATOM     25  N   LIG    1        9.495  -0.230  -0.724  0.00  0.00    -0.360 NA
ATOM     26  O   LIG    1        9.507  -0.236   0.485  0.00  0.00    +0.100 OA
ATOM     27  C   LIG    1        8.472   0.449   0.991  0.00  0.00    -0.000 A 
ATOM     28  C   LIG    1        8.160   0.665   2.449  0.00  0.00    +0.200 C 
ATOM     29  C   LIG    1        7.762   0.907  -0.067  0.00  0.00    -0.200 A 
ENDBRANCH  22  29
ENDBRANCH  21  22
ENDBRANCH  20  21
ENDBRANCH  16  20
ENDBRANCH   1  17
TORSDOF 6
