REMARK  Name = ZINCkj00000GeOQI.0
REMARK                            x       y       z     vdW  Elec       q    Type
REMARK                         _______ _______ _______ _____ _____    ______ ____
ROOT
ATOM      1  N   LIG    1       -0.913   0.047  -2.399  0.00  0.00    -0.620 N 
ATOM      2  C   LIG    1       -1.865   0.996  -2.298  0.00  0.00    +0.730 C 
ATOM      3  N   LIG    1       -1.847   1.861  -1.265  0.00  0.00    -0.630 N 
ATOM      4  C   LIG    1       -0.948   1.789  -0.099  0.00  0.00    +0.260 C 
ATOM      5  C   LIG    1       -1.690   2.553   1.026  0.00  0.00    +0.060 C 
ATOM      6  C   LIG    1       -2.361   3.704   0.228  0.00  0.00    +0.030 C 
ATOM      7  C   LIG    1       -2.723   3.033  -1.113  0.00  0.00    +0.240 C 
ATOM      8  O   LIG    1       -2.741   1.071  -3.139  0.00  0.00    -0.580 OA
ENDROOT
BRANCH   1  10
ATOM      9  C   LIG    1       -0.469  -1.010  -0.239  0.00  0.00    +0.030 C 
ATOM     10  C   LIG    1        0.086  -0.103  -1.339  0.00  0.00    +0.260 C 
ENDBRANCH   1  10
BRANCH   1  11
ATOM     11  C   LIG    1       -0.878  -0.833  -3.570  0.00  0.00    +0.300 C 
ATOM     12  C   LIG    1       -0.105  -0.150  -4.699  0.00  0.00    +0.010 C 
ENDBRANCH   1  11
BRANCH   7  13
ATOM     13  C   LIG    1       -2.486   4.011  -2.265  0.00  0.00    +0.250 C 
BRANCH  13  14
ATOM     14  N   LIG    1       -3.431   5.131  -2.159  0.00  0.00    -0.380 N 
ATOM     15  C   LIG    1       -4.809   4.641  -2.379  0.00  0.00    +0.250 C 
ATOM     16  C   LIG    1       -5.519   5.784  -3.143  0.00  0.00    +0.090 C 
ATOM     17  C   LIG    1       -4.383   6.294  -4.068  0.00  0.00    +0.080 C 
ATOM     18  C   LIG    1       -3.124   6.139  -3.190  0.00  0.00    +0.180 C 
ATOM     19  H   LIG    1       -3.362   5.549  -1.243  0.00  0.00    +0.420 HD
BRANCH  18  20
ATOM     20  C   LIG    1       -2.781   7.474  -2.526  0.00  0.00    +0.230 C 
BRANCH  20  21
ATOM     21  O   LIG    1       -3.932   7.976  -1.843  0.00  0.00    -0.570 OA
ATOM     22  H   LIG    1       -3.788   8.822  -1.398  0.00  0.00    +0.410 HD
ENDBRANCH  20  21
ENDBRANCH  18  20
ENDBRANCH  13  14
ENDBRANCH   7  13
TORSDOF 6
