REMARK  Name = ZINCkj00000GeOQI.1
REMARK                            x       y       z     vdW  Elec       q    Type
REMARK                         _______ _______ _______ _____ _____    ______ ____
ROOT
ATOM      1  N   LIG    1       -0.914   1.732   3.753  0.00  0.00    -0.620 N 
ATOM      2  C   LIG    1       -0.400   1.097   2.682  0.00  0.00    +0.730 C 
ATOM      3  N   LIG    1       -0.988   1.223   1.476  0.00  0.00    -0.630 N 
ATOM      4  C   LIG    1       -2.279   1.890   1.210  0.00  0.00    +0.260 C 
ATOM      5  C   LIG    1       -2.794   1.252  -0.105  0.00  0.00    +0.040 C 
ATOM      6  C   LIG    1       -1.474   1.068  -0.899  0.00  0.00    +0.030 C 
ATOM      7  C   LIG    1       -0.453   0.716   0.204  0.00  0.00    +0.230 C 
ATOM      8  O   LIG    1        0.596   0.409   2.804  0.00  0.00    -0.590 OA
ENDROOT
BRANCH   1  10
ATOM      9  C   LIG    1        0.766   2.823   5.156  0.00  0.00    +0.010 C 
ATOM     10  C   LIG    1       -0.228   1.665   5.045  0.00  0.00    +0.290 C 
ENDBRANCH   1  10
BRANCH   1  11
ATOM     11  C   LIG    1       -2.161   2.491   3.625  0.00  0.00    +0.260 C 
ATOM     12  C   LIG    1       -3.352   1.553   3.826  0.00  0.00    +0.030 C 
ENDBRANCH   1  11
BRANCH   7  13
ATOM     13  C   LIG    1        0.890   1.384  -0.098  0.00  0.00    +0.260 C 
BRANCH  13  14
ATOM     14  N   LIG    1        1.494   0.757  -1.281  0.00  0.00    -0.380 N 
ATOM     15  C   LIG    1        0.691   1.079  -2.479  0.00  0.00    +0.250 C 
ATOM     16  C   LIG    1        1.728   1.245  -3.618  0.00  0.00    +0.080 C 
ATOM     17  C   LIG    1        2.903   1.931  -2.874  0.00  0.00    +0.090 C 
ATOM     18  C   LIG    1        2.859   1.278  -1.477  0.00  0.00    +0.180 C 
ATOM     19  H   LIG    1        1.527  -0.244  -1.156  0.00  0.00    +0.420 HD
BRANCH  18  20
ATOM     20  C   LIG    1        3.177   2.321  -0.404  0.00  0.00    +0.220 C 
BRANCH  20  21
ATOM     21  O   LIG    1        2.336   3.462  -0.585  0.00  0.00    -0.570 OA
ATOM     22  H   LIG    1        2.482   4.166   0.062  0.00  0.00    +0.400 HD
ENDBRANCH  20  21
ENDBRANCH  18  20
ENDBRANCH  13  14
ENDBRANCH   7  13
TORSDOF 6
