REMARK  Name = ZINCqH0000002rcW.0
REMARK                            x       y       z     vdW  Elec       q    Type
REMARK                         _______ _______ _______ _____ _____    ______ ____
ROOT
ATOM      1  C   LIG    1        0.002  -0.004   0.002  0.00  0.00    +0.430 A 
ATOM      2  N   LIG    1       -0.016   1.300   0.009  0.00  0.00    -0.510 NA
ATOM      3  C   LIG    1        1.121   2.015   0.002  0.00  0.00    +0.530 A 
ATOM      4  C   LIG    1        2.411   1.299  -0.014  0.00  0.00    -0.220 A 
ATOM      5  C   LIG    1        2.369  -0.084  -0.021  0.00  0.00    +0.060 A 
ATOM      6  S   LIG    1        4.001  -0.735  -0.040  0.00  0.00    +0.180 S 
ATOM      7  C   LIG    1        4.716   0.867  -0.038  0.00  0.00    -0.040 A 
ATOM      8  C   LIG    1        3.775   1.810  -0.024  0.00  0.00    +0.020 A 
ATOM      9  O   LIG    1        1.088   3.235   0.009  0.00  0.00    -0.470 OA
ATOM     10  N   LIG    1        1.142  -0.711  -0.013  0.00  0.00    -0.590 N 
ATOM     11  H   LIG    1        1.102  -1.681  -0.017  0.00  0.00    +0.420 HD
ENDROOT
BRANCH   8  12
ATOM     12  C   LIG    1        4.090   3.259  -0.019  0.00  0.00    -0.040 A 
ATOM     13  C   LIG    1        3.473   4.112  -0.932  0.00  0.00    +0.060 A 
ATOM     14  C   LIG    1        3.770   5.460  -0.923  0.00  0.00    +0.000 A 
ATOM     15  C   LIG    1        4.678   5.964  -0.009  0.00  0.00    -0.080 A 
ATOM     16  C   LIG    1        5.293   5.122   0.899  0.00  0.00    -0.090 A 
ATOM     17  C   LIG    1        6.281   5.679   1.892  0.00  0.00    +0.080 C 
ATOM     18  C   LIG    1        4.998   7.437  -0.004  0.00  0.00    +0.090 C 
ATOM     19  C   LIG    1        5.000   3.774   0.903  0.00  0.00    +0.020 A 
ENDBRANCH   8  12
BRANCH   1  20
ATOM     20  C   LIG    1       -1.310  -0.746   0.011  0.00  0.00    +0.160 C 
BRANCH  20  23
ATOM     21  N   LIG    1       -3.721  -0.194   0.038  0.00  0.00    -0.740 N 
ATOM     22  H   LIG    1       -3.907  -1.146   0.035  0.00  0.00    +0.400 HD
ATOM     23  C   LIG    1       -2.446   0.244   0.028  0.00  0.00    +0.500 C 
ATOM     24  O   LIG    1       -2.214   1.434   0.032  0.00  0.00    -0.460 OA
BRANCH  21  25
ATOM     25  C   LIG    1       -4.826   0.768   0.054  0.00  0.00    +0.260 C 
BRANCH  25  26
ATOM     26  C   LIG    1       -6.157   0.015   0.063  0.00  0.00    +0.010 C 
BRANCH  26  28
ATOM     27  C   LIG    1       -8.643   0.267   0.089  0.00  0.00    +0.010 C 
ATOM     28  C   LIG    1       -7.311   1.020   0.080  0.00  0.00    +0.020 C 
ENDBRANCH  26  28
ENDBRANCH  25  26
ENDBRANCH  21  25
ENDBRANCH  20  23
ENDBRANCH   1  20
TORSDOF 6
