REMARK  Name = ZINCqH00000339bd.0
REMARK                            x       y       z     vdW  Elec       q    Type
REMARK                         _______ _______ _______ _____ _____    ______ ____
ROOT
ATOM      1  C   LIG    1        3.165   1.808  -0.881  0.00  0.00    +0.600 C 
ATOM      2  N   LIG    1        4.112   1.054  -1.473  0.00  0.00    -0.550 N 
ATOM      3  C   LIG    1        4.001  -0.414  -1.517  0.00  0.00    +0.220 C 
ATOM      4  C   LIG    1        5.395  -0.987  -1.244  0.00  0.00    +0.250 C 
ATOM      5  N   LIG    1        6.315  -0.537  -2.293  0.00  0.00    -0.490 N 
ATOM      6  C   LIG    1        6.322   0.849  -2.457  0.00  0.00    +0.100 A 
ATOM      7  C   LIG    1        7.435   1.452  -3.033  0.00  0.00    +0.010 A 
ATOM      8  C   LIG    1        7.466   2.822  -3.220  0.00  0.00    +0.100 A 
ATOM      9  C   LIG    1        6.389   3.603  -2.836  0.00  0.00    +0.000 A 
ATOM     10  C   LIG    1        5.280   3.013  -2.259  0.00  0.00    +0.070 A 
ATOM     11  F   LIG    1        8.550   3.400  -3.782  0.00  0.00    -0.140 F 
ATOM     12  C   LIG    1        6.035  -1.216  -3.566  0.00  0.00    +0.210 C 
ATOM     13  C   LIG    1        5.244   1.641  -2.066  0.00  0.00    +0.110 A 
ATOM     14  O   LIG    1        3.322   3.011  -0.776  0.00  0.00    -0.490 OA
ENDROOT
BRANCH   1  16
ATOM     15  C   LIG    1        1.107   1.712   0.571  0.00  0.00    -0.010 A 
ATOM     16  C   LIG    1        1.943   1.179  -0.363  0.00  0.00    -0.060 A 
ATOM     17  N   LIG    1        1.448  -0.051  -0.740  0.00  0.00    -0.530 N 
ATOM     18  H   LIG    1        1.853  -0.643  -1.393  0.00  0.00    +0.420 HD
ATOM     19  C   LIG    1        0.318  -0.300  -0.061  0.00  0.00    +0.100 A 
ATOM     20  C   LIG    1       -0.530  -1.540  -0.185  0.00  0.00    +0.160 C 
ATOM     21  C   LIG    1        0.064   0.777   0.774  0.00  0.00    -0.250 A 
BRANCH  21  22
ATOM     22  C   LIG    1       -1.070   0.920   1.692  0.00  0.00    +0.430 C 
ATOM     23  O   LIG    1       -0.940   0.640   2.865  0.00  0.00    -0.450 OA
ATOM     24  C   LIG    1       -2.398   1.415   1.179  0.00  0.00    +0.070 C 
ENDBRANCH  21  22
BRANCH  15  25
ATOM     25  C   LIG    1        1.259   3.047   1.254  0.00  0.00    +0.100 C 
BRANCH  25  27
ATOM     26  C   LIG    1        2.231   4.228   3.229  0.00  0.00    +0.010 C 
ATOM     27  C   LIG    1        2.076   2.873   2.536  0.00  0.00    +0.010 C 
ENDBRANCH  25  27
ENDBRANCH  15  25
ENDBRANCH   1  16
TORSDOF 4
