REMARK  Name = ZINCqH0000050kaL.0
REMARK                            x       y       z     vdW  Elec       q    Type
REMARK                         _______ _______ _______ _____ _____    ______ ____
ROOT
ATOM      1  C   LIG    1        1.619  -3.053   1.063  0.00  0.00    +0.460 C 
ATOM      2  O   LIG    1        2.767  -2.686   0.977  0.00  0.00    -0.480 OA
ENDROOT
BRANCH   1   3
ATOM      3  O   LIG    1        0.620  -2.169   0.919  0.00  0.00    -0.340 OA
BRANCH   3   4
ATOM      4  C   LIG    1        0.992  -0.789   0.663  0.00  0.00    +0.240 C 
BRANCH   4   5
ATOM      5  C   LIG    1       -0.253   0.050   0.531  0.00  0.00    +0.400 C 
ATOM      6  O   LIG    1       -1.345  -0.463   0.642  0.00  0.00    -0.420 OA
BRANCH   5  12
ATOM      7  C   LIG    1        2.558   4.136   0.009  0.00  0.00    +0.090 C 
ATOM      8  C   LIG    1        1.208   3.466   0.015  0.00  0.00    -0.100 A 
ATOM      9  C   LIG    1        0.067   4.211  -0.229  0.00  0.00    +0.050 A 
ATOM     10  C   LIG    1       -1.178   3.605  -0.227  0.00  0.00    +0.000 A 
ATOM     11  C   LIG    1       -1.289   2.252   0.015  0.00  0.00    -0.020 A 
ATOM     12  C   LIG    1       -0.142   1.494   0.267  0.00  0.00    -0.170 A 
ATOM     13  C   LIG    1       -2.645   1.594   0.011  0.00  0.00    +0.100 C 
ATOM     14  C   LIG    1        1.112   2.113   0.263  0.00  0.00    +0.060 A 
ENDBRANCH   5  12
ENDBRANCH   4   5
ENDBRANCH   3   4
ENDBRANCH   1   3
BRANCH   1  15
ATOM     15  C   LIG    1        1.310  -4.504   1.331  0.00  0.00    +0.220 C 
BRANCH  15  16
ATOM     16  C   LIG    1        2.597  -5.278   1.450  0.00  0.00    +0.070 A 
ATOM     17  C   LIG    1        2.881  -6.024   2.525  0.00  0.00    -0.040 A 
ATOM     18  S   LIG    1        4.463  -6.762   2.279  0.00  0.00    +0.120 S 
ATOM     19  C   LIG    1        4.584  -5.970   0.711  0.00  0.00    +0.110 A 
ATOM     20  N   LIG    1        3.506  -5.268   0.504  0.00  0.00    -0.410 NA
BRANCH  19  21
ATOM     21  C   LIG    1        5.723  -6.087  -0.224  0.00  0.00    +0.190 A 
ATOM     22  C   LIG    1        6.822  -6.874   0.119  0.00  0.00    -0.010 A 
ATOM     23  C   LIG    1        7.879  -6.978  -0.769  0.00  0.00    +0.070 A 
ATOM     24  C   LIG    1        7.807  -6.283  -1.968  0.00  0.00    -0.020 A 
ATOM     25  C   LIG    1        6.689  -5.516  -2.242  0.00  0.00    +0.270 A 
ATOM     26  N   LIG    1        5.695  -5.437  -1.383  0.00  0.00    -0.440 NA
ENDBRANCH  19  21
ENDBRANCH  15  16
ENDBRANCH   1  15
TORSDOF 7
