REMARK  Name = ZINCvU0000000Is2.0
REMARK                            x       y       z     vdW  Elec       q    Type
REMARK                         _______ _______ _______ _____ _____    ______ ____
ROOT
ATOM      1  C   LIG    1       -4.966  -1.920  -6.630  0.00  0.00    +0.150 A 
ATOM      2  C   LIG    1       -4.300  -0.815  -7.142  0.00  0.00    +0.020 A 
ATOM      3  C   LIG    1       -2.946  -0.661  -6.917  0.00  0.00    +0.040 A 
ATOM      4  C   LIG    1       -2.254  -1.606  -6.183  0.00  0.00    -0.100 A 
ATOM      5  C   LIG    1       -2.913  -2.711  -5.675  0.00  0.00    +0.050 A 
ATOM      6  C   LIG    1       -4.268  -2.868  -5.892  0.00  0.00    -0.010 A 
ENDROOT
BRANCH   1   8
ATOM      7  C   LIG    1       -6.878  -1.686  -8.027  0.00  0.00    +0.520 C 
ATOM      8  N   LIG    1       -6.338  -2.079  -6.856  0.00  0.00    -0.670 N 
ATOM      9  H   LIG    1       -6.900  -2.473  -6.171  0.00  0.00    +0.410 HD
ATOM     10  O   LIG    1       -6.192  -1.117  -8.850  0.00  0.00    -0.510 OA
BRANCH   7  12
ATOM     11  C   LIG    1       -8.593  -3.460  -8.274  0.00  0.00    +0.080 C 
ATOM     12  C   LIG    1       -8.333  -1.953  -8.313  0.00  0.00    +0.030 C 
BRANCH  12  13
ATOM     13  C   LIG    1       -8.683  -1.418  -9.678  0.00  0.00    -0.010 A 
ATOM     14  C   LIG    1       -8.030  -1.898 -10.796  0.00  0.00    +0.020 A 
ATOM     15  C   LIG    1       -8.352  -1.406 -12.050  0.00  0.00    +0.120 A 
ATOM     16  C   LIG    1       -9.328  -0.434 -12.182  0.00  0.00    +0.000 A 
ATOM     17  C   LIG    1       -9.981   0.045 -11.062  0.00  0.00    +0.090 A 
ATOM     18  F   LIG    1       -7.713  -1.875 -13.144  0.00  0.00    -0.130 F 
ATOM     19  C   LIG    1       -9.663  -0.450  -9.810  0.00  0.00    -0.100 A 
ATOM     20 BR   LIG    1      -10.562   0.201  -8.280  0.00  0.00    -0.040 Br
ENDBRANCH  12  13
ENDBRANCH   7  12
ENDBRANCH   1   8
BRANCH   4  21
ATOM     21  C   LIG    1       -0.777  -1.435  -5.939  0.00  0.00    +0.210 C 
BRANCH  21  22
ATOM     22  C   LIG    1       -0.564  -0.657  -4.667  0.00  0.00    +0.070 A 
ATOM     23  N   LIG    1       -0.446  -1.181  -3.497  0.00  0.00    -0.450 NA
ATOM     24  C   LIG    1       -0.263  -0.352  -2.478  0.00  0.00    +0.140 A 
ATOM     25  C   LIG    1       -0.231   0.951  -2.829  0.00  0.00    -0.090 A 
ATOM     26  S   LIG    1       -0.445   1.046  -4.575  0.00  0.00    +0.150 S 
BRANCH  24  27
ATOM     27  C   LIG    1       -0.112  -0.814  -1.081  0.00  0.00    +0.140 A 
ATOM     28  C   LIG    1       -0.034  -2.112  -0.661  0.00  0.00    -0.060 A 
ATOM     29  C   LIG    1        0.097  -2.105   0.729  0.00  0.00    +0.230 A 
ATOM     30  N   LIG    1        0.103  -0.863   1.141  0.00  0.00    -0.280 NA
ATOM     31  N   LIG    1       -0.023  -0.024   0.026  0.00  0.00    -0.370 N 
ATOM     32  C   LIG    1       -0.060   1.441   0.047  0.00  0.00    +0.360 C 
ENDBRANCH  24  27
ENDBRANCH  21  22
ENDBRANCH   4  21
TORSDOF 6
