REMARK  Name = ZINCpe00000Rh6TM.0
REMARK                            x       y       z     vdW  Elec       q    Type
REMARK                         _______ _______ _______ _____ _____    ______ ____
ROOT
ATOM      1  C   LIG    1       -1.866   2.373  -0.655  0.00  0.00    +0.370 C 
ATOM      2  C   LIG    1       -1.787   2.353   0.851  0.00  0.00    -0.260 A 
ATOM      3  C   LIG    1       -0.706   1.636   1.233  0.00  0.00    +0.060 A 
ATOM      4  N   LIG    1       -0.667   1.637   2.583  0.00  0.00    -0.340 N 
ATOM      5  N   LIG    1       -1.759   2.382   3.046  0.00  0.00    -0.270 NA
ATOM      6  C   LIG    1        0.341   0.977   3.416  0.00  0.00    +0.360 C 
ATOM      7  C   LIG    1        0.010   1.126   0.008  0.00  0.00    +0.380 C 
ATOM      8  C   LIG    1       -2.430   2.811   2.009  0.00  0.00    +0.300 A 
ATOM      9  N   LIG    1       -0.730   1.599  -1.167  0.00  0.00    -0.600 N 
ATOM     10  C   LIG    1       -0.427   1.368  -2.460  0.00  0.00    +0.560 C 
ATOM     11  O   LIG    1       -1.177   1.745  -3.335  0.00  0.00    -0.480 OA
ENDROOT
BRANCH  10  12
ATOM     12  C   LIG    1        0.844   0.641  -2.817  0.00  0.00    +0.150 C 
ATOM     13  C   LIG    1        0.716  -0.842  -2.440  0.00  0.00    +0.250 C 
ATOM     14  O   LIG    1        1.932  -1.503  -2.806  0.00  0.00    -0.300 OA
ATOM     15  C   LIG    1        2.429  -1.232  -4.043  0.00  0.00    +0.040 A 
ATOM     16  C   LIG    1        3.375  -2.080  -4.598  0.00  0.00    +0.030 A 
ATOM     17  C   LIG    1        3.891  -1.816  -5.853  0.00  0.00    +0.030 A 
ATOM     18  C   LIG    1        3.467  -0.705  -6.557  0.00  0.00    +0.030 A 
ATOM     19  C   LIG    1        2.522   0.144  -6.011  0.00  0.00    +0.030 A 
ATOM     20  C   LIG    1        2.000  -0.116  -4.753  0.00  0.00    +0.050 A 
ATOM     21  O   LIG    1        1.069   0.727  -4.229  0.00  0.00    -0.280 OA
ENDBRANCH  10  12
BRANCH   1  22
ATOM     22  C   LIG    1       -1.782   3.794  -1.152  0.00  0.00    +0.460 C 
ATOM     23  O   LIG    1       -0.866   4.131  -1.864  0.00  0.00    -0.490 OA
BRANCH  22  25
ATOM     24  C   LIG    1       -2.580   6.033  -1.319  0.00  0.00    +0.270 C 
ATOM     25  O   LIG    1       -2.725   4.684  -0.803  0.00  0.00    -0.350 OA
ENDBRANCH  22  25
ENDBRANCH   1  22
TORSDOF 3
