REMARK  Name = ZINCpe000000Woi4.1
REMARK                            x       y       z     vdW  Elec       q    Type
REMARK                         _______ _______ _______ _____ _____    ______ ____
ROOT
ATOM      1  N   LIG    1       -0.120   7.614  -1.392  0.00  0.00    -0.540 NA
ATOM      2  C   LIG    1       -1.366   8.129  -0.806  0.00  0.00    +0.180 C 
ATOM      3  C   LIG    1       -1.266   9.650  -0.658  0.00  0.00    +0.300 C 
ATOM      4  N   LIG    1       -0.909  10.225  -1.964  0.00  0.00    -0.580 N 
ATOM      5  C   LIG    1        0.249   9.665  -2.677  0.00  0.00    +0.300 C 
ATOM      6  C   LIG    1        0.090   8.143  -2.746  0.00  0.00    +0.180 C 
ENDROOT
BRANCH   4   7
ATOM      7  C   LIG    1       -1.647  11.269  -2.510  0.00  0.00    +0.410 A 
ATOM      8  N   LIG    1       -2.741  11.677  -1.907  0.00  0.00    -0.300 NA
ATOM      9  N   LIG    1       -3.494  12.723  -2.441  0.00  0.00    -0.170 N 
ATOM     10  N   LIG    1       -4.671  13.377  -2.057  0.00  0.00    -0.050 NA
ATOM     11  N   LIG    1       -4.905  14.284  -2.944  0.00  0.00    -0.030 NA
ATOM     12  N   LIG    1       -3.998  14.277  -3.855  0.00  0.00    -0.290 NA
ATOM     13  C   LIG    1       -3.100  13.336  -3.599  0.00  0.00    +0.170 A 
ATOM     14  C   LIG    1       -1.929  12.899  -4.245  0.00  0.00    +0.180 A 
ATOM     15  C   LIG    1       -1.211  11.881  -3.700  0.00  0.00    +0.020 A 
ENDBRANCH   4   7
BRANCH   1  16
ATOM     16  C   LIG    1       -0.106   6.145  -1.392  0.00  0.00    +0.180 C 
BRANCH  16  17
ATOM     17  C   LIG    1       -0.077   5.635   0.050  0.00  0.00    +0.080 C 
BRANCH  17  21
ATOM     18  C   LIG    1       -0.036   1.362   0.050  0.00  0.00    +0.130 A 
ATOM     19  C   LIG    1       -1.244   2.045   0.065  0.00  0.00    -0.080 A 
ATOM     20  C   LIG    1       -1.254   3.427   0.070  0.00  0.00    +0.040 A 
ATOM     21  C   LIG    1       -0.063   4.128   0.050  0.00  0.00    -0.120 A 
ATOM     22  C   LIG    1        1.142   3.450   0.030  0.00  0.00    +0.060 A 
ATOM     23  C   LIG    1        1.158   2.068   0.030  0.00  0.00    -0.020 A 
BRANCH  18  25
ATOM     24  C   LIG    1       -1.290  -0.658   0.071  0.00  0.00    +0.250 C 
ATOM     25  O   LIG    1       -0.023   0.003   0.050  0.00  0.00    -0.320 OA
ENDBRANCH  18  25
ENDBRANCH  17  21
ENDBRANCH  16  17
ENDBRANCH   1  16
TORSDOF 5
