REMARK  Name = ZINCpe000000QNvr.0
REMARK                            x       y       z     vdW  Elec       q    Type
REMARK                         _______ _______ _______ _____ _____    ______ ____
ROOT
ATOM      1  C   LIG    1       -3.255   4.234   6.997  0.00  0.00    +0.520 C 
ATOM      2  N   LIG    1       -2.093   3.553   7.024  0.00  0.00    -0.670 N 
ATOM      3  H   LIG    1       -1.938   2.832   6.394  0.00  0.00    +0.410 HD
ATOM      4  O   LIG    1       -3.483   5.078   7.838  0.00  0.00    -0.520 OA
ENDROOT
BRANCH   2   5
ATOM      5  C   LIG    1       -1.107   3.885   7.964  0.00  0.00    +0.070 A 
ATOM      6  C   LIG    1       -1.466   4.314   9.241  0.00  0.00    +0.100 A 
ATOM      7  C   LIG    1       -0.461   4.631  10.136  0.00  0.00    -0.020 A 
ATOM      8  C   LIG    1        0.866   4.512   9.736  0.00  0.00    +0.290 A 
ATOM      9  N   LIG    1        1.170   4.101   8.515  0.00  0.00    -0.500 NA
ATOM     10  C   LIG    1        0.237   3.785   7.637  0.00  0.00    +0.270 A 
BRANCH   8  11
ATOM     11  N   LIG    1        1.885   4.828  10.630  0.00  0.00    -0.470 N 
ATOM     12  C   LIG    1        1.740   6.203  11.129  0.00  0.00    +0.170 C 
ATOM     13  C   LIG    1        2.844   6.488  12.151  0.00  0.00    +0.230 C 
ATOM     14  O   LIG    1        4.119   6.265  11.543  0.00  0.00    -0.380 OA
ATOM     15  C   LIG    1        4.295   4.936  11.045  0.00  0.00    +0.220 C 
ATOM     16  C   LIG    1        3.205   4.635  10.012  0.00  0.00    +0.190 C 
ENDBRANCH   8  11
ENDBRANCH   2   5
BRANCH   1  17
ATOM     17  C   LIG    1       -4.271   3.949   5.921  0.00  0.00    +0.150 C 
BRANCH  17  22
ATOM     18  C   LIG    1       -8.795   7.367   6.609  0.00  0.00    +0.190 C 
ATOM     19  C   LIG    1       -7.609   6.452   6.441  0.00  0.00    +0.400 A 
ATOM     20  N   LIG    1       -6.648   6.795   5.625  0.00  0.00    -0.540 NA
ATOM     21  C   LIG    1       -5.577   6.019   5.442  0.00  0.00    +0.200 A 
ATOM     22  C   LIG    1       -5.471   4.839   6.114  0.00  0.00    -0.260 A 
ATOM     23  C   LIG    1       -6.508   4.468   6.994  0.00  0.00    +0.530 A 
ATOM     24  O   LIG    1       -6.453   3.420   7.616  0.00  0.00    -0.530 OA
ATOM     25  C   LIG    1       -4.488   6.447   4.492  0.00  0.00    +0.150 C 
ATOM     26  N   LIG    1       -7.562   5.300   7.139  0.00  0.00    -0.630 N 
ATOM     27  H   LIG    1       -8.286   5.068   7.741  0.00  0.00    +0.420 HD
ENDBRANCH  17  22
ENDBRANCH   1  17
TORSDOF 4
