REMARK  Name = ZINCkj000005l1C3.0
REMARK                            x       y       z     vdW  Elec       q    Type
REMARK                         _______ _______ _______ _____ _____    ______ ____
ROOT
ATOM      1  C   LIG    1       -0.803   1.626   1.218  0.00  0.00    +0.170 C 
ATOM      2  C   LIG    1       -0.019   1.078   0.004  0.00  0.00    +0.090 C 
ATOM      3  C   LIG    1       -0.847   1.627  -1.180  0.00  0.00    +0.310 C 
ATOM      4  N   LIG    1       -1.521   2.824  -0.665  0.00  0.00    -0.530 N 
ATOM      5  C   LIG    1       -1.516   2.847   0.679  0.00  0.00    +0.500 C 
ATOM      6  O   LIG    1       -2.011   3.720   1.360  0.00  0.00    -0.480 OA
ENDROOT
BRANCH   4   7
ATOM      7  C   LIG    1       -2.094   3.815  -1.470  0.00  0.00    +0.130 A 
ATOM      8  C   LIG    1       -2.818   4.849  -0.891  0.00  0.00    +0.000 A 
ATOM      9  C   LIG    1       -3.378   5.829  -1.688  0.00  0.00    +0.040 A 
ATOM     10  C   LIG    1       -3.227   5.775  -3.061  0.00  0.00    +0.010 A 
ATOM     11  C   LIG    1       -2.511   4.744  -3.641  0.00  0.00    +0.050 A 
ATOM     12  C   LIG    1       -1.944   3.764  -2.850  0.00  0.00    -0.010 A 
ENDBRANCH   4   7
BRANCH   1  13
ATOM     13  N   LIG    1        0.119   2.003   2.298  0.00  0.00    -0.490 N 
ATOM     14  H   LIG    1        0.696   2.773   1.994  0.00  0.00    +0.430 HD
ATOM     15  H   LIG    1        0.704   1.216   2.531  0.00  0.00    +0.430 HD
BRANCH  13  16
ATOM     16  C   LIG    1       -0.652   2.407   3.482  0.00  0.00    +0.380 C 
BRANCH  16  22
ATOM     17  C   LIG    1        0.710   0.497   5.563  0.00  0.00    +0.340 C 
ATOM     18  N   LIG    1        0.882   1.950   5.492  0.00  0.00    -0.460 N 
ATOM     19  C   LIG    1        1.653   2.707   6.303  0.00  0.00    +0.460 A 
ATOM     20  N   LIG    1        1.548   3.954   5.935  0.00  0.00    -0.490 NA
ATOM     21  C   LIG    1        0.719   4.038   4.884  0.00  0.00    +0.230 A 
ATOM     22  C   LIG    1        0.294   2.794   4.589  0.00  0.00    -0.130 A 
ENDBRANCH  16  22
ENDBRANCH  13  16
ENDBRANCH   1  13
TORSDOF 4
