REMARK  Name = ZINCrD00000l9lcr.0
REMARK                            x       y       z     vdW  Elec       q    Type
REMARK                         _______ _______ _______ _____ _____    ______ ____
ROOT
ATOM      1  N   LIG    1       -2.642   6.528  -1.074  0.00  0.00    -0.720 N 
ATOM      2  H   LIG    1       -3.206   6.434  -0.290  0.00  0.00    +0.400 HD
ATOM      3  C   LIG    1       -2.549   7.718  -1.698  0.00  0.00    +0.560 C 
ATOM      4  O   LIG    1       -1.842   7.836  -2.680  0.00  0.00    -0.530 OA
ENDROOT
BRANCH   3   5
ATOM      5  C   LIG    1       -3.306   8.882  -1.189  0.00  0.00    -0.100 A 
ATOM      6  C   LIG    1       -4.121   8.745  -0.065  0.00  0.00    +0.020 A 
ATOM      7  C   LIG    1       -4.821   9.838   0.410  0.00  0.00    +0.070 A 
ATOM      8  C   LIG    1       -4.723  11.053  -0.231  0.00  0.00    -0.120 A 
ATOM      9  C   LIG    1       -5.350  12.404   0.030  0.00  0.00    +0.140 C 
ATOM     10  C   LIG    1       -4.798  13.286  -1.069  0.00  0.00    +0.530 C 
ATOM     11  N   LIG    1       -3.987  12.523  -1.819  0.00  0.00    -0.660 N 
ATOM     12  H   LIG    1       -3.502  12.848  -2.594  0.00  0.00    +0.420 HD
ATOM     13  O   LIG    1       -5.043  14.462  -1.239  0.00  0.00    -0.500 OA
ATOM     14  C   LIG    1       -3.919  11.208  -1.356  0.00  0.00    +0.140 A 
ATOM     15  C   LIG    1       -3.208  10.113  -1.835  0.00  0.00    +0.060 A 
ENDBRANCH   3   5
BRANCH   1  16
ATOM     16  C   LIG    1       -1.893   5.375  -1.579  0.00  0.00    +0.280 C 
BRANCH  16  20
ATOM     17  N   LIG    1       -1.235   2.068   0.019  0.00  0.00    -0.490 N 
ATOM     18  C   LIG    1       -1.355   2.918   1.218  0.00  0.00    +0.190 C 
ATOM     19  C   LIG    1       -1.602   4.362   0.732  0.00  0.00    +0.010 C 
ATOM     20  C   LIG    1       -2.174   4.157  -0.696  0.00  0.00    -0.010 C 
ATOM     21  C   LIG    1       -1.372   2.923  -1.179  0.00  0.00    +0.200 C 
BRANCH  17  29
ATOM     22  C   LIG    1       -1.292  -0.776   0.011  0.00  0.00    +0.100 C 
ATOM     23  C   LIG    1        0.002  -0.004   0.002  0.00  0.00    -0.050 A 
ATOM     24  C   LIG    1        1.208  -0.677  -0.013  0.00  0.00    +0.040 A 
ATOM     25  C   LIG    1        2.396   0.030  -0.020  0.00  0.00    +0.020 A 
ATOM     26  C   LIG    1        2.382   1.413  -0.013  0.00  0.00    -0.030 A 
ATOM     27  C   LIG    1        1.178   2.093   0.002  0.00  0.00    -0.010 A 
ATOM     28 CL   LIG    1        3.876   2.297  -0.022  0.00  0.00    -0.070 Cl
ATOM     29  C   LIG    1       -0.017   1.385   0.010  0.00  0.00    +0.090 A 
ENDBRANCH  17  29
ENDBRANCH  16  20
ENDBRANCH   1  16
TORSDOF 4
