REMARK  Name = ZINCrD0000074ILy.0
REMARK                            x       y       z     vdW  Elec       q    Type
REMARK                         _______ _______ _______ _____ _____    ______ ____
ROOT
ATOM      1  C   LIG    1       -0.325   4.578   0.092  0.00  0.00    +0.300 A 
ATOM      2  C   LIG    1       -1.338   3.919  -0.592  0.00  0.00    -0.010 A 
ATOM      3  C   LIG    1       -1.341   2.535  -0.625  0.00  0.00    +0.120 A 
ATOM      4  C   LIG    1       -0.320   1.854   0.034  0.00  0.00    +0.060 A 
ATOM      5  C   LIG    1        0.655   2.580   0.702  0.00  0.00    +0.280 A 
ATOM      6  N   LIG    1        0.629   3.899   0.707  0.00  0.00    -0.510 NA
ENDROOT
BRANCH   4   7
ATOM      7  N   LIG    1       -0.282   0.454   0.028  0.00  0.00    -0.660 N 
ATOM      8  H   LIG    1        0.571  -0.008   0.005  0.00  0.00    +0.420 HD
ATOM      9  C   LIG    1       -1.430  -0.252   0.054  0.00  0.00    +0.530 C 
ATOM     10  O   LIG    1       -2.496   0.324   0.006  0.00  0.00    -0.510 OA
BRANCH   9  11
ATOM     11  C   LIG    1       -1.388  -1.756   0.143  0.00  0.00    +0.010 C 
ATOM     12  C   LIG    1       -0.700  -2.214   1.450  0.00  0.00    +0.070 C 
ATOM     13  C   LIG    1       -1.482  -3.438   1.871  0.00  0.00    +0.520 C 
ATOM     14  N   LIG    1       -2.655  -3.486   1.216  0.00  0.00    -0.620 N 
ATOM     15  O   LIG    1       -1.106  -4.258   2.682  0.00  0.00    -0.520 OA
ATOM     16  C   LIG    1       -2.809  -2.339   0.314  0.00  0.00    +0.300 C 
BRANCH  14  17
ATOM     17  C   LIG    1       -3.652  -4.547   1.381  0.00  0.00    +0.340 C 
BRANCH  17  18
ATOM     18  C   LIG    1       -4.622  -4.165   2.501  0.00  0.00    -0.070 C 
ATOM     19  C   LIG    1       -4.648  -5.054   3.746  0.00  0.00    +0.020 C 
ATOM     20  C   LIG    1       -5.812  -5.095   2.752  0.00  0.00    +0.030 C 
ENDBRANCH  17  18
ENDBRANCH  14  17
ENDBRANCH   9  11
ENDBRANCH   4   7
BRANCH   1  21
ATOM     21  O   LIG    1       -0.314   5.935   0.130  0.00  0.00    -0.250 OA
BRANCH  21  26
ATOM     22  C   LIG    1        4.087   8.476   2.558  0.00  0.00    +0.090 C 
ATOM     23  C   LIG    1        2.910   7.796   1.908  0.00  0.00    -0.080 A 
ATOM     24  C   LIG    1        3.086   7.075   0.742  0.00  0.00    +0.020 A 
ATOM     25  C   LIG    1        2.008   6.451   0.144  0.00  0.00    +0.010 A 
ATOM     26  C   LIG    1        0.748   6.548   0.716  0.00  0.00    +0.090 A 
ATOM     27  C   LIG    1        0.572   7.277   1.883  0.00  0.00    +0.020 A 
ATOM     28  C   LIG    1        1.655   7.894   2.480  0.00  0.00    +0.020 A 
ENDBRANCH  21  26
ENDBRANCH   1  21
TORSDOF 6
