REMARK  Name = ZINCqH00000513xe.0
REMARK                            x       y       z     vdW  Elec       q    Type
REMARK                         _______ _______ _______ _____ _____    ______ ____
ROOT
ATOM      1  N   LIG    1        2.371   4.252   0.002  0.00  0.00    -0.670 N 
ATOM      2  H   LIG    1        3.204   3.759  -0.059  0.00  0.00    +0.410 HD
ATOM      3  C   LIG    1        1.209   3.593   0.181  0.00  0.00    +0.570 C 
ATOM      4  O   LIG    1        0.178   4.214   0.353  0.00  0.00    -0.530 OA
ENDROOT
BRANCH   3   5
ATOM      5  C   LIG    1        1.188   2.119   0.168  0.00  0.00    -0.160 A 
ATOM      6  C   LIG    1       -0.021   1.427   0.354  0.00  0.00    +0.160 A 
ATOM      7  N   LIG    1       -1.313   1.830   0.572  0.00  0.00    -0.580 N 
ATOM      8  H   LIG    1       -1.604   2.753   0.632  0.00  0.00    +0.420 HD
ATOM      9  C   LIG    1       -2.134   0.738   0.683  0.00  0.00    +0.080 A 
ATOM     10  C   LIG    1       -1.407  -0.385   0.559  0.00  0.00    -0.160 A 
ATOM     11  C   LIG    1       -1.929  -1.795   0.649  0.00  0.00    +0.100 C 
ATOM     12  C   LIG    1       -3.397  -1.822   0.215  0.00  0.00    +0.020 C 
ATOM     13  C   LIG    1       -4.290  -1.569   1.427  0.00  0.00    +0.010 C 
ATOM     14  C   LIG    1       -4.004  -0.194   2.025  0.00  0.00    +0.030 C 
ATOM     15  C   LIG    1       -3.627   0.784   0.911  0.00  0.00    +0.100 C 
ATOM     16  C   LIG    1       -0.018   0.021   0.338  0.00  0.00    -0.110 A 
ATOM     17  C   LIG    1        1.176  -0.673   0.139  0.00  0.00    +0.100 A 
ATOM     18  C   LIG    1        2.355   0.019  -0.042  0.00  0.00    -0.030 A 
ATOM     19  C   LIG    1        2.367   1.403  -0.028  0.00  0.00    +0.080 A 
ENDBRANCH   3   5
BRANCH   1  23
ATOM     20  C   LIG    1        2.384   8.406  -0.291  0.00  0.00    -0.160 A 
ATOM     21  C   LIG    1        3.460   7.743   0.305  0.00  0.00    +0.110 A 
ATOM     22  C   LIG    1        3.453   6.370   0.400  0.00  0.00    -0.010 A 
ATOM     23  C   LIG    1        2.375   5.642  -0.096  0.00  0.00    +0.180 A 
ATOM     24  C   LIG    1        1.305   6.299  -0.696  0.00  0.00    +0.010 A 
ATOM     25  C   LIG    1        1.304   7.673  -0.789  0.00  0.00    +0.070 A 
BRANCH  20  29
ATOM     26  N   LIG    1        1.351  10.517  -0.971  0.00  0.00    -0.850 N 
ATOM     27  H   LIG    1        1.354  11.484  -1.040  0.00  0.00    +0.410 HD
ATOM     28  H   LIG    1        0.601  10.009  -1.317  0.00  0.00    +0.400 HD
ATOM     29  C   LIG    1        2.389   9.879  -0.396  0.00  0.00    +0.570 C 
ATOM     30  O   LIG    1        3.330  10.515   0.037  0.00  0.00    -0.540 OA
ENDBRANCH  20  29
ENDBRANCH   1  23
TORSDOF 3
