REMARK  Name = ZINCrD000000CMlS.0
REMARK                            x       y       z     vdW  Elec       q    Type
REMARK                         _______ _______ _______ _____ _____    ______ ____
ROOT
ATOM      1  C   LIG    1        2.421   3.933  -0.002  0.00  0.00    +0.560 C 
ATOM      2  N   LIG    1        3.596   3.274  -0.021  0.00  0.00    -0.720 N 
ATOM      3  H   LIG    1        3.609   2.304  -0.026  0.00  0.00    +0.400 HD
ATOM      4  O   LIG    1        2.406   5.149   0.005  0.00  0.00    -0.530 OA
ENDROOT
BRANCH   1  13
ATOM      5  O   LIG    1       -4.533   3.922   0.871  0.00  0.00    -0.520 OA
ATOM      6  C   LIG    1       -3.408   3.481   0.972  0.00  0.00    +0.530 C 
ATOM      7  C   LIG    1       -3.074   2.564   2.111  0.00  0.00    +0.060 C 
ATOM      8  C   LIG    1       -3.347   1.101   1.723  0.00  0.00    +0.140 C 
ATOM      9  S   LIG    1       -2.747   0.865   0.017  0.00  0.00    -0.130 S 
ATOM     10  C   LIG    1       -1.224   1.755   0.017  0.00  0.00    -0.110 A 
ATOM     11  C   LIG    1       -0.013   1.076   0.008  0.00  0.00    +0.100 A 
ATOM     12  C   LIG    1        1.171   1.782   0.001  0.00  0.00    +0.040 A 
ATOM     13  C   LIG    1        1.153   3.180   0.009  0.00  0.00    -0.090 A 
ATOM     14  C   LIG    1       -0.067   3.864   0.028  0.00  0.00    +0.070 A 
ATOM     15  C   LIG    1       -1.249   3.151   0.037  0.00  0.00    +0.170 A 
ATOM     16  N   LIG    1       -2.483   3.821   0.065  0.00  0.00    -0.670 N 
ATOM     17  H   LIG    1       -2.667   4.528  -0.573  0.00  0.00    +0.420 HD
ENDBRANCH   1  13
BRANCH   2  18
ATOM     18  C   LIG    1        4.856   4.022  -0.032  0.00  0.00    +0.260 C 
BRANCH  18  19
ATOM     19  C   LIG    1        6.031   3.043  -0.052  0.00  0.00    +0.020 C 
BRANCH  19  20
ATOM     20  C   LIG    1        7.346   3.825  -0.063  0.00  0.00    +0.200 C 
BRANCH  20  21
ATOM     21  N   LIG    1        8.475   2.884  -0.083  0.00  0.00    -0.490 N 
ATOM     22  C   LIG    1        9.749   3.591  -0.334  0.00  0.00    +0.230 C 
ATOM     23  C   LIG    1       10.286   3.838   1.095  0.00  0.00    +0.060 C 
ATOM     24  C   LIG    1        9.636   2.727   1.895  0.00  0.00    -0.140 A 
ATOM     25  C   LIG    1        9.919   2.212   3.143  0.00  0.00    +0.030 A 
ATOM     26  C   LIG    1        9.162   1.172   3.651  0.00  0.00    +0.000 A 
ATOM     27  C   LIG    1        8.121   0.649   2.907  0.00  0.00    +0.020 A 
ATOM     28  C   LIG    1        7.832   1.163   1.659  0.00  0.00    +0.010 A 
ATOM     29  C   LIG    1        8.589   2.212   1.141  0.00  0.00    +0.090 A 
ENDBRANCH  20  21
ENDBRANCH  19  20
ENDBRANCH  18  19
ENDBRANCH   2  18
TORSDOF 5
