REMARK  Name = ZINCrD0000074it0.0
REMARK                            x       y       z     vdW  Elec       q    Type
REMARK                         _______ _______ _______ _____ _____    ______ ____
ROOT
ATOM      1  C   LIG    1        4.717   3.215  -0.923  0.00  0.00    +0.050 C 
ATOM      2  C   LIG    1        4.512   2.536   0.433  0.00  0.00    +0.330 C 
ATOM      3  C   LIG    1        3.035   2.322   0.683  0.00  0.00    +0.070 A 
ATOM      4  C   LIG    1        2.443   1.113   0.639  0.00  0.00    -0.160 A 
ATOM      5  C   LIG    1        1.025   1.315   0.922  0.00  0.00    -0.100 A 
ATOM      6  C   LIG    1       -0.082   0.468   1.014  0.00  0.00    +0.050 A 
ATOM      7  C   LIG    1       -1.313   0.987   1.300  0.00  0.00    -0.030 A 
ATOM      8  C   LIG    1       -1.473   2.350   1.510  0.00  0.00    +0.030 A 
ATOM      9  C   LIG    1       -0.396   3.204   1.423  0.00  0.00    -0.010 A 
ATOM     10  C   LIG    1        0.866   2.699   1.127  0.00  0.00    +0.100 A 
ATOM     11  C   LIG    1        3.150  -0.187   0.355  0.00  0.00    +0.110 C 
ATOM     12  C   LIG    1        4.502   0.117  -0.302  0.00  0.00    +0.290 C 
ATOM     13  N   LIG    1        2.107   3.280   0.975  0.00  0.00    -0.580 N 
ATOM     14  H   LIG    1        2.292   4.228   1.062  0.00  0.00    +0.420 HD
ATOM     15  N   LIG    1        5.155   1.211   0.433  0.00  0.00    -0.580 N 
ATOM     16  C   LIG    1        6.314   1.006   1.090  0.00  0.00    +0.590 C 
ATOM     17  O   LIG    1        6.768  -0.118   1.185  0.00  0.00    -0.520 OA
ENDROOT
BRANCH  16  18
ATOM     18  C   LIG    1        7.032   2.147   1.695  0.00  0.00    -0.000 A 
ATOM     19  C   LIG    1        8.146   1.922   2.514  0.00  0.00    +0.130 A 
ATOM     20  C   LIG    1        8.789   3.021   3.054  0.00  0.00    +0.030 A 
ATOM     21  C   LIG    1        8.281   4.287   2.759  0.00  0.00    +0.270 A 
ATOM     22  N   LIG    1        7.215   4.408   1.976  0.00  0.00    -0.280 NA
ATOM     23  N   LIG    1        6.620   3.389   1.469  0.00  0.00    -0.190 NA
BRANCH  21  24
ATOM     24  N   LIG    1        8.889   5.417   3.282  0.00  0.00    -0.460 N 
ATOM     25  C   LIG    1       10.284   5.547   2.791  0.00  0.00    +0.200 C 
ATOM     26  C   LIG    1       10.602   7.046   3.018  0.00  0.00    +0.040 C 
ATOM     27  C   LIG    1        9.262   7.739   2.679  0.00  0.00    +0.020 C 
ATOM     28  C   LIG    1        8.191   6.645   2.844  0.00  0.00    +0.200 C 
ENDBRANCH  21  24
ENDBRANCH  16  18
TORSDOF 2
