REMARK  Name = ZINCqH0000003J4y.0
REMARK                            x       y       z     vdW  Elec       q    Type
REMARK                         _______ _______ _______ _____ _____    ______ ____
ROOT
ATOM      1  C   LIG    1       -3.622   2.093   0.156  0.00  0.00    -0.020 C 
ATOM      2  C   LIG    1       -3.434   2.957   1.407  0.00  0.00    +0.010 C 
ATOM      3  C   LIG    1       -3.448   2.054   2.646  0.00  0.00    +0.210 C 
ATOM      4  O   LIG    1       -4.675   1.323   2.689  0.00  0.00    -0.380 OA
ATOM      5  C   LIG    1       -4.882   0.463   1.566  0.00  0.00    +0.210 C 
ATOM      6  C   LIG    1       -4.927   1.301   0.285  0.00  0.00    +0.020 C 
ENDROOT
BRANCH   1  10
ATOM      7  C   LIG    1       -3.808   4.602  -3.298  0.00  0.00    +0.130 A 
ATOM      8  C   LIG    1       -4.027   3.237  -3.418  0.00  0.00    -0.020 A 
ATOM      9  C   LIG    1       -3.967   2.428  -2.300  0.00  0.00    +0.060 A 
ATOM     10  C   LIG    1       -3.688   2.978  -1.062  0.00  0.00    -0.110 A 
ATOM     11  C   LIG    1       -3.475   4.338  -0.939  0.00  0.00    +0.050 A 
ATOM     12  C   LIG    1       -3.529   5.151  -2.055  0.00  0.00    -0.080 A 
BRANCH   7  13
ATOM     13  O   LIG    1       -3.867   5.399  -4.397  0.00  0.00    -0.320 OA
BRANCH  13  15
ATOM     14  C   LIG    1       -3.738   7.525  -5.539  0.00  0.00    +0.070 C 
ATOM     15  C   LIG    1       -3.631   6.795  -4.199  0.00  0.00    +0.170 C 
ENDBRANCH  13  15
ENDBRANCH   7  13
ENDBRANCH   1  10
BRANCH   1  16
ATOM     16  C   LIG    1       -2.446   1.124   0.022  0.00  0.00    +0.280 C 
BRANCH  16  17
ATOM     17  N   LIG    1       -1.203   1.883  -0.134  0.00  0.00    -0.720 N 
ATOM     18  H   LIG    1       -1.231   2.850  -0.210  0.00  0.00    +0.400 HD
ATOM     19  C   LIG    1       -0.020   1.239  -0.171  0.00  0.00    +0.590 C 
ATOM     20  O   LIG    1        0.016   0.027  -0.075  0.00  0.00    -0.540 OA
BRANCH  19  21
ATOM     21  C   LIG    1        1.230   2.003  -0.334  0.00  0.00    -0.250 A 
ATOM     22  C   LIG    1        2.499   1.505  -0.390  0.00  0.00    +0.080 A 
ATOM     23  O   LIG    1        3.347   2.527  -0.547  0.00  0.00    -0.170 OA
ATOM     24  C   LIG    1        2.686   3.695  -0.589  0.00  0.00    -0.010 A 
ATOM     25  C   LIG    1        3.321   5.052  -0.749  0.00  0.00    +0.170 C 
ATOM     26  C   LIG    1        2.881   0.050  -0.295  0.00  0.00    +0.200 C 
ATOM     27  C   LIG    1        1.371   3.460  -0.464  0.00  0.00    -0.040 A 
ENDBRANCH  19  21
ENDBRANCH  16  17
ENDBRANCH   1  16
TORSDOF 6
