REMARK  Name = ZINCpe000027pHvo.0
REMARK                            x       y       z     vdW  Elec       q    Type
REMARK                         _______ _______ _______ _____ _____    ______ ____
ROOT
ATOM      1  C   LIG    1       -0.571  -3.707  -0.011  0.00  0.00    +0.560 C 
ATOM      2  N   LIG    1       -0.088  -2.541   0.462  0.00  0.00    -0.620 N 
ATOM      3  C   LIG    1        1.317  -2.122   0.524  0.00  0.00    +0.350 C 
ATOM      4  C   LIG    1        1.345  -0.737   1.133  0.00  0.00    -0.160 C 
ATOM      5  C   LIG    1        0.134  -0.348   1.410  0.00  0.00    -0.170 C 
ATOM      6  C   LIG    1        0.162   1.037   2.018  0.00  0.00    +0.350 C 
ATOM      7  N   LIG    1        1.567   1.457   2.080  0.00  0.00    -0.620 N 
ATOM      8  C   LIG    1        2.049   2.624   2.552  0.00  0.00    +0.580 C 
ATOM      9  O   LIG    1        1.287   3.465   2.989  0.00  0.00    -0.530 OA
ATOM     10  C   LIG    1        2.335   0.340   1.521  0.00  0.00    +0.340 C 
ATOM     11  C   LIG    1       -0.857  -1.424   1.022  0.00  0.00    +0.340 C 
ATOM     12  O   LIG    1        0.189  -4.546  -0.448  0.00  0.00    -0.500 OA
ENDROOT
BRANCH   1  18
ATOM     13  C   LIG    1       -1.791  -4.399  -2.408  0.00  0.00    +0.530 C 
ATOM     14  N   LIG    1       -2.448  -4.610  -1.250  0.00  0.00    -0.610 N 
ATOM     15  C   LIG    1       -3.614  -5.501  -1.155  0.00  0.00    +0.360 C 
ATOM     16  S   LIG    1       -4.042  -5.531   0.630  0.00  0.00    -0.240 S 
ATOM     17  C   LIG    1       -2.404  -4.904   1.194  0.00  0.00    +0.170 C 
ATOM     18  C   LIG    1       -2.055  -3.970   0.003  0.00  0.00    +0.230 C 
ATOM     19  O   LIG    1       -0.791  -3.714  -2.422  0.00  0.00    -0.500 OA
BRANCH  13  21
ATOM     20  C   LIG    1       -1.380  -4.624  -4.843  0.00  0.00    +0.050 C 
ATOM     21  C   LIG    1       -2.300  -5.016  -3.686  0.00  0.00    +0.060 C 
ENDBRANCH  13  21
ENDBRANCH   1  18
BRANCH   8  22
ATOM     22  C   LIG    1        3.498   2.880   2.538  0.00  0.00    -0.060 C 
ATOM     23  C   LIG    1        3.974   4.031   3.004  0.00  0.00    +0.040 C 
BRANCH  23  24
ATOM     24  C   LIG    1        5.458   4.293   2.990  0.00  0.00    +0.280 C 
ATOM     25  F   LIG    1        5.714   5.489   2.309  0.00  0.00    -0.210 F 
ENDBRANCH  23  24
ENDBRANCH   8  22
TORSDOF 4
