REMARK  Name = ZINCnE000001PLwo.0
REMARK                            x       y       z     vdW  Elec       q    Type
REMARK                         _______ _______ _______ _____ _____    ______ ____
ROOT
ATOM      1  C   LIG    1       -1.333   2.109   0.020  0.00  0.00    +0.080 C 
ATOM      2  C   LIG    1       -0.017   1.376   0.010  0.00  0.00    -0.150 A 
ATOM      3  C   LIG    1        1.169   2.089   0.002  0.00  0.00    +0.050 A 
ATOM      4  C   LIG    1        2.382   1.426  -0.013  0.00  0.00    -0.080 A 
ATOM      5  C   LIG    1        2.415   0.041  -0.021  0.00  0.00    +0.160 A 
ATOM      6  C   LIG    1        1.218  -0.682  -0.013  0.00  0.00    -0.100 A 
ATOM      7  C   LIG    1        0.002  -0.004   0.002  0.00  0.00    +0.070 A 
ENDROOT
BRANCH   6   8
ATOM      8  C   LIG    1        1.244  -2.165  -0.022  0.00  0.00    -0.060 A 
ATOM      9  C   LIG    1        0.737  -2.867  -1.113  0.00  0.00    +0.050 A 
ATOM     10  C   LIG    1        0.763  -4.247  -1.116  0.00  0.00    +0.010 A 
ATOM     11  C   LIG    1        1.292  -4.935  -0.039  0.00  0.00    -0.090 A 
ATOM     12  C   LIG    1        1.797  -4.245   1.048  0.00  0.00    -0.010 A 
ATOM     13  C   LIG    1        1.782  -2.863   1.061  0.00  0.00    +0.130 A 
ATOM     14  F   LIG    1        2.281  -2.190   2.120  0.00  0.00    -0.130 F 
BRANCH  11  15
ATOM     15  C   LIG    1        1.317  -6.442  -0.049  0.00  0.00    +0.170 C 
ATOM     16  C   LIG    1        0.024  -6.977   0.569  0.00  0.00    +0.060 C 
ATOM     17  C   LIG    1        2.514  -6.938   0.763  0.00  0.00    +0.030 C 
BRANCH  15  18
ATOM     18  O   LIG    1        1.429  -6.907  -1.396  0.00  0.00    -0.560 OA
ATOM     19  H   LIG    1        2.227  -6.605  -1.851  0.00  0.00    +0.380 HD
ENDBRANCH  15  18
ENDBRANCH  11  15
ENDBRANCH   6   8
BRANCH   5  20
ATOM     20  O   LIG    1        3.606  -0.612  -0.036  0.00  0.00    -0.270 OA
BRANCH  20  21
ATOM     21  C   LIG    1        4.787   0.192  -0.043  0.00  0.00    +0.110 C 
BRANCH  21  22
ATOM     22  C   LIG    1        6.002  -0.699  -0.060  0.00  0.00    +0.500 C 
ATOM     23  O   LIG    1        7.118  -0.208  -0.068  0.00  0.00    -0.690 OA
ATOM     24  O   LIG    1        5.869  -1.911  -0.066  0.00  0.00    -0.670 OA
ENDBRANCH  21  22
ENDBRANCH  20  21
ENDBRANCH   5  20
TORSDOF 6
