REMARK  Name = ZINCtV00000L6lcW.0
REMARK                            x       y       z     vdW  Elec       q    Type
REMARK                         _______ _______ _______ _____ _____    ______ ____
ROOT
ATOM      1  C   LIG    1        2.102   0.426   0.881  0.00  0.00    +0.040 A 
ATOM      2  C   LIG    1        1.386   1.594   1.025  0.00  0.00    -0.040 A 
ATOM      3  C   LIG    1        0.038   1.246   1.209  0.00  0.00    +0.140 A 
ATOM      4  N   LIG    1       -0.062  -0.069   1.178  0.00  0.00    -0.240 NA
ATOM      5  N   LIG    1        1.212  -0.612   0.975  0.00  0.00    -0.280 N 
ENDROOT
BRANCH   5   6
ATOM      6  C   LIG    1        1.523  -1.973   0.882  0.00  0.00    +0.130 A 
ATOM      7  C   LIG    1        2.355  -2.430  -0.131  0.00  0.00    +0.050 A 
ATOM      8  C   LIG    1        2.663  -3.774  -0.216  0.00  0.00    +0.020 A 
ATOM      9  C   LIG    1        2.135  -4.665   0.700  0.00  0.00    +0.020 A 
ATOM     10  C   LIG    1        1.302  -4.214   1.707  0.00  0.00    +0.020 A 
ATOM     11  C   LIG    1        0.994  -2.871   1.801  0.00  0.00    +0.030 A 
ENDBRANCH   5   6
BRANCH   3  12
ATOM     12  C   LIG    1       -1.082   2.194   1.398  0.00  0.00    -0.130 A 
ATOM     13  C   LIG    1       -2.374   1.849   1.563  0.00  0.00    +0.050 A 
ATOM     14  C   LIG    1       -3.239   2.913   1.725  0.00  0.00    +0.010 A 
ATOM     15  C   LIG    1       -2.666   4.119   1.685  0.00  0.00    -0.030 A 
ATOM     16  S   LIG    1       -0.933   3.946   1.436  0.00  0.00    +0.140 S 
ENDBRANCH   3  12
BRANCH   1  19
ATOM     17  C   LIG    1        3.683   2.746   0.610  0.00  0.00    +0.290 C 
ATOM     18  N   LIG    1        4.292   1.422   0.460  0.00  0.00    -0.590 N 
ATOM     19  C   LIG    1        3.554   0.314   0.667  0.00  0.00    +0.580 C 
ATOM     20  O   LIG    1        4.087  -0.779   0.675  0.00  0.00    -0.510 OA
BRANCH  18  21
ATOM     21  C   LIG    1        5.704   1.303   0.087  0.00  0.00    +0.370 C 
BRANCH  21  22
ATOM     22  C   LIG    1        5.823   1.249  -1.414  0.00  0.00    -0.100 A 
ATOM     23  C   LIG    1        5.792   0.031  -2.067  0.00  0.00    +0.060 A 
ATOM     24  C   LIG    1        5.896  -0.019  -3.444  0.00  0.00    +0.040 A 
ATOM     25  C   LIG    1        6.043   1.149  -4.170  0.00  0.00    -0.030 A 
ATOM     26  C   LIG    1        6.079   2.369  -3.516  0.00  0.00    -0.030 A 
ATOM     27 CL   LIG    1        6.263   3.837  -4.425  0.00  0.00    -0.040 Cl
ATOM     28 CL   LIG    1        6.181   1.086  -5.899  0.00  0.00    -0.040 Cl
ATOM     29  C   LIG    1        5.970   2.418  -2.138  0.00  0.00    +0.060 A 
ENDBRANCH  21  22
ENDBRANCH  18  21
ENDBRANCH   1  19
TORSDOF 5
