REMARK  Name = ZINCvU0000000Ao2.0
REMARK                            x       y       z     vdW  Elec       q    Type
REMARK                         _______ _______ _______ _____ _____    ______ ____
ROOT
ATOM      1  C   LIG    1        0.733   0.769   0.059  0.00  0.00    +0.150 C 
ATOM      2  C   LIG    1       -0.185   1.343   1.107  0.00  0.00    +0.020 A 
ATOM      3  C   LIG    1        0.137   1.620   2.393  0.00  0.00    +0.000 A 
ATOM      4  C   LIG    1       -1.044   2.138   2.976  0.00  0.00    +0.000 A 
ATOM      5  N   LIG    1       -1.971   2.141   2.039  0.00  0.00    -0.250 NA
ATOM      6  N   LIG    1       -1.489   1.686   0.939  0.00  0.00    -0.240 N 
ENDROOT
BRANCH   6   7
ATOM      7  C   LIG    1       -2.204   1.558  -0.260  0.00  0.00    +0.130 A 
ATOM      8  C   LIG    1       -2.074   0.410  -1.029  0.00  0.00    +0.070 A 
ATOM      9  C   LIG    1       -2.780   0.287  -2.209  0.00  0.00    +0.050 A 
ATOM     10  C   LIG    1       -3.617   1.306  -2.625  0.00  0.00    +0.090 A 
ATOM     11  C   LIG    1       -3.749   2.452  -1.861  0.00  0.00    -0.170 A 
ATOM     12  C   LIG    1       -3.049   2.578  -0.677  0.00  0.00    +0.100 A 
BRANCH  11  13
ATOM     13  C   LIG    1       -4.663   3.560  -2.317  0.00  0.00    +0.510 C 
ATOM     14  F   LIG    1       -3.921   4.733  -2.492  0.00  0.00    -0.170 F 
ATOM     15  F   LIG    1       -5.654   3.773  -1.353  0.00  0.00    -0.170 F 
ATOM     16  F   LIG    1       -5.261   3.201  -3.530  0.00  0.00    -0.170 F 
ENDBRANCH  11  13
ENDBRANCH   6   7
BRANCH   4  17
ATOM     17  C   LIG    1       -1.206   2.591   4.372  0.00  0.00    +0.610 C 
ATOM     18  N   LIG    1       -2.418   2.977   4.819  0.00  0.00    -0.600 N 
ATOM     19  C   LIG    1       -3.589   2.866   3.946  0.00  0.00    +0.310 C 
ATOM     20  O   LIG    1       -0.247   2.615   5.119  0.00  0.00    -0.520 OA
BRANCH  18  21
ATOM     21  C   LIG    1       -2.563   3.506   6.177  0.00  0.00    +0.480 C 
BRANCH  21  22
ATOM     22  C   LIG    1       -3.517   2.637   6.956  0.00  0.00    -0.030 A 
ATOM     23  C   LIG    1       -3.379   2.276   8.244  0.00  0.00    -0.030 A 
ATOM     24  C   LIG    1       -4.493   1.466   8.564  0.00  0.00    -0.060 A 
ATOM     25  C   LIG    1       -5.245   1.380   7.452  0.00  0.00    +0.170 A 
ATOM     26  O   LIG    1       -4.652   2.096   6.482  0.00  0.00    -0.160 OA
ENDBRANCH  21  22
BRANCH  21  27
ATOM     27  C   LIG    1       -3.103   4.912   6.113  0.00  0.00    -0.030 A 
ATOM     28  C   LIG    1       -2.712   5.940   6.887  0.00  0.00    -0.030 A 
ATOM     29  C   LIG    1       -3.474   7.064   6.490  0.00  0.00    -0.060 A 
ATOM     30  C   LIG    1       -4.284   6.654   5.498  0.00  0.00    +0.170 A 
ATOM     31  O   LIG    1       -4.051   5.351   5.270  0.00  0.00    -0.170 OA
ENDBRANCH  21  27
ENDBRANCH  18  21
ENDBRANCH   4  17
TORSDOF 6
