REMARK  Name = ZINCrD000000AxNt.0
REMARK                            x       y       z     vdW  Elec       q    Type
REMARK                         _______ _______ _______ _____ _____    ______ ____
ROOT
ATOM      1  O   LIG    1       -0.985   2.222  -3.268  0.00  0.00    -0.520 OA
ATOM      2  C   LIG    1       -0.269   1.798  -2.386  0.00  0.00    +0.530 C 
ATOM      3  N   LIG    1       -0.768   1.595  -1.151  0.00  0.00    -0.610 N 
ATOM      4  C   LIG    1       -0.013   1.086   0.008  0.00  0.00    +0.260 C 
ATOM      5  C   LIG    1       -0.783   1.608   1.247  0.00  0.00    +0.040 C 
ATOM      6  C   LIG    1       -2.256   1.496   0.763  0.00  0.00    +0.060 C 
ATOM      7  C   LIG    1       -2.156   1.845  -0.736  0.00  0.00    +0.320 C 
ENDROOT
BRANCH   7   8
ATOM      8  C   LIG    1       -3.093   0.972  -1.530  0.00  0.00    +0.170 A 
ATOM      9  N   LIG    1       -2.939  -0.301  -1.786  0.00  0.00    -0.280 NA
ATOM     10  N   LIG    1       -3.933  -0.727  -2.483  0.00  0.00    -0.290 NA
ATOM     11  C   LIG    1       -4.766   0.252  -2.699  0.00  0.00    +0.180 A 
ATOM     12  C   LIG    1       -6.070   0.188  -3.450  0.00  0.00    +0.150 C 
ATOM     13  C   LIG    1       -6.156   1.371  -4.410  0.00  0.00    +0.020 C 
ATOM     14  C   LIG    1       -6.767   2.573  -3.697  0.00  0.00    +0.020 C 
ATOM     15  C   LIG    1       -6.364   2.582  -2.223  0.00  0.00    +0.030 C 
ATOM     16  C   LIG    1       -4.842   2.695  -2.104  0.00  0.00    +0.280 C 
ATOM     17  N   LIG    1       -4.255   1.355  -2.104  0.00  0.00    -0.460 N 
ENDBRANCH   7   8
BRANCH   2  18
ATOM     18  C   LIG    1        1.181   1.498  -2.672  0.00  0.00    +0.140 C 
BRANCH  18  19
ATOM     19  C   LIG    1        1.483   1.809  -4.115  0.00  0.00    -0.160 A 
ATOM     20  C   LIG    1        1.470   0.940  -5.138  0.00  0.00    +0.240 A 
ATOM     21  N   LIG    1        1.795   1.584  -6.301  0.00  0.00    -0.590 N 
ATOM     22  H   LIG    1        1.851   1.164  -7.174  0.00  0.00    +0.420 HD
ATOM     23  C   LIG    1        2.031   2.916  -6.048  0.00  0.00    +0.100 A 
ATOM     24  C   LIG    1        2.387   3.995  -6.851  0.00  0.00    -0.010 A 
ATOM     25  C   LIG    1        2.540   5.244  -6.290  0.00  0.00    +0.020 A 
ATOM     26  C   LIG    1        2.354   5.436  -4.928  0.00  0.00    -0.030 A 
ATOM     27  C   LIG    1        2.008   4.390  -4.120  0.00  0.00    +0.050 A 
ATOM     28  C   LIG    1        1.840   3.117  -4.669  0.00  0.00    -0.090 A 
ENDBRANCH  18  19
ENDBRANCH   2  18
TORSDOF 3
