REMARK  Name = ZINCpk00000kV8eh.0
REMARK                            x       y       z     vdW  Elec       q    Type
REMARK                         _______ _______ _______ _____ _____    ______ ____
ROOT
ATOM      1  C   LIG    1        1.263  -0.699  -0.267  0.00  0.00    +0.220 C 
ATOM      2  C   LIG    1        1.185  -2.228  -0.211  0.00  0.00    +0.020 C 
ATOM      3  C   LIG    1        2.595  -2.802  -0.053  0.00  0.00    +0.020 C 
ATOM      4  C   LIG    1        3.208  -2.301   1.257  0.00  0.00    +0.010 C 
ATOM      5  C   LIG    1        3.309  -0.773   1.218  0.00  0.00    +0.280 C 
ATOM      6  N   LIG    1        1.981  -0.219   0.922  0.00  0.00    -0.610 N 
ATOM      7  C   LIG    1        1.431   0.713   1.726  0.00  0.00    +0.520 C 
ATOM      8  O   LIG    1        0.382   1.237   1.418  0.00  0.00    -0.520 OA
ENDROOT
BRANCH   1   9
ATOM      9  C   LIG    1       -0.150  -0.113  -0.284  0.00  0.00    +0.310 C 
BRANCH   9  11
ATOM     10  C   LIG    1       -2.183  -0.333  -1.609  0.00  0.00    +0.590 C 
ATOM     11  N   LIG    1       -0.878  -0.630  -1.446  0.00  0.00    -0.720 N 
ATOM     12  H   LIG    1       -0.423  -1.189  -2.095  0.00  0.00    +0.400 HD
ATOM     13  O   LIG    1       -2.732   0.437  -0.845  0.00  0.00    -0.530 OA
BRANCH  10  19
ATOM     14  C   LIG    1       -5.114   0.282  -2.385  0.00  0.00    +0.380 C 
ATOM     15  N   LIG    1       -4.236  -0.675  -3.062  0.00  0.00    -0.260 N 
ATOM     16  N   LIG    1       -4.564  -1.390  -4.078  0.00  0.00    -0.280 NA
ATOM     17  C   LIG    1       -3.570  -2.152  -4.455  0.00  0.00    +0.190 A 
ATOM     18  C   LIG    1       -2.491  -1.901  -3.603  0.00  0.00    -0.030 A 
ATOM     19  C   LIG    1       -2.943  -0.941  -2.713  0.00  0.00    -0.040 A 
ENDBRANCH  10  19
ENDBRANCH   9  11
ENDBRANCH   1   9
BRANCH   7  20
ATOM     20  C   LIG    1        2.121   1.104   3.008  0.00  0.00    +0.040 C 
BRANCH  20  21
ATOM     21  C   LIG    1        1.294   2.171   3.727  0.00  0.00    +0.320 C 
BRANCH  21  22
ATOM     22  N   LIG    1        1.965   2.551   4.973  0.00  0.00    -0.450 N 
ATOM     23  C   LIG    1        1.770   1.968   6.190  0.00  0.00    +0.140 A 
ATOM     24  C   LIG    1        2.565   2.587   7.086  0.00  0.00    -0.070 A 
ATOM     25  C   LIG    1        3.269   3.595   6.399  0.00  0.00    -0.070 A 
ATOM     26  C   LIG    1        2.882   3.550   5.108  0.00  0.00    +0.140 A 
ENDBRANCH  21  22
ENDBRANCH  20  21
ENDBRANCH   7  20
TORSDOF 6
