REMARK  Name = ZINCnE000001TyDK.0
REMARK                            x       y       z     vdW  Elec       q    Type
REMARK                         _______ _______ _______ _____ _____    ______ ____
ROOT
ATOM      1  C   LIG    1       -0.725   1.586   1.267  0.00  0.00    -0.030 C 
ATOM      2  C   LIG    1       -2.202   1.178   1.207  0.00  0.00    +0.010 C 
ATOM      3  C   LIG    1       -2.863   1.822  -0.014  0.00  0.00    +0.010 C 
ATOM      4  C   LIG    1       -2.172   1.322  -1.287  0.00  0.00    +0.250 C 
ATOM      5  N   LIG    1       -0.730   1.581  -1.175  0.00  0.00    -0.610 N 
ATOM      6  C   LIG    1       -0.078   2.260  -2.139  0.00  0.00    +0.520 C 
ATOM      7  O   LIG    1        1.090   2.552  -1.990  0.00  0.00    -0.540 OA
ATOM      8  C   LIG    1       -0.013   1.083   0.007  0.00  0.00    +0.270 C 
ENDROOT
BRANCH   6   9
ATOM      9  C   LIG    1       -0.799   2.658  -3.401  0.00  0.00    +0.000 C 
ATOM     10  C   LIG    1        0.169   2.594  -4.584  0.00  0.00    +0.040 C 
ATOM     11  C   LIG    1       -0.563   2.998  -5.865  0.00  0.00    +0.040 C 
ATOM     12  C   LIG    1       -1.097   4.424  -5.719  0.00  0.00    +0.040 C 
ATOM     13  C   LIG    1       -2.065   4.488  -4.537  0.00  0.00    -0.010 C 
ATOM     14  C   LIG    1       -1.333   4.085  -3.255  0.00  0.00    +0.060 C 
BRANCH  13  15
ATOM     15  C   LIG    1       -2.599   5.915  -4.391  0.00  0.00    +0.450 C 
ATOM     16  F   LIG    1       -1.532   6.791  -4.168  0.00  0.00    -0.180 F 
ATOM     17  F   LIG    1       -3.485   5.973  -3.310  0.00  0.00    -0.180 F 
ATOM     18  F   LIG    1       -3.269   6.284  -5.563  0.00  0.00    -0.180 F 
ENDBRANCH  13  15
ENDBRANCH   6   9
BRANCH   1  19
ATOM     19  C   LIG    1       -0.070   0.968   2.504  0.00  0.00    +0.030 C 
BRANCH  19  20
ATOM     20  C   LIG    1       -0.698   1.565   3.765  0.00  0.00    -0.070 C 
BRANCH  20  22
ATOM     21  O   LIG    1        0.828   0.123   4.855  0.00  0.00    -0.700 OA
ATOM     22  C   LIG    1       -0.052   0.957   4.983  0.00  0.00    +0.490 C 
ATOM     23  O   LIG    1       -0.411   1.298   6.098  0.00  0.00    -0.710 OA
ENDBRANCH  20  22
ENDBRANCH  19  20
ENDBRANCH   1  19
TORSDOF 5
