REMARK  Name = ZINCrD0000075sep.0
REMARK                            x       y       z     vdW  Elec       q    Type
REMARK                         _______ _______ _______ _____ _____    ______ ____
ROOT
ATOM      1  C   LIG    1       -2.071  -3.013   0.006  0.00  0.00    +0.560 C 
ATOM      2  O   LIG    1       -3.201  -2.563   0.019  0.00  0.00    -0.480 OA
ENDROOT
BRANCH   1   3
ATOM      3  C   LIG    1       -1.860  -4.461  -0.004  0.00  0.00    -0.050 A 
ATOM      4  C   LIG    1       -2.847  -5.423   0.006  0.00  0.00    +0.080 A 
ATOM      5  C   LIG    1       -2.201  -6.663  -0.012  0.00  0.00    -0.010 A 
ATOM      6  C   LIG    1       -0.858  -6.417  -0.023  0.00  0.00    +0.060 A 
ATOM      7  O   LIG    1       -0.664  -5.087  -0.018  0.00  0.00    -0.140 OA
BRANCH   6   8
ATOM      8  C   LIG    1        0.205  -7.442  -0.038  0.00  0.00    +0.030 A 
ATOM      9  C   LIG    1       -0.128  -8.798  -0.035  0.00  0.00    +0.070 A 
ATOM     10  C   LIG    1        0.870  -9.750  -0.054  0.00  0.00    +0.110 A 
ATOM     11  C   LIG    1        2.199  -9.364  -0.064  0.00  0.00    -0.040 A 
ATOM     12  C   LIG    1        2.536  -8.022  -0.062  0.00  0.00    +0.110 A 
ATOM     13  C   LIG    1        1.548  -7.059  -0.049  0.00  0.00    +0.060 A 
BRANCH  11  14
ATOM     14  N   LIG    1        3.264 -10.391  -0.078  0.00  0.00    +0.020 N 
ATOM     15  O   LIG    1        2.971 -11.573  -0.080  0.00  0.00    -0.150 OA
ATOM     16  O   LIG    1        4.435 -10.054  -0.087  0.00  0.00    -0.150 OA
ENDBRANCH  11  14
ENDBRANCH   6   8
ENDBRANCH   1   3
BRANCH   1  17
ATOM     17  O   LIG    1       -1.012  -2.176   0.000  0.00  0.00    -0.320 OA
BRANCH  17  18
ATOM     18  C   LIG    1       -1.293  -0.775   0.010  0.00  0.00    +0.270 C 
BRANCH  18  20
ATOM     19  O   LIG    1        1.060  -0.596  -0.011  0.00  0.00    -0.510 OA
ATOM     20  C   LIG    1        0.002  -0.004   0.002  0.00  0.00    +0.520 C 
ATOM     21  N   LIG    1       -0.016   1.344   0.009  0.00  0.00    -0.720 N 
ATOM     22  H   LIG    1       -0.863   1.817   0.016  0.00  0.00    +0.410 HD
BRANCH  21  23
ATOM     23  C   LIG    1        1.242   2.093   0.001  0.00  0.00    +0.370 C 
BRANCH  23  24
ATOM     24  C   LIG    1        0.947   3.571   0.012  0.00  0.00    -0.220 A 
ATOM     25  C   LIG    1        0.807   4.319   1.108  0.00  0.00    +0.030 A 
ATOM     26  C   LIG    1        0.538   5.656   0.870  0.00  0.00    +0.000 A 
ATOM     27  C   LIG    1        0.460   5.994  -0.418  0.00  0.00    -0.030 A 
ATOM     28  S   LIG    1        0.742   4.574  -1.418  0.00  0.00    +0.120 S 
ENDBRANCH  23  24
ENDBRANCH  21  23
ENDBRANCH  18  20
ENDBRANCH  17  18
ENDBRANCH   1  17
TORSDOF 8
