REMARK  Name = ZINCrD00000F5LHv.0
REMARK                            x       y       z     vdW  Elec       q    Type
REMARK                         _______ _______ _______ _____ _____    ______ ____
ROOT
ATOM      1  CA  LIG    1        0.010   1.073   2.407  0.00  0.00    +0.080 C 
ENDROOT
BRANCH   1   3
ATOM      2  O   LIG    1       -0.672  -1.040   1.592  0.00  0.00    -0.670 OA
ATOM      3  C   LIG    1       -0.075  -0.431   2.463  0.00  0.00    +0.490 C 
ATOM      4  OXT LIG    1        0.453  -1.037   3.379  0.00  0.00    -0.630 OA
ENDBRANCH   1   3
BRANCH   1   5
ATOM      5  N   LIG    1       -0.700   1.560   1.217  0.00  0.00    -0.480 N 
ATOM      6  H1  LIG    1       -1.647   1.210   1.224  0.00  0.00    +0.430 HD
ATOM      7  H2  LIG    1       -0.714   2.568   1.222  0.00  0.00    +0.400 HD
BRANCH   5   8
ATOM      8  C   LIG    1       -0.013   1.086   0.008  0.00  0.00    +0.310 C 
BRANCH   8   9
ATOM      9  C   LIG    1       -0.742   1.585  -1.213  0.00  0.00    -0.050 C 
ATOM     10  C   LIG    1       -0.090   2.277  -2.137  0.00  0.00    +0.070 C 
BRANCH  10  11
ATOM     11  C   LIG    1       -0.805   2.767  -3.334  0.00  0.00    -0.010 A 
ATOM     12  C   LIG    1       -2.164   2.497  -3.498  0.00  0.00    -0.010 A 
ATOM     13  C   LIG    1       -2.829   2.962  -4.617  0.00  0.00    +0.140 A 
ATOM     14  C   LIG    1       -2.146   3.685  -5.580  0.00  0.00    -0.040 A 
ATOM     15  C   LIG    1       -0.795   3.951  -5.426  0.00  0.00    +0.140 A 
ATOM     16  F   LIG    1       -0.135   4.657  -6.370  0.00  0.00    -0.130 F 
ATOM     17  F   LIG    1       -4.146   2.705  -4.774  0.00  0.00    -0.130 F 
ATOM     18  C   LIG    1       -0.122   3.496  -4.308  0.00  0.00    +0.000 A 
ENDBRANCH  10  11
ENDBRANCH   8   9
ENDBRANCH   5   8
ENDBRANCH   1   5
BRANCH   1  19
ATOM     19  C   LIG    1       -0.631   1.667   3.662  0.00  0.00    +0.070 C 
BRANCH  19  20
ATOM     20  C   LIG    1       -0.434   3.185   3.666  0.00  0.00    +0.100 C 
BRANCH  20  21
ATOM     21  C   LIG    1       -1.066   3.770   4.902  0.00  0.00    -0.200 A 
ATOM     22  C   LIG    1       -2.313   4.290   4.990  0.00  0.00    +0.270 A 
ATOM     23  N   LIG    1       -2.496   4.706   6.260  0.00  0.00    -0.450 N 
ATOM     24  H   LIG    1       -3.299   5.121   6.614  0.00  0.00    +0.450 HD
ATOM     25  N   LIG    1       -1.324   4.434   6.977  0.00  0.00    -0.230 NA
ATOM     26  C   LIG    1       -0.470   3.868   6.164  0.00  0.00    -0.000 A 
BRANCH  26  27
ATOM     27  C   LIG    1        0.919   3.405   6.523  0.00  0.00    +0.550 C 
ATOM     28  F   LIG    1        1.270   2.315   5.718  0.00  0.00    -0.160 F 
ATOM     29  F   LIG    1        0.949   3.020   7.867  0.00  0.00    -0.160 F 
ATOM     30  F   LIG    1        1.827   4.449   6.316  0.00  0.00    -0.170 F 
ENDBRANCH  26  27
ENDBRANCH  20  21
ENDBRANCH  19  20
ENDBRANCH   1  19
TORSDOF 9
