REMARK  Name = ZINCpk00000KfKDP.0
REMARK                            x       y       z     vdW  Elec       q    Type
REMARK                         _______ _______ _______ _____ _____    ______ ____
ROOT
ATOM      1  C   LIG    1        3.912  -5.594  -1.508  0.00  0.00    +0.020 C 
ATOM      2  C   LIG    1        2.699  -6.526  -1.526  0.00  0.00    +0.050 C 
ATOM      3  C   LIG    1        1.416  -5.694  -1.592  0.00  0.00    +0.030 C 
ATOM      4  C   LIG    1        1.324  -4.804  -0.349  0.00  0.00    +0.260 C 
ATOM      5  N   LIG    1        2.554  -4.008  -0.246  0.00  0.00    -0.620 N 
ATOM      6  C   LIG    1        2.497  -2.666  -0.137  0.00  0.00    +0.710 C 
ATOM      7  N   LIG    1        1.304  -2.050  -0.014  0.00  0.00    -0.680 N 
ATOM      8  H   LIG    1        0.494  -2.576   0.072  0.00  0.00    +0.410 HD
ATOM      9  O   LIG    1        3.521  -2.010  -0.150  0.00  0.00    -0.560 OA
ATOM     10  C   LIG    1        3.849  -4.702  -0.270  0.00  0.00    +0.330 C 
ENDROOT
BRANCH   7  11
ATOM     11  C   LIG    1        1.235  -0.651  -0.011  0.00  0.00    +0.110 A 
ATOM     12  C   LIG    1        2.135   0.101  -0.763  0.00  0.00    +0.100 A 
ATOM     13  C   LIG    1        2.029   1.480  -0.731  0.00  0.00    +0.020 A 
ATOM     14  C   LIG    1        1.036   2.065   0.045  0.00  0.00    +0.340 A 
ATOM     15  N   LIG    1        0.199   1.320   0.747  0.00  0.00    -0.480 NA
ATOM     16  C   LIG    1        0.269   0.004   0.740  0.00  0.00    +0.280 A 
BRANCH  14  17
ATOM     17  N   LIG    1        0.921   3.459   0.085  0.00  0.00    -0.330 N 
ATOM     18  C   LIG    1        0.019   4.176   0.784  0.00  0.00    +0.520 A 
ATOM     19  N   LIG    1        0.245   5.445   0.555  0.00  0.00    -0.540 NA
ATOM     20  C   LIG    1        1.276   5.577  -0.278  0.00  0.00    +0.450 A 
ATOM     21  N   LIG    1        1.728   4.391  -0.590  0.00  0.00    -0.310 NA
ENDBRANCH  14  17
ENDBRANCH   7  11
BRANCH   1  22
ATOM     22  C   LIG    1        5.176  -6.415  -1.475  0.00  0.00    +0.470 C 
ATOM     23  O   LIG    1        5.113  -7.621  -1.466  0.00  0.00    -0.500 OA
BRANCH  22  24
ATOM     24  O   LIG    1        6.372  -5.805  -1.456  0.00  0.00    -0.350 OA
BRANCH  24  26
ATOM     25  C   LIG    1        8.806  -5.791  -1.405  0.00  0.00    +0.070 C 
ATOM     26  C   LIG    1        7.546  -6.659  -1.424  0.00  0.00    +0.200 C 
ENDBRANCH  24  26
ENDBRANCH  22  24
ENDBRANCH   1  22
TORSDOF 5
