REMARK  Name = ZINCvU0000000Dca.0
REMARK                            x       y       z     vdW  Elec       q    Type
REMARK                         _______ _______ _______ _____ _____    ______ ____
ROOT
ATOM      1  C   LIG    1        1.022   0.042   0.039  0.00  0.00    -0.210 A 
ATOM      2  C   LIG    1       -0.208   0.625   0.021  0.00  0.00    +0.110 A 
ATOM      3  O   LIG    1       -0.081   1.956  -0.015  0.00  0.00    -0.170 OA
ATOM      4  C   LIG    1        1.218   2.325  -0.022  0.00  0.00    +0.060 A 
ATOM      5  C   LIG    1        1.852   3.561  -0.054  0.00  0.00    +0.060 A 
ATOM      6  C   LIG    1        3.228   3.632  -0.054  0.00  0.00    +0.060 A 
ATOM      7  C   LIG    1        3.997   2.472  -0.022  0.00  0.00    +0.120 A 
ATOM      8  C   LIG    1        3.380   1.232   0.011  0.00  0.00    +0.080 A 
ATOM      9  C   LIG    1       -1.519  -0.119   0.038  0.00  0.00    +0.200 C 
ATOM     10  C   LIG    1        1.992   1.156   0.011  0.00  0.00    -0.090 A 
ENDROOT
BRANCH   1  11
ATOM     11  C   LIG    1        1.323  -1.395   0.079  0.00  0.00    +0.550 C 
ATOM     12  O   LIG    1        1.449  -2.018  -0.958  0.00  0.00    -0.480 OA
BRANCH  11  13
ATOM     13  O   LIG    1        1.458  -2.023   1.264  0.00  0.00    -0.350 OA
BRANCH  13  14
ATOM     14  C   LIG    1        1.755  -3.444   1.227  0.00  0.00    +0.200 C 
BRANCH  14  15
ATOM     15  C   LIG    1        1.872  -3.978   2.656  0.00  0.00    +0.040 C 
BRANCH  15  16
ATOM     16  C   LIG    1        2.184  -5.475   2.617  0.00  0.00    +0.020 C 
BRANCH  16  17
ATOM     17  C   LIG    1        2.301  -6.008   4.046  0.00  0.00    +0.000 C 
BRANCH  17  18
ATOM     18  C   LIG    1        2.614  -7.506   4.008  0.00  0.00    +0.000 C 
BRANCH  18  20
ATOM     19  C   LIG    1        3.043  -9.537   5.398  0.00  0.00    +0.000 C 
ATOM     20  C   LIG    1        2.731  -8.040   5.437  0.00  0.00    -0.010 C 
ENDBRANCH  18  20
ENDBRANCH  17  18
ENDBRANCH  16  17
ENDBRANCH  15  16
ENDBRANCH  14  15
ENDBRANCH  13  14
ENDBRANCH  11  13
ENDBRANCH   1  11
BRANCH   7  21
ATOM     21  N   LIG    1        5.393   2.559  -0.022  0.00  0.00    -1.060 N 
ATOM     22  H   LIG    1        5.862   2.832   0.782  0.00  0.00    +0.430 HD
BRANCH  21  23
ATOM     23  S   LIG    1        6.245   2.195  -1.395  0.00  0.00    +2.690 S 
ATOM     24  O   LIG    1        5.759   0.939  -1.848  0.00  0.00    -0.940 OA
ATOM     25  O   LIG    1        7.613   2.437  -1.094  0.00  0.00    -0.950 OA
BRANCH  23  26
ATOM     26  C   LIG    1        5.788   3.376  -2.620  0.00  0.00    -0.680 A 
ATOM     27  C   LIG    1        4.684   3.150  -3.420  0.00  0.00    +0.130 A 
ATOM     28  C   LIG    1        4.323   4.079  -4.378  0.00  0.00    -0.010 A 
ATOM     29  C   LIG    1        5.072   5.229  -4.543  0.00  0.00    -0.020 A 
ATOM     30  C   LIG    1        6.180   5.452  -3.747  0.00  0.00    -0.010 A 
ATOM     31  C   LIG    1        4.682   6.239  -5.591  0.00  0.00    +0.090 C 
ATOM     32  C   LIG    1        6.538   4.526  -2.785  0.00  0.00    +0.130 A 
ENDBRANCH  23  26
ENDBRANCH  21  23
ENDBRANCH   7  21
TORSDOF 11
