REMARK  Name = ZINCqH0000008lNb.0
REMARK                            x       y       z     vdW  Elec       q    Type
REMARK                         _______ _______ _______ _____ _____    ______ ____
ROOT
ATOM      1  N   LIG    1       -0.297  -4.882  -0.843  0.00  0.00    -0.720 N 
ATOM      2  H   LIG    1       -1.184  -4.501  -0.751  0.00  0.00    +0.400 HD
ATOM      3  C   LIG    1       -0.131  -6.055  -1.486  0.00  0.00    +0.510 C 
ATOM      4  O   LIG    1        0.978  -6.532  -1.600  0.00  0.00    -0.530 OA
ENDROOT
BRANCH   1   6
ATOM      5  C   LIG    1        1.165  -4.738   1.112  0.00  0.00    +0.040 C 
ATOM      6  C   LIG    1        0.862  -4.184  -0.281  0.00  0.00    +0.290 C 
BRANCH   6   7
ATOM      7  C   LIG    1        0.561  -2.711  -0.182  0.00  0.00    -0.090 A 
ATOM      8  C   LIG    1       -0.691  -2.288   0.222  0.00  0.00    +0.040 A 
ATOM      9  C   LIG    1       -0.972  -0.938   0.314  0.00  0.00    +0.050 A 
ATOM     10  C   LIG    1        0.002  -0.004   0.002  0.00  0.00    +0.040 A 
ATOM     11  O   LIG    1       -0.016   1.361   0.009  0.00  0.00    -0.310 OA
ATOM     12  C   LIG    1        1.366   1.764  -0.002  0.00  0.00    +0.440 C 
ATOM     13  O   LIG    1        2.037   0.668  -0.652  0.00  0.00    -0.310 OA
ATOM     14  C   LIG    1        1.265  -0.430  -0.405  0.00  0.00    +0.040 A 
ATOM     15  C   LIG    1        1.539  -1.784  -0.495  0.00  0.00    +0.050 A 
ENDBRANCH   6   7
ENDBRANCH   1   6
BRANCH   3  16
ATOM     16  C   LIG    1       -1.323  -6.773  -2.064  0.00  0.00    +0.280 C 
BRANCH  16  17
ATOM     17  N   LIG    1       -0.882  -8.014  -2.707  0.00  0.00    -0.730 N 
ATOM     18  H   LIG    1        0.058  -8.251  -2.708  0.00  0.00    +0.410 HD
BRANCH  17  19
ATOM     19  C   LIG    1       -1.816  -8.854  -3.317  0.00  0.00    +0.220 A 
ATOM     20  C   LIG    1       -3.163  -8.519  -3.311  0.00  0.00    -0.040 A 
ATOM     21  C   LIG    1       -4.083  -9.350  -3.919  0.00  0.00    +0.070 A 
ATOM     22  C   LIG    1       -3.665 -10.520  -4.525  0.00  0.00    +0.000 A 
ATOM     23  C   LIG    1       -2.324 -10.860  -4.529  0.00  0.00    -0.130 A 
ATOM     24  C   LIG    1       -1.399 -10.031  -3.927  0.00  0.00    +0.000 A 
BRANCH  23  25
ATOM     25  C   LIG    1       -1.873 -12.136  -5.191  0.00  0.00    +0.510 C 
ATOM     26  F   LIG    1       -0.572 -11.974  -5.679  0.00  0.00    -0.180 F 
ATOM     27  F   LIG    1       -2.734 -12.441  -6.251  0.00  0.00    -0.180 F 
ATOM     28  F   LIG    1       -1.894 -13.178  -4.258  0.00  0.00    -0.180 F 
ENDBRANCH  23  25
ENDBRANCH  17  19
ENDBRANCH  16  17
ENDBRANCH   3  16
TORSDOF 6
