REMARK  Name = ZINCrH000004k0xK.0
REMARK                            x       y       z     vdW  Elec       q    Type
REMARK                         _______ _______ _______ _____ _____    ______ ____
ROOT
ATOM      1  C   LIG    1        0.095   0.897  -2.700  0.00  0.00    +0.140 A 
ATOM      2  N   LIG    1        1.221   0.233  -2.564  0.00  0.00    -0.290 NA
ATOM      3  N   LIG    1        1.732  -0.011  -3.718  0.00  0.00    -0.250 NA
ATOM      4  C   LIG    1        0.963   0.483  -4.661  0.00  0.00    +0.230 A 
ATOM      5  N   LIG    1       -0.111   1.075  -4.038  0.00  0.00    -0.420 N 
ENDROOT
BRANCH   4   6
ATOM      6  C   LIG    1        1.204   0.410  -6.118  0.00  0.00    -0.060 A 
ATOM      7  C   LIG    1        0.175   0.028  -6.980  0.00  0.00    +0.060 A 
ATOM      8  C   LIG    1        0.406  -0.037  -8.339  0.00  0.00    +0.010 A 
ATOM      9  C   LIG    1        1.654   0.275  -8.848  0.00  0.00    +0.070 A 
ATOM     10  C   LIG    1        2.680   0.654  -8.001  0.00  0.00    +0.000 A 
ATOM     11  C   LIG    1        2.461   0.730  -6.639  0.00  0.00    +0.140 A 
ATOM     12  F   LIG    1        3.461   1.106  -5.812  0.00  0.00    -0.120 F 
ENDBRANCH   4   6
BRANCH   5  13
ATOM     13  C   LIG    1       -1.240   1.756  -4.677  0.00  0.00    +0.190 C 
ATOM     14  C   LIG    1       -2.101   2.670  -3.802  0.00  0.00    +0.070 C 
ATOM     15  C   LIG    1       -2.649   1.320  -4.271  0.00  0.00    +0.060 C 
ENDBRANCH   5  13
BRANCH   1  16
ATOM     16  S   LIG    1       -0.956   1.449  -1.398  0.00  0.00    +0.100 S 
BRANCH  16  17
ATOM     17  C   LIG    1       -0.029   0.841   0.034  0.00  0.00    +0.090 C 
BRANCH  17  20
ATOM     18  C   LIG    1        1.008   0.116   2.569  0.00  0.00    +0.300 C 
ATOM     19  N   LIG    1       -0.255   0.856   2.497  0.00  0.00    -0.610 N 
ATOM     20  C   LIG    1       -0.761   1.208   1.299  0.00  0.00    +0.540 C 
ATOM     21  O   LIG    1       -1.806   1.821   1.239  0.00  0.00    -0.510 OA
BRANCH  19  22
ATOM     22  C   LIG    1       -0.966   1.213   3.727  0.00  0.00    +0.420 C 
BRANCH  22  23
ATOM     23  C   LIG    1       -1.925   0.109   4.090  0.00  0.00    -0.040 A 
ATOM     24  C   LIG    1       -1.645  -0.953   4.867  0.00  0.00    -0.040 A 
ATOM     25  C   LIG    1       -2.826  -1.726   4.945  0.00  0.00    -0.070 A 
ATOM     26  C   LIG    1       -3.755  -1.095   4.205  0.00  0.00    +0.170 A 
ATOM     27  O   LIG    1       -3.204   0.016   3.689  0.00  0.00    -0.160 OA
ENDBRANCH  22  23
ENDBRANCH  19  22
ENDBRANCH  17  20
ENDBRANCH  16  17
ENDBRANCH   1  16
TORSDOF 7
