REMARK  Name = ZINCpk00000y6xkB.0
REMARK                            x       y       z     vdW  Elec       q    Type
REMARK                         _______ _______ _______ _____ _____    ______ ____
ROOT
ATOM      1  O   LIG    1       -1.581   3.610   3.951  0.00  0.00    -0.450 OA
ATOM      2  C   LIG    1       -1.430   2.775   3.085  0.00  0.00    +0.530 C 
ATOM      3  C   LIG    1       -0.438   2.813   1.940  0.00  0.00    +0.300 C 
ATOM      4  N   LIG    1       -0.698   1.558   1.213  0.00  0.00    -0.620 N 
ATOM      5  C   LIG    1       -1.685   0.928   1.876  0.00  0.00    +0.700 C 
ATOM      6  O   LIG    1       -2.143  -0.147   1.543  0.00  0.00    -0.540 OA
ATOM      7  N   LIG    1       -2.105   1.617   2.943  0.00  0.00    -0.570 N 
ENDROOT
BRANCH   4   8
ATOM      8  C   LIG    1       -0.013   1.086   0.008  0.00  0.00    +0.390 C 
BRANCH   8   9
ATOM      9  C   LIG    1       -0.742   1.585  -1.213  0.00  0.00    -0.130 A 
ATOM     10  C   LIG    1       -1.750   0.824  -1.775  0.00  0.00    +0.080 A 
ATOM     11  C   LIG    1       -2.423   1.284  -2.891  0.00  0.00    -0.020 A 
ATOM     12  C   LIG    1       -2.079   2.501  -3.453  0.00  0.00    +0.110 A 
ATOM     13  C   LIG    1       -1.066   3.260  -2.893  0.00  0.00    -0.020 A 
ATOM     14  F   LIG    1       -2.733   2.949  -4.548  0.00  0.00    -0.140 F 
ATOM     15  C   LIG    1       -0.398   2.801  -1.774  0.00  0.00    +0.060 A 
ENDBRANCH   8   9
ENDBRANCH   4   8
BRANCH   7  16
ATOM     16  C   LIG    1       -3.168   1.168   3.846  0.00  0.00    +0.340 C 
BRANCH  16  17
ATOM     17  C   LIG    1       -2.558   0.341   4.980  0.00  0.00    +0.160 C 
ATOM     18  C   LIG    1       -3.677  -0.232   5.853  0.00  0.00    +0.170 C 
ATOM     19  N   LIG    1       -3.084  -0.961   6.984  0.00  0.00    -0.500 NA
ATOM     20  C   LIG    1       -2.225  -0.074   7.783  0.00  0.00    +0.150 C 
ATOM     21  C   LIG    1       -1.121   0.497   6.890  0.00  0.00    +0.230 C 
ATOM     22  O   LIG    1       -1.716   1.175   5.780  0.00  0.00    -0.370 OA
BRANCH  19  23
ATOM     23  C   LIG    1       -4.125  -1.576   7.818  0.00  0.00    +0.140 C 
ATOM     24  C   LIG    1       -4.335  -1.005   9.222  0.00  0.00    -0.020 C 
ATOM     25  C   LIG    1       -3.671  -2.373   9.043  0.00  0.00    +0.030 C 
ENDBRANCH  19  23
ENDBRANCH  16  17
ENDBRANCH   7  16
TORSDOF 5
