REMARK  Name = ZINCrD000001YJQ2.0
REMARK                            x       y       z     vdW  Elec       q    Type
REMARK                         _______ _______ _______ _____ _____    ______ ____
ROOT
ATOM      1  C   LIG    1       -0.034   1.125  -2.477  0.00  0.00    +0.520 C 
ATOM      2  N   LIG    1       -0.509   1.451  -3.695  0.00  0.00    -0.640 N 
ATOM      3  H   LIG    1       -1.316   1.984  -3.774  0.00  0.00    +0.410 HD
ATOM      4  O   LIG    1        0.975   0.459  -2.378  0.00  0.00    -0.520 OA
ENDROOT
BRANCH   1  10
ATOM      5  C   LIG    1       -4.013   2.018   0.052  0.00  0.00    +0.550 C 
ATOM      6  N   LIG    1       -2.825   1.380   0.037  0.00  0.00    -0.610 N 
ATOM      7  C   LIG    1       -2.151   1.025   1.293  0.00  0.00    +0.260 C 
ATOM      8  C   LIG    1       -0.726   1.585   1.263  0.00  0.00    +0.020 C 
ATOM      9  C   LIG    1       -0.013   1.087   0.004  0.00  0.00    +0.060 C 
ATOM     10  C   LIG    1       -0.755   1.589  -1.237  0.00  0.00    -0.010 C 
ATOM     11  C   LIG    1       -2.181   1.029  -1.236  0.00  0.00    +0.300 C 
ATOM     12  O   LIG    1       -4.515   2.392  -0.991  0.00  0.00    -0.540 OA
BRANCH   5  14
ATOM     13  C   LIG    1       -5.917   2.800   1.337  0.00  0.00    +0.140 C 
ATOM     14  C   LIG    1       -4.701   2.261   1.329  0.00  0.00    -0.090 C 
ENDBRANCH   5  14
ENDBRANCH   1  10
BRANCH   2  15
ATOM     15  C   LIG    1        0.164   1.018  -4.852  0.00  0.00    +0.010 A 
ATOM     16  C   LIG    1       -0.204   1.273  -6.134  0.00  0.00    +0.060 A 
ATOM     17  N   LIG    1        0.710   0.678  -6.949  0.00  0.00    -0.320 N 
ATOM     18  N   LIG    1        1.659   0.044  -6.138  0.00  0.00    -0.280 NA
ATOM     19  C   LIG    1        1.339   0.251  -4.886  0.00  0.00    +0.270 A 
BRANCH  17  20
ATOM     20  C   LIG    1        0.701   0.698  -8.350  0.00  0.00    +0.160 A 
ATOM     21  C   LIG    1       -0.504   0.668  -9.039  0.00  0.00    -0.010 A 
ATOM     22  C   LIG    1       -0.509   0.692 -10.420  0.00  0.00    +0.030 A 
ATOM     23  C   LIG    1        0.685   0.735 -11.116  0.00  0.00    +0.010 A 
ATOM     24  C   LIG    1        1.887   0.759 -10.433  0.00  0.00    +0.030 A 
ATOM     25  C   LIG    1        1.898   0.741  -9.052  0.00  0.00    +0.020 A 
ENDBRANCH  17  20
BRANCH  16  26
ATOM     26  C   LIG    1       -1.405   2.070  -6.574  0.00  0.00    +0.060 C 
ATOM     27  C   LIG    1       -1.302   3.494  -6.022  0.00  0.00    +0.040 C 
ATOM     28  C   LIG    1       -2.678   1.408  -6.043  0.00  0.00    +0.040 C 
ENDBRANCH  16  26
ENDBRANCH   2  15
TORSDOF 5
