REMARK  Name = ZINCri00001RJwPE.0
REMARK                            x       y       z     vdW  Elec       q    Type
REMARK                         _______ _______ _______ _____ _____    ______ ____
ROOT
ATOM      1  S   LIG    1       -0.775  -3.205  -2.263  0.00  0.00    +2.690 S 
ATOM      2  O   LIG    1       -1.745  -3.804  -1.414  0.00  0.00    -0.970 OA
ATOM      3  O   LIG    1        0.445  -2.657  -1.784  0.00  0.00    -0.900 OA
ENDROOT
BRANCH   1  13
ATOM      4  C   LIG    1       -1.032  -0.611  -3.029  0.00  0.00    +0.140 C 
ATOM      5  C   LIG    1       -0.570  -0.197  -4.431  0.00  0.00    +0.110 C 
ATOM      6  C   LIG    1       -1.629  -0.599  -5.427  0.00  0.00    -0.200 A 
ATOM      7  C   LIG    1       -1.794  -0.158  -6.689  0.00  0.00    +0.200 A 
ATOM      8  N   LIG    1       -2.866  -0.795  -7.209  0.00  0.00    -0.500 N 
ATOM      9  H   LIG    1       -3.221  -0.676  -8.104  0.00  0.00    +0.430 HD
ATOM     10  N   LIG    1       -3.377  -1.658  -6.228  0.00  0.00    -0.290 NA
ATOM     11  C   LIG    1       -2.639  -1.540  -5.164  0.00  0.00    +0.090 A 
ATOM     12  C   LIG    1       -2.779  -2.254  -3.839  0.00  0.00    +0.400 C 
ATOM     13  N   LIG    1       -1.551  -1.985  -3.070  0.00  0.00    -0.970 NA
BRANCH   4  15
ATOM     14  O   LIG    1        1.260  -0.779  -2.471  0.00  0.00    -0.640 OA
ATOM     15  C   LIG    1        0.132  -0.542  -2.075  0.00  0.00    +0.500 C 
ATOM     16  O   LIG    1       -0.053  -0.248  -0.906  0.00  0.00    -0.710 OA
ENDBRANCH   4  15
ENDBRANCH   1  13
BRANCH   1  17
ATOM     17  C   LIG    1       -0.338  -4.424  -3.457  0.00  0.00    -0.820 A 
ATOM     18  C   LIG    1       -1.263  -5.382  -3.842  0.00  0.00    +0.350 A 
ATOM     19  C   LIG    1       -0.918  -6.338  -4.787  0.00  0.00    -0.180 A 
ATOM     20  C   LIG    1        0.350  -6.343  -5.335  0.00  0.00    +0.090 A 
ATOM     21  C   LIG    1        1.276  -5.393  -4.949  0.00  0.00    -0.240 A 
ATOM     22  O   LIG    1       -2.509  -5.382  -3.299  0.00  0.00    -0.670 OA
ATOM     23  C   LIG    1        0.934  -4.431  -4.009  0.00  0.00    +0.250 A 
BRANCH  23  24
ATOM     24  O   LIG    1        1.845  -3.497  -3.628  0.00  0.00    -0.260 OA
BRANCH  24  25
ATOM     25  C   LIG    1        3.136  -3.564  -4.238  0.00  0.00    +0.600 C 
ATOM     26  F   LIG    1        3.724  -4.801  -3.951  0.00  0.00    -0.180 F 
ATOM     27  F   LIG    1        3.943  -2.538  -3.736  0.00  0.00    -0.130 F 
ATOM     28  F   LIG    1        3.006  -3.420  -5.623  0.00  0.00    -0.180 F 
ENDBRANCH  24  25
ENDBRANCH  23  24
ENDBRANCH   1  17
TORSDOF 5
