REMARK  Name = ZINCpe00000MJI9u.0
REMARK                            x       y       z     vdW  Elec       q    Type
REMARK                         _______ _______ _______ _____ _____    ______ ____
ROOT
ATOM      1  C   LIG    1        0.002  -0.004   0.002  0.00  0.00    +0.010 C 
ATOM      2  N   LIG    1        1.069  -0.738  -0.012  0.00  0.00    -0.110 NA
ATOM      3  N   LIG    1        0.815  -2.108  -0.016  0.00  0.00    -0.430 N 
ATOM      4  C   LIG    1       -0.641  -2.322  -0.004  0.00  0.00    +0.210 C 
ATOM      5  C   LIG    1       -1.220  -0.894   0.015  0.00  0.00    +0.140 C 
ENDROOT
BRANCH   3   6
ATOM      6  C   LIG    1        1.783  -3.113  -0.030  0.00  0.00    +0.210 A 
ATOM      7  C   LIG    1        1.400  -4.449  -0.028  0.00  0.00    -0.040 A 
ATOM      8  C   LIG    1        2.361  -5.441  -0.048  0.00  0.00    +0.050 A 
ATOM      9  C   LIG    1        3.703  -5.106  -0.058  0.00  0.00    -0.020 A 
ATOM     10  C   LIG    1        4.088  -3.777  -0.055  0.00  0.00    +0.050 A 
ATOM     11  C   LIG    1        3.132  -2.780  -0.041  0.00  0.00    -0.020 A 
ENDBRANCH   3   6
BRANCH   4  12
ATOM     12  C   LIG    1       -1.054  -3.076   1.234  0.00  0.00    +0.510 C 
ATOM     13  O   LIG    1       -0.313  -3.122   2.192  0.00  0.00    -0.510 OA
ATOM     14  N   LIG    1       -2.249  -3.699   1.276  0.00  0.00    -0.850 N 
ATOM     15  H   LIG    1       -2.515  -4.185   2.072  0.00  0.00    +0.410 HD
ATOM     16  H   LIG    1       -2.842  -3.663   0.509  0.00  0.00    +0.400 HD
ENDBRANCH   4  12
BRANCH   1  17
ATOM     17  C   LIG    1       -0.017   1.414   0.010  0.00  0.00    +0.550 C 
ATOM     18  O   LIG    1       -1.079   2.008   0.018  0.00  0.00    -0.480 OA
BRANCH  17  19
ATOM     19  O   LIG    1        1.142   2.104   0.003  0.00  0.00    -0.320 OA
BRANCH  19  24
ATOM     20  C   LIG    1        2.130   7.544  -0.748  0.00  0.00    +0.100 C 
ATOM     21  C   LIG    1        2.202   6.016  -0.740  0.00  0.00    +0.260 C 
ATOM     22  O   LIG    1        2.229   5.547   0.610  0.00  0.00    -0.370 OA
ATOM     23  C   LIG    1        2.269   4.121   0.725  0.00  0.00    +0.240 C 
ATOM     24  C   LIG    1        1.048   3.530   0.011  0.00  0.00    +0.130 C 
ATOM     25  C   LIG    1        1.016   4.051  -1.430  0.00  0.00    +0.220 C 
ATOM     26  C   LIG    1        3.471   5.562  -1.463  0.00  0.00    +0.020 C 
ATOM     27  O   LIG    1        1.056   5.482  -1.407  0.00  0.00    -0.370 OA
ENDBRANCH  19  24
ENDBRANCH  17  19
ENDBRANCH   1  17
TORSDOF 5
