REMARK  Name = ZINCrH000004tDzs.0
REMARK                            x       y       z     vdW  Elec       q    Type
REMARK                         _______ _______ _______ _____ _____    ______ ____
ROOT
ATOM      1  C   LIG    1       -5.734   3.665  -0.721  0.00  0.00    +0.230 C 
ATOM      2  C   LIG    1       -5.793   2.140  -0.838  0.00  0.00    +0.010 C 
ATOM      3  C   LIG    1       -4.906   1.515   0.243  0.00  0.00    +0.280 C 
ATOM      4  N   LIG    1       -3.553   2.078   0.130  0.00  0.00    -0.600 N 
ATOM      5  C   LIG    1       -3.392   3.538   0.145  0.00  0.00    +0.290 C 
ATOM      6  C   LIG    1       -2.480   1.270   0.019  0.00  0.00    +0.600 C 
ATOM      7  O   LIG    1       -2.633   0.075  -0.149  0.00  0.00    -0.530 OA
ATOM      8  C   LIG    1       -4.297   4.141  -0.941  0.00  0.00    +0.010 C 
ENDROOT
BRANCH   6   9
ATOM      9  C   LIG    1       -1.122   1.834   0.102  0.00  0.00    +0.010 A 
ATOM     10  C   LIG    1       -0.017   1.105  -0.167  0.00  0.00    -0.030 A 
ATOM     11  S   LIG    1        1.366   2.091   0.025  0.00  0.00    +0.200 S 
ATOM     12  C   LIG    1        0.352   3.458   0.474  0.00  0.00    +0.130 A 
ATOM     13  N   LIG    1       -0.895   3.095   0.449  0.00  0.00    -0.440 NA
BRANCH  12  14
ATOM     14  C   LIG    1        0.843   4.808   0.824  0.00  0.00    -0.140 A 
ATOM     15  C   LIG    1        0.094   5.889   1.176  0.00  0.00    +0.260 A 
ATOM     16  O   LIG    1        0.920   6.917   1.414  0.00  0.00    -0.170 OA
ATOM     17  C   LIG    1        2.199   6.553   1.231  0.00  0.00    +0.190 A 
ATOM     18  C   LIG    1        2.239   5.260   0.870  0.00  0.00    -0.040 A 
ENDBRANCH  12  14
ENDBRANCH   6   9
BRANCH   1  21
ATOM     19  O   LIG    1       -6.859   6.107  -0.521  0.00  0.00    -0.530 OA
ATOM     20  C   LIG    1       -7.120   5.497  -1.536  0.00  0.00    +0.510 C 
ATOM     21  N   LIG    1       -6.607   4.266  -1.733  0.00  0.00    -0.730 N 
ATOM     22  H   LIG    1       -6.816   3.778  -2.545  0.00  0.00    +0.400 HD
BRANCH  20  23
ATOM     23  C   LIG    1       -8.018   6.115  -2.577  0.00  0.00    +0.040 C 
BRANCH  23  24
ATOM     24  C   LIG    1       -8.459   7.503  -2.110  0.00  0.00    +0.000 C 
ATOM     25  C   LIG    1       -9.377   7.379  -0.877  0.00  0.00    +0.020 C 
ATOM     26  C   LIG    1      -10.435   8.494  -1.078  0.00  0.00    +0.000 C 
ATOM     27  C   LIG    1      -10.682   8.459  -2.607  0.00  0.00    -0.010 C 
ATOM     28  C   LIG    1       -9.288   8.190  -3.209  0.00  0.00    +0.010 C 
ENDBRANCH  23  24
ENDBRANCH  20  23
ENDBRANCH   1  21
TORSDOF 5
