REMARK  Name = ZINCkj000005f4WE.1
REMARK                            x       y       z     vdW  Elec       q    Type
REMARK                         _______ _______ _______ _____ _____    ______ ____
ROOT
ATOM      1  C   LIG    1       -2.369   1.015  -0.096  0.00  0.00    +0.260 C 
ENDROOT
BRANCH   1   2
ATOM      2  N   LIG    1       -1.044   1.630   0.008  0.00  0.00    -0.730 N 
ATOM      3  H   LIG    1       -0.961   2.592   0.102  0.00  0.00    +0.400 HD
ATOM      4  C   LIG    1        0.062   0.859  -0.027  0.00  0.00    +0.650 C 
ATOM      5  O   LIG    1       -0.042  -0.351  -0.051  0.00  0.00    -0.540 OA
BRANCH   4   6
ATOM      6  O   LIG    1        1.281   1.431  -0.041  0.00  0.00    -0.360 OA
BRANCH   6   7
ATOM      7  C   LIG    1        2.426   0.539  -0.084  0.00  0.00    +0.140 C 
ATOM      8  C   LIG    1        2.412  -0.370   1.146  0.00  0.00    +0.030 C 
ATOM      9  C   LIG    1        3.714   1.365  -0.094  0.00  0.00    +0.080 C 
ATOM     10  C   LIG    1        2.358  -0.316  -1.351  0.00  0.00    +0.040 C 
ENDBRANCH   6   7
ENDBRANCH   4   6
ENDBRANCH   1   2
BRANCH   1  11
ATOM     11  C   LIG    1       -2.699   0.761  -1.568  0.00  0.00    +0.040 C 
BRANCH  11  13
ATOM     12  C   LIG    1       -4.412  -0.154  -3.141  0.00  0.00    +0.030 C 
ATOM     13  C   LIG    1       -4.016  -0.012  -1.670  0.00  0.00    -0.020 C 
ATOM     14  C   LIG    1       -3.840  -1.401  -1.052  0.00  0.00    +0.010 C 
ENDBRANCH  11  13
ENDBRANCH   1  11
BRANCH   1  15
ATOM     15  C   LIG    1       -3.416   1.954   0.506  0.00  0.00    +0.280 C 
BRANCH  15  16
ATOM     16  N   LIG    1       -3.034   2.294   1.884  0.00  0.00    -0.370 N 
ATOM     17  C   LIG    1       -3.074   1.083   2.715  0.00  0.00    +0.330 C 
ATOM     18  H   LIG    1       -2.100   2.675   1.890  0.00  0.00    +0.430 HD
BRANCH  16  19
ATOM     19  C   LIG    1       -3.973   3.288   2.421  0.00  0.00    +0.290 C 
BRANCH  19  20
ATOM     20  C   LIG    1       -3.512   3.727   3.787  0.00  0.00    +0.510 C 
ATOM     21  O   LIG    1       -2.501   3.258   4.266  0.00  0.00    -0.530 OA
ATOM     22  N   LIG    1       -4.223   4.641   4.477  0.00  0.00    -0.820 N 
ATOM     23  H   LIG    1       -3.926   4.924   5.356  0.00  0.00    +0.420 HD
ATOM     24  H   LIG    1       -5.032   5.016   4.094  0.00  0.00    +0.410 HD
ENDBRANCH  19  20
ENDBRANCH  16  19
ENDBRANCH  15  16
ENDBRANCH   1  15
TORSDOF 9
