REMARK  Name = ZINCkj000005f4WE.2
REMARK                            x       y       z     vdW  Elec       q    Type
REMARK                         _______ _______ _______ _____ _____    ______ ____
ROOT
ATOM      1  C   LIG    1        0.004   0.029   0.225  0.00  0.00    +0.260 C 
ENDROOT
BRANCH   1   2
ATOM      2  N   LIG    1        0.523  -0.481   1.496  0.00  0.00    -0.730 N 
ATOM      3  H   LIG    1       -0.089  -0.821   2.168  0.00  0.00    +0.410 HD
ATOM      4  C   LIG    1        1.849  -0.477   1.733  0.00  0.00    +0.650 C 
ATOM      5  O   LIG    1        2.615  -0.051   0.891  0.00  0.00    -0.550 OA
BRANCH   4   6
ATOM      6  O   LIG    1        2.326  -0.946   2.901  0.00  0.00    -0.360 OA
BRANCH   6   7
ATOM      7  C   LIG    1        3.766  -0.911   3.088  0.00  0.00    +0.140 C 
ATOM      8  C   LIG    1        4.441  -1.752   2.002  0.00  0.00    +0.040 C 
ATOM      9  C   LIG    1        4.116  -1.480   4.464  0.00  0.00    +0.080 C 
ATOM     10  C   LIG    1        4.258   0.534   2.993  0.00  0.00    +0.040 C 
ENDBRANCH   6   7
ENDBRANCH   4   6
ENDBRANCH   1   2
BRANCH   1  11
ATOM     11  C   LIG    1       -0.506   1.459   0.418  0.00  0.00    +0.040 C 
BRANCH  11  13
ATOM     12  C   LIG    1        1.634   2.447  -0.409  0.00  0.00    +0.030 C 
ATOM     13  C   LIG    1        0.667   2.375   0.774  0.00  0.00    -0.020 C 
ATOM     14  C   LIG    1        0.141   3.777   1.089  0.00  0.00    +0.030 C 
ENDBRANCH  11  13
ENDBRANCH   1  11
BRANCH   1  15
ATOM     15  C   LIG    1       -1.145  -0.862  -0.252  0.00  0.00    +0.280 C 
BRANCH  15  16
ATOM     16  N   LIG    1       -0.670  -2.246  -0.381  0.00  0.00    -0.370 N 
ATOM     17  C   LIG    1       -1.800  -3.122  -0.719  0.00  0.00    +0.330 C 
ATOM     18  H   LIG    1       -0.262  -2.545   0.492  0.00  0.00    +0.430 HD
BRANCH  16  19
ATOM     19  C   LIG    1        0.341  -2.319  -1.444  0.00  0.00    +0.290 C 
BRANCH  19  20
ATOM     20  C   LIG    1        0.917  -3.711  -1.495  0.00  0.00    +0.510 C 
ATOM     21  O   LIG    1        0.524  -4.558  -0.722  0.00  0.00    -0.530 OA
ATOM     22  N   LIG    1        1.869  -4.014  -2.400  0.00  0.00    -0.820 N 
ATOM     23  H   LIG    1        2.240  -4.910  -2.433  0.00  0.00    +0.420 HD
ATOM     24  H   LIG    1        2.183  -3.336  -3.019  0.00  0.00    +0.410 HD
ENDBRANCH  19  20
ENDBRANCH  16  19
ENDBRANCH  15  16
ENDBRANCH   1  15
TORSDOF 9
