REMARK  Name = ZINCnE000001EQsS.0
REMARK                            x       y       z     vdW  Elec       q    Type
REMARK                         _______ _______ _______ _____ _____    ______ ____
ROOT
ATOM      1  C   LIG    1        1.214  -0.994  -5.688  0.00  0.00    +0.590 C 
ATOM      2  N   LIG    1        2.163  -0.752  -6.613  0.00  0.00    -0.600 N 
ATOM      3  C   LIG    1        2.719   0.597  -6.780  0.00  0.00    +0.260 C 
ATOM      4  C   LIG    1        2.590   1.004  -8.251  0.00  0.00    +0.010 C 
ATOM      5  C   LIG    1        3.250  -0.060  -9.131  0.00  0.00    +0.000 C 
ATOM      6  C   LIG    1        2.535  -1.400  -8.936  0.00  0.00    +0.020 C 
ATOM      7  C   LIG    1        2.667  -1.835  -7.468  0.00  0.00    +0.220 C 
ATOM      8  O   LIG    1        0.829  -2.131  -5.494  0.00  0.00    -0.470 OA
ENDROOT
BRANCH   1  12
ATOM      9  C   LIG    1       -0.541   1.386  -3.570  0.00  0.00    +0.030 A 
ATOM     10  N   LIG    1        0.367   2.087  -4.185  0.00  0.00    -0.360 NA
ATOM     11  O   LIG    1        1.036   1.408  -4.928  0.00  0.00    +0.110 OA
ATOM     12  C   LIG    1        0.640   0.121  -4.911  0.00  0.00    -0.070 A 
ATOM     13  C   LIG    1       -0.402   0.057  -4.026  0.00  0.00    +0.030 A 
BRANCH   9  14
ATOM     14  C   LIG    1       -1.549   1.895  -2.572  0.00  0.00    +0.080 C 
BRANCH  14  16
ATOM     15  C   LIG    1       -1.971   2.323  -0.147  0.00  0.00    +0.020 C 
ATOM     16  C   LIG    1       -1.015   1.682  -1.154  0.00  0.00    +0.010 C 
ENDBRANCH  14  16
BRANCH  14  17
ATOM     17  C   LIG    1       -2.865   1.134  -2.742  0.00  0.00    +0.030 C 
ATOM     18  C   LIG    1       -3.460   1.444  -4.116  0.00  0.00    +0.000 C 
ENDBRANCH  14  17
ENDBRANCH   9  14
ENDBRANCH   1  12
BRANCH   7  19
ATOM     19  C   LIG    1        1.844  -3.102  -7.231  0.00  0.00    +0.070 C 
BRANCH  19  20
ATOM     20  C   LIG    1        2.343  -4.215  -8.155  0.00  0.00    -0.080 C 
BRANCH  20  21
ATOM     21  C   LIG    1        1.463  -5.429  -8.000  0.00  0.00    +0.490 C 
ATOM     22  O   LIG    1        1.690  -6.434  -8.652  0.00  0.00    -0.710 OA
ATOM     23  O   LIG    1        0.523  -5.405  -7.223  0.00  0.00    -0.690 OA
ENDBRANCH  20  21
ENDBRANCH  19  20
ENDBRANCH   7  19
TORSDOF 7
