REMARK  Name = ZINCqH0000032nyV.0
REMARK                            x       y       z     vdW  Elec       q    Type
REMARK                         _______ _______ _______ _____ _____    ______ ____
ROOT
ATOM      1  C   LIG    1       -1.240   3.400   0.155  0.00  0.00    +0.520 C 
ATOM      2  N   LIG    1       -1.210   2.129  -0.292  0.00  0.00    -0.670 N 
ATOM      3  H   LIG    1       -2.023   1.706  -0.609  0.00  0.00    +0.420 HD
ATOM      4  O   LIG    1       -0.210   3.956   0.473  0.00  0.00    -0.510 OA
ENDROOT
BRANCH   2   5
ATOM      5  C   LIG    1       -0.004   1.419  -0.299  0.00  0.00    +0.150 A 
ATOM      6  C   LIG    1        1.188   2.076  -0.582  0.00  0.00    +0.030 A 
ATOM      7  C   LIG    1        2.381   1.378  -0.596  0.00  0.00    +0.050 A 
ATOM      8  C   LIG    1        2.397   0.024  -0.330  0.00  0.00    +0.020 A 
ATOM      9  C   LIG    1        1.205  -0.645  -0.045  0.00  0.00    +0.000 A 
ATOM     10  C   LIG    1        0.001   0.059  -0.031  0.00  0.00    +0.010 A 
BRANCH   9  11
ATOM     11  C   LIG    1        1.219  -2.096   0.241  0.00  0.00    -0.000 A 
ATOM     12  C   LIG    1        2.308  -2.906   0.262  0.00  0.00    +0.170 A 
ATOM     13  N   LIG    1        1.885  -4.143   0.562  0.00  0.00    -0.490 NA
ATOM     14  C   LIG    1        0.592  -4.120   0.723  0.00  0.00    +0.430 A 
ATOM     15  O   LIG    1        0.150  -2.869   0.537  0.00  0.00    -0.200 OA
ENDBRANCH   9  11
ENDBRANCH   2   5
BRANCH   1  16
ATOM     16  C   LIG    1       -2.554   4.130   0.260  0.00  0.00    +0.260 C 
BRANCH  16  17
ATOM     17  N   LIG    1       -2.313   5.575   0.244  0.00  0.00    -0.710 N 
ATOM     18  H   LIG    1       -1.456   5.927   0.533  0.00  0.00    +0.410 HD
ATOM     19  C   LIG    1       -3.281   6.415  -0.173  0.00  0.00    +0.600 C 
ATOM     20  O   LIG    1       -4.355   5.974  -0.536  0.00  0.00    -0.520 OA
BRANCH  19  21
ATOM     21  C   LIG    1       -3.039   7.861  -0.189  0.00  0.00    -0.280 A 
ATOM     22  C   LIG    1       -3.937   8.811  -0.589  0.00  0.00    +0.110 A 
ATOM     23  C   LIG    1       -3.448  10.092  -0.501  0.00  0.00    +0.000 A 
ATOM     24  C   LIG    1       -2.193  10.192  -0.046  0.00  0.00    -0.050 A 
ATOM     25  S   LIG    1       -1.550   8.652   0.309  0.00  0.00    +0.210 S 
ENDBRANCH  19  21
ENDBRANCH  16  17
BRANCH  16  27
ATOM     26  C   LIG    1       -3.610   2.257   1.533  0.00  0.00    +0.030 C 
ATOM     27  C   LIG    1       -3.249   3.744   1.567  0.00  0.00    -0.010 C 
ATOM     28  C   LIG    1       -2.309   4.014   2.744  0.00  0.00    +0.030 C 
ENDBRANCH  16  27
ENDBRANCH   1  16
TORSDOF 6
