REMARK  Name = ZINCpe000000YZO6.0
REMARK                            x       y       z     vdW  Elec       q    Type
REMARK                         _______ _______ _______ _____ _____    ______ ____
ROOT
ATOM      1  O   LIG    1       -4.727   3.630  -2.276  0.00  0.00    -0.520 OA
ATOM      2  C   LIG    1       -5.428   3.967  -1.345  0.00  0.00    +0.510 C 
ATOM      3  N   LIG    1       -6.624   4.543  -1.577  0.00  0.00    -0.610 N 
ATOM      4  C   LIG    1       -7.487   4.952  -0.460  0.00  0.00    +0.270 C 
ATOM      5  C   LIG    1       -8.869   4.327  -0.645  0.00  0.00    +0.040 C 
ATOM      6  C   LIG    1       -9.412   4.697  -2.027  0.00  0.00    +0.020 C 
ATOM      7  C   LIG    1       -8.481   4.142  -3.108  0.00  0.00    +0.260 C 
ATOM      8  C   LIG    1       -7.092   4.769  -2.951  0.00  0.00    +0.290 C 
ENDROOT
BRANCH   7   9
ATOM      9  N   LIG    1       -9.018   4.469  -4.431  0.00  0.00    -0.370 N 
ATOM     10  C   LIG    1       -8.827   5.623  -5.103  0.00  0.00    +0.220 A 
ATOM     11  C   LIG    1       -9.486   5.529  -6.281  0.00  0.00    -0.120 A 
ATOM     12  C   LIG    1      -10.101   4.274  -6.331  0.00  0.00    +0.230 A 
ATOM     13  N   LIG    1       -9.817   3.635  -5.225  0.00  0.00    -0.290 NA
ENDBRANCH   7   9
BRANCH   2  14
ATOM     14  C   LIG    1       -4.961   3.742   0.070  0.00  0.00    +0.370 C 
BRANCH  14  15
ATOM     15  N   LIG    1       -3.642   3.107   0.054  0.00  0.00    -0.450 N 
ATOM     16  N   LIG    1       -3.538   1.713   0.045  0.00  0.00    +0.090 NA
ATOM     17  N   LIG    1       -2.413   1.096   0.031  0.00  0.00    -0.190 NA
ATOM     18  C   LIG    1       -1.230   1.760   0.017  0.00  0.00    +0.060 A 
ATOM     19  C   LIG    1       -0.013   1.076   0.008  0.00  0.00    +0.080 A 
ATOM     20  C   LIG    1        1.169   1.783   0.001  0.00  0.00    +0.070 A 
ATOM     21  C   LIG    1        1.166   3.171   0.007  0.00  0.00    +0.040 A 
ATOM     22  C   LIG    1       -0.022   3.869   0.022  0.00  0.00    +0.100 A 
ATOM     23  C   LIG    1       -1.228   3.173   0.030  0.00  0.00    -0.150 A 
ATOM     24  C   LIG    1       -2.523   3.870   0.047  0.00  0.00    +0.540 A 
ATOM     25  O   LIG    1       -2.587   5.086   0.054  0.00  0.00    -0.500 OA
ENDBRANCH  14  15
ENDBRANCH   2  14
TORSDOF 3
