REMARK  Name = ZINCvU00000004CM.0
REMARK                            x       y       z     vdW  Elec       q    Type
REMARK                         _______ _______ _______ _____ _____    ______ ____
ROOT
ATOM      1  C   LIG    1        5.372  -2.392   1.675  0.00  0.00    +0.220 C 
ENDROOT
BRANCH   1   5
ATOM      2  C   LIG    1        2.757  -0.814   3.696  0.00  0.00    +0.110 A 
ATOM      3  C   LIG    1        3.276  -1.290   4.846  0.00  0.00    -0.060 A 
ATOM      4  S   LIG    1        4.711  -2.229   4.443  0.00  0.00    +0.220 S 
ATOM      5  C   LIG    1        4.479  -1.896   2.783  0.00  0.00    +0.020 A 
ATOM      6  N   LIG    1        3.431  -1.168   2.611  0.00  0.00    -0.440 NA
BRANCH   2  10
ATOM      7  C   LIG    1       -0.750   1.596   3.566  0.00  0.00    +0.110 A 
ATOM      8  C   LIG    1       -0.208   1.225   4.787  0.00  0.00    -0.030 A 
ATOM      9  C   LIG    1        0.929   0.444   4.832  0.00  0.00    +0.030 A 
ATOM     10  C   LIG    1        1.535   0.026   3.648  0.00  0.00    -0.020 A 
ATOM     11  C   LIG    1        0.988   0.394   2.420  0.00  0.00    +0.010 A 
ATOM     12  C   LIG    1       -0.148   1.182   2.380  0.00  0.00    +0.100 A 
BRANCH   7  14
ATOM     13  C   LIG    1       -2.434   2.756   4.780  0.00  0.00    +0.240 C 
ATOM     14  O   LIG    1       -1.870   2.367   3.526  0.00  0.00    -0.300 OA
ENDBRANCH   7  14
BRANCH  12  15
ATOM     15  O   LIG    1       -0.682   1.547   1.184  0.00  0.00    -0.310 OA
ATOM     16  C   LIG    1       -0.013   1.086   0.008  0.00  0.00    +0.240 C 
ENDBRANCH  12  15
ENDBRANCH   2  10
ENDBRANCH   1   5
BRANCH   1  17
ATOM     17  C   LIG    1        5.387  -3.899   1.677  0.00  0.00    +0.410 C 
ATOM     18  O   LIG    1        5.145  -4.506   2.698  0.00  0.00    -0.410 OA
BRANCH  17  19
ATOM     19  C   LIG    1        5.696  -4.634   0.440  0.00  0.00    -0.170 A 
ATOM     20  C   LIG    1        5.970  -3.936  -0.741  0.00  0.00    +0.070 A 
ATOM     21  C   LIG    1        6.265  -4.626  -1.899  0.00  0.00    +0.020 A 
ATOM     22  C   LIG    1        6.280  -6.007  -1.903  0.00  0.00    +0.070 A 
ATOM     23  C   LIG    1        6.003  -6.716  -0.734  0.00  0.00    -0.030 A 
ATOM     24  C   LIG    1        5.710  -6.030   0.440  0.00  0.00    +0.130 A 
BRANCH  23  25
ATOM     25  C   LIG    1        6.021  -8.200  -0.743  0.00  0.00    +0.100 A 
ATOM     26  C   LIG    1        6.292  -8.923  -1.847  0.00  0.00    -0.070 A 
ATOM     27  S   LIG    1        6.209 -10.628  -1.411  0.00  0.00    +0.140 S 
ATOM     28  C   LIG    1        5.813 -10.210   0.198  0.00  0.00    +0.230 A 
ATOM     29  N   LIG    1        5.767  -8.930   0.333  0.00  0.00    -0.460 NA
ENDBRANCH  23  25
ENDBRANCH  17  19
ENDBRANCH   1  17
BRANCH   1  30
ATOM     30  C   LIG    1        6.739  -1.887   1.883  0.00  0.00    +0.200 C 
ATOM     31  N   LIG    1        7.794  -1.498   2.044  0.00  0.00    -0.370 NA
ENDBRANCH   1  30
TORSDOF 8
