REMARK  Name = ZINCvU0000000DIn.0
REMARK                            x       y       z     vdW  Elec       q    Type
REMARK                         _______ _______ _______ _____ _____    ______ ____
ROOT
ATOM      1  N   LIG    1       -0.033   1.100   2.467  0.00  0.00    -0.450 N 
ATOM      2  C   LIG    1        1.042   1.679   3.079  0.00  0.00    +0.150 A 
ATOM      3  N   LIG    1        1.350   0.932   4.116  0.00  0.00    -0.290 NA
ATOM      4  N   LIG    1        0.547  -0.068   4.192  0.00  0.00    -0.260 NA
ATOM      5  C   LIG    1       -0.327  -0.018   3.214  0.00  0.00    +0.220 A 
ENDROOT
BRANCH   5   6
ATOM      6  C   LIG    1       -1.419  -0.981   2.960  0.00  0.00    -0.010 A 
ATOM      7  C   LIG    1       -1.861  -1.824   3.981  0.00  0.00    +0.090 A 
ATOM      8  C   LIG    1       -2.883  -2.719   3.740  0.00  0.00    +0.040 A 
ATOM      9  C   LIG    1       -3.464  -2.788   2.485  0.00  0.00    -0.020 A 
ATOM     10  C   LIG    1       -3.026  -1.957   1.466  0.00  0.00    +0.040 A 
ATOM     11 CL   LIG    1       -4.745  -3.921   2.186  0.00  0.00    -0.060 Cl
ATOM     12  C   LIG    1       -2.008  -1.056   1.697  0.00  0.00    +0.030 A 
ENDBRANCH   5   6
BRANCH   1  13
ATOM     13  C   LIG    1       -0.731   1.573   1.270  0.00  0.00    +0.320 C 
BRANCH  13  14
ATOM     14  C   LIG    1       -0.036   1.022   0.023  0.00  0.00    +0.030 C 
BRANCH  14  15
ATOM     15  C   LIG    1       -0.765   1.516  -1.228  0.00  0.00    +0.170 C 
BRANCH  15  17
ATOM     16  C   LIG    1       -0.722   1.405  -3.622  0.00  0.00    +0.200 C 
ATOM     17  O   LIG    1       -0.116   1.001  -2.392  0.00  0.00    -0.390 OA
ENDBRANCH  15  17
ENDBRANCH  14  15
ENDBRANCH  13  14
ENDBRANCH   1  13
BRANCH   2  18
ATOM     18  S   LIG    1        1.863   3.154   2.574  0.00  0.00    +0.060 S 
BRANCH  18  19
ATOM     19  C   LIG    1        3.140   3.257   3.852  0.00  0.00    +0.090 C 
BRANCH  19  20
ATOM     20  C   LIG    1        3.990   4.479   3.616  0.00  0.00    +0.470 C 
ATOM     21  O   LIG    1        3.699   5.260   2.733  0.00  0.00    -0.430 OA
BRANCH  20  22
ATOM     22  C   LIG    1        5.129   4.717   4.425  0.00  0.00    -0.270 A 
ATOM     23  C   LIG    1        5.192   5.502   5.557  0.00  0.00    +0.150 A 
ATOM     24  N   LIG    1        6.444   5.484   6.051  0.00  0.00    -0.570 N 
ATOM     25  H   LIG    1        6.731   5.963   6.844  0.00  0.00    +0.420 HD
ATOM     26  C   LIG    1        7.264   4.690   5.275  0.00  0.00    +0.090 A 
ATOM     27  C   LIG    1        8.610   4.350   5.356  0.00  0.00    +0.000 A 
ATOM     28  C   LIG    1        9.164   3.502   4.421  0.00  0.00    +0.030 A 
ATOM     29  C   LIG    1        8.393   2.992   3.386  0.00  0.00    +0.000 A 
ATOM     30  C   LIG    1        7.059   3.321   3.286  0.00  0.00    +0.040 A 
ATOM     31  C   LIG    1        4.035   6.265   6.149  0.00  0.00    +0.150 C 
ATOM     32  C   LIG    1        6.486   4.169   4.229  0.00  0.00    -0.060 A 
ENDBRANCH  20  22
ENDBRANCH  19  20
ENDBRANCH  18  19
ENDBRANCH   2  18
TORSDOF 9
