REMARK  Name = ZINCrD00000F5LIJ.2
REMARK                            x       y       z     vdW  Elec       q    Type
REMARK                         _______ _______ _______ _____ _____    ______ ____
ROOT
ATOM      1  N   LIG    1        0.497   3.421  -2.091  0.00  0.00    -0.510 NA
ENDROOT
BRANCH   1   2
ATOM      2  C   LIG    1        0.266   4.868  -2.190  0.00  0.00    +0.260 C 
BRANCH   2   6
ATOM      3  C   LIG    1       -1.925   5.689  -5.675  0.00  0.00    +0.260 A 
ATOM      4  C   LIG    1       -2.641   5.549  -4.489  0.00  0.00    +0.030 A 
ATOM      5  C   LIG    1       -1.931   5.272  -3.330  0.00  0.00    +0.100 A 
ATOM      6  C   LIG    1       -0.551   5.162  -3.422  0.00  0.00    +0.050 A 
ATOM      7  N   LIG    1        0.045   5.311  -4.589  0.00  0.00    -0.200 NA
ATOM      8  N   LIG    1       -0.608   5.561  -5.665  0.00  0.00    -0.300 NA
BRANCH   3  10
ATOM      9  C   LIG    1       -1.775   6.086  -8.012  0.00  0.00    +0.250 C 
ATOM     10  O   LIG    1       -2.575   5.955  -6.836  0.00  0.00    -0.300 OA
ENDBRANCH   3  10
ENDBRANCH   2   6
ENDBRANCH   1   2
BRANCH   1  11
ATOM     11  C   LIG    1        0.931   3.049  -0.738  0.00  0.00    +0.210 C 
BRANCH  11  12
ATOM     12  C   LIG    1        0.922   1.525  -0.599  0.00  0.00    +0.170 C 
BRANCH  12  13
ATOM     13  O   LIG    1       -0.401   1.035  -0.827  0.00  0.00    -0.370 OA
ATOM     14  C   LIG    1       -0.448  -0.318  -1.286  0.00  0.00    +0.190 C 
ENDBRANCH  12  13
BRANCH  12  15
ATOM     15  C   LIG    1        1.374   1.138   0.810  0.00  0.00    +0.010 C 
BRANCH  15  16
ATOM     16  C   LIG    1        0.392   1.709   1.835  0.00  0.00    +0.000 C 
ATOM     17  C   LIG    1        0.746   3.130   2.302  0.00  0.00    -0.000 C 
ATOM     18  C   LIG    1        0.332   2.685   3.715  0.00  0.00    -0.000 C 
ATOM     19  C   LIG    1        0.671   1.251   3.277  0.00  0.00    -0.000 C 
ENDBRANCH  15  16
ENDBRANCH  12  15
ENDBRANCH  11  12
ENDBRANCH   1  11
BRANCH   1  20
ATOM     20  C   LIG    1        1.469   2.973  -3.097  0.00  0.00    +0.270 C 
BRANCH  20  21
ATOM     21  C   LIG    1        2.759   3.732  -2.922  0.00  0.00    -0.150 A 
ATOM     22  C   LIG    1        3.001   4.865  -3.674  0.00  0.00    +0.060 A 
ATOM     23  C   LIG    1        4.185   5.562  -3.514  0.00  0.00    -0.010 A 
ATOM     24  C   LIG    1        5.129   5.127  -2.603  0.00  0.00    +0.020 A 
ATOM     25  C   LIG    1        4.891   3.993  -1.849  0.00  0.00    -0.020 A 
ATOM     26  C   LIG    1        3.702   3.296  -2.003  0.00  0.00    +0.110 A 
BRANCH  26  27
ATOM     27  O   LIG    1        3.464   2.184  -1.259  0.00  0.00    -0.490 OA
ATOM     28  H   LIG    1        3.773   1.364  -1.667  0.00  0.00    +0.380 HD
ENDBRANCH  26  27
ENDBRANCH  20  21
ENDBRANCH   1  20
TORSDOF 11
