REMARK  Name = ZINCpk00000l7jZ5.0
REMARK                            x       y       z     vdW  Elec       q    Type
REMARK                         _______ _______ _______ _____ _____    ______ ____
ROOT
ATOM      1  O   LIG    1        0.088   0.015   0.198  0.00  0.00    -0.520 OA
ATOM      2  C   LIG    1       -0.014   1.211   0.009  0.00  0.00    +0.570 C 
ATOM      3  N   LIG    1        1.081   1.946  -0.266  0.00  0.00    -0.590 N 
ATOM      4  C   LIG    1        0.966   3.360  -0.657  0.00  0.00    +0.270 C 
ATOM      5  C   LIG    1        1.778   3.581  -1.933  0.00  0.00    +0.210 C 
ATOM      6  O   LIG    1        3.104   3.082  -1.742  0.00  0.00    -0.360 OA
ATOM      7  C   LIG    1        3.171   1.677  -1.490  0.00  0.00    +0.080 C 
ATOM      8  C   LIG    1        4.635   1.250  -1.358  0.00  0.00    +0.050 C 
ATOM      9  C   LIG    1        5.350   1.499  -2.690  0.00  0.00    +0.010 C 
ATOM     10  C   LIG    1        4.619   0.741  -3.801  0.00  0.00    +0.210 C 
ATOM     11  O   LIG    1        3.256   1.166  -3.850  0.00  0.00    -0.370 OA
ATOM     12  C   LIG    1        2.523   0.916  -2.648  0.00  0.00    +0.190 C 
ATOM     13  C   LIG    1        2.428   1.357  -0.189  0.00  0.00    +0.280 C 
ENDROOT
BRANCH   2  14
ATOM     14  C   LIG    1       -1.347   1.860   0.074  0.00  0.00    +0.150 A 
ATOM     15  C   LIG    1       -2.502   1.093   0.180  0.00  0.00    -0.020 A 
ATOM     16  C   LIG    1       -3.732   1.756   0.243  0.00  0.00    +0.370 A 
ATOM     17  N   LIG    1       -3.752   3.083   0.188  0.00  0.00    -0.540 NA
ATOM     18  C   LIG    1       -2.633   3.773   0.082  0.00  0.00    +0.530 A 
ATOM     19  N   LIG    1       -1.456   3.188   0.025  0.00  0.00    -0.520 NA
BRANCH  16  20
ATOM     20  N   LIG    1       -4.912   1.040   0.355  0.00  0.00    -0.470 N 
ATOM     21  C   LIG    1       -5.039   0.061  -0.733  0.00  0.00    +0.200 C 
ATOM     22  C   LIG    1       -6.277  -0.808  -0.497  0.00  0.00    +0.040 C 
ATOM     23  C   LIG    1       -7.519   0.085  -0.442  0.00  0.00    +0.000 C 
ATOM     24  C   LIG    1       -7.341   1.126   0.667  0.00  0.00    +0.030 C 
ATOM     25  C   LIG    1       -6.072   1.939   0.397  0.00  0.00    +0.210 C 
ENDBRANCH  16  20
ENDBRANCH   2  14
TORSDOF 2
