REMARK  Name = ZINCrD00000l0WA1.0
REMARK                            x       y       z     vdW  Elec       q    Type
REMARK                         _______ _______ _______ _____ _____    ______ ____
ROOT
ATOM      1  C   LIG    1        3.905  -0.779   0.482  0.00  0.00    +0.020 C 
ATOM      2  C   LIG    1        4.756  -0.305   1.661  0.00  0.00    +0.090 C 
ENDROOT
BRANCH   1   3
ATOM      3  C   LIG    1        2.563  -0.094   0.524  0.00  0.00    +0.540 C 
ATOM      4  N   LIG    1        2.413   1.128  -0.026  0.00  0.00    -0.550 N 
ATOM      5  C   LIG    1        3.543   1.813  -0.671  0.00  0.00    +0.340 C 
ATOM      6  C   LIG    1        3.524   3.268  -0.278  0.00  0.00    +0.510 C 
ATOM      7  N   LIG    1        2.365   3.888   0.016  0.00  0.00    -0.660 N 
ATOM      8  H   LIG    1        2.368   4.833   0.234  0.00  0.00    +0.420 HD
ATOM      9  C   LIG    1        1.157   3.182   0.012  0.00  0.00    +0.130 A 
ATOM     10  C   LIG    1       -0.056   3.853   0.025  0.00  0.00    +0.010 A 
ATOM     11  C   LIG    1       -1.239   3.137   0.030  0.00  0.00    +0.030 A 
ATOM     12  C   LIG    1       -1.219   1.754   0.017  0.00  0.00    +0.010 A 
ATOM     13  C   LIG    1       -0.013   1.076   0.008  0.00  0.00    +0.060 A 
ATOM     14  O   LIG    1        4.565   3.888  -0.226  0.00  0.00    -0.510 OA
ATOM     15  C   LIG    1        1.174   1.786   0.000  0.00  0.00    +0.110 A 
ATOM     16  O   LIG    1        1.619  -0.642   1.052  0.00  0.00    -0.490 OA
ENDBRANCH   1   3
BRANCH   1  17
ATOM     17  S   LIG    1        3.671  -2.571   0.588  0.00  0.00    +0.030 S 
BRANCH  17  21
ATOM     18  C   LIG    1        8.609  -1.520  -0.170  0.00  0.00    +0.150 C 
ATOM     19  C   LIG    1        7.555  -2.580   0.025  0.00  0.00    +0.180 A 
ATOM     20  N   LIG    1        6.297  -2.219   0.188  0.00  0.00    -0.490 NA
ATOM     21  C   LIG    1        5.334  -3.110   0.369  0.00  0.00    +0.150 A 
ATOM     22  C   LIG    1        5.631  -4.485   0.381  0.00  0.00    -0.070 A 
ATOM     23  C   LIG    1        6.959  -4.888   0.205  0.00  0.00    +0.030 A 
ATOM     24  C   LIG    1        7.329  -6.349   0.210  0.00  0.00    +0.120 C 
ATOM     25  C   LIG    1        7.925  -3.913   0.026  0.00  0.00    -0.150 A 
ATOM     26  C   LIG    1        9.368  -4.301  -0.168  0.00  0.00    +0.120 C 
BRANCH  22  27
ATOM     27  C   LIG    1        4.593  -5.453   0.571  0.00  0.00    +0.250 C 
ATOM     28  N   LIG    1        3.770  -6.222   0.722  0.00  0.00    -0.390 NA
ENDBRANCH  22  27
ENDBRANCH  17  21
ENDBRANCH   1  17
TORSDOF 4
