REMARK  Name = ZINCqH0000005Qmb.0
REMARK                            x       y       z     vdW  Elec       q    Type
REMARK                         _______ _______ _______ _____ _____    ______ ____
ROOT
ATOM      1  N   LIG    1       -6.912   2.244   0.551  0.00  0.00    -0.610 N 
ATOM      2  C   LIG    1       -5.674   2.189   0.021  0.00  0.00    +0.570 C 
ATOM      3  O   LIG    1       -5.527   1.905  -1.152  0.00  0.00    -0.520 OA
ATOM      4  C   LIG    1       -7.097   2.689   1.934  0.00  0.00    +0.300 C 
ENDROOT
BRANCH   2   5
ATOM      5  C   LIG    1       -4.496   2.475   0.865  0.00  0.00    -0.160 A 
ATOM      6  C   LIG    1       -3.328   1.715   0.717  0.00  0.00    +0.080 A 
ATOM      7  C   LIG    1       -2.232   1.966   1.488  0.00  0.00    +0.000 A 
ATOM      8  C   LIG    1       -2.261   2.986   2.437  0.00  0.00    +0.120 A 
ATOM      9  N   LIG    1       -1.338   3.462   3.337  0.00  0.00    -0.590 N 
ATOM     10  H   LIG    1       -0.439   3.114   3.448  0.00  0.00    +0.420 HD
ATOM     11  C   LIG    1       -1.874   4.498   4.053  0.00  0.00    +0.080 A 
ATOM     12  C   LIG    1       -3.134   4.727   3.654  0.00  0.00    -0.170 A 
ATOM     13  C   LIG    1       -4.068   5.780   4.192  0.00  0.00    +0.100 C 
ATOM     14  C   LIG    1       -1.154   5.267   5.131  0.00  0.00    +0.140 C 
ATOM     15  C   LIG    1       -3.432   3.754   2.599  0.00  0.00    -0.110 A 
ATOM     16  C   LIG    1       -4.547   3.499   1.806  0.00  0.00    +0.100 A 
ENDBRANCH   2   5
BRANCH   1  17
ATOM     17  C   LIG    1       -8.072   1.857  -0.256  0.00  0.00    +0.420 C 
BRANCH  17  21
ATOM     18  C   LIG    1       -9.079  -1.613   0.631  0.00  0.00    -0.240 A 
ATOM     19  C   LIG    1       -8.241  -1.793  -0.431  0.00  0.00    +0.100 A 
ATOM     20  O   LIG    1       -7.816  -0.594  -0.842  0.00  0.00    -0.160 OA
ATOM     21  C   LIG    1       -8.336   0.384  -0.083  0.00  0.00    -0.030 A 
ATOM     22  C   LIG    1       -7.864  -3.118  -1.042  0.00  0.00    +0.200 C 
ATOM     23  C   LIG    1       -9.132  -0.159   0.850  0.00  0.00    +0.010 A 
BRANCH  18  24
ATOM     24  C   LIG    1       -9.783  -2.655   1.397  0.00  0.00    +0.540 C 
ATOM     25  O   LIG    1       -9.644  -3.825   1.100  0.00  0.00    -0.510 OA
BRANCH  24  27
ATOM     26  C   LIG    1      -11.243  -3.390   3.137  0.00  0.00    +0.260 C 
ATOM     27  O   LIG    1      -10.580  -2.311   2.427  0.00  0.00    -0.350 OA
ENDBRANCH  24  27
ENDBRANCH  18  24
ENDBRANCH  17  21
ENDBRANCH   1  17
TORSDOF 5
