REMARK  Name = ZINCpk00000MAee6.0
REMARK                            x       y       z     vdW  Elec       q    Type
REMARK                         _______ _______ _______ _____ _____    ______ ____
ROOT
ATOM      1  C   LIG    1        5.516   5.760   0.792  0.00  0.00    +0.050 C 
ATOM      2  C   LIG    1        4.315   5.851  -0.151  0.00  0.00    +0.170 C 
ATOM      3  C   LIG    1        3.060   5.276   0.540  0.00  0.00    +0.050 C 
ATOM      4  C   LIG    1        2.999   3.825  -0.006  0.00  0.00    +0.240 C 
ATOM      5  C   LIG    1        3.509   4.015  -1.456  0.00  0.00    +0.270 C 
ATOM      6  C   LIG    1        4.074   7.310  -0.545  0.00  0.00    +0.040 C 
ATOM      7  N   LIG    1        4.561   5.043  -1.354  0.00  0.00    -0.590 N 
ATOM      8  C   LIG    1        5.580   5.213  -2.220  0.00  0.00    +0.620 C 
ATOM      9  O   LIG    1        6.393   6.098  -2.036  0.00  0.00    -0.530 OA
ENDROOT
BRANCH   8  10
ATOM     10  C   LIG    1        5.708   4.326  -3.392  0.00  0.00    +0.010 A 
ATOM     11  C   LIG    1        6.683   4.393  -4.345  0.00  0.00    +0.190 A 
ATOM     12  N   LIG    1        6.437   3.397  -5.242  0.00  0.00    -0.370 N 
ATOM     13  C   LIG    1        7.085   3.004  -6.380  0.00  0.00    +0.270 A 
ATOM     14  C   LIG    1        6.625   1.968  -7.110  0.00  0.00    +0.000 A 
ATOM     15  C   LIG    1        5.467   1.275  -6.709  0.00  0.00    +0.130 A 
ATOM     16  C   LIG    1        4.811   1.656  -5.578  0.00  0.00    +0.050 A 
ATOM     17  F   LIG    1        5.009   0.237  -7.442  0.00  0.00    -0.120 F 
ATOM     18  C   LIG    1        5.305   2.741  -4.825  0.00  0.00    +0.250 A 
ATOM     19  N   LIG    1        4.879   3.313  -3.710  0.00  0.00    -0.460 NA
ENDBRANCH   8  10
BRANCH   4  20
ATOM     20  N   LIG    1        1.624   3.318   0.004  0.00  0.00    -0.720 N 
ATOM     21  H   LIG    1        0.878   3.938   0.015  0.00  0.00    +0.410 HD
ATOM     22  C   LIG    1        1.396   1.989  -0.001  0.00  0.00    +0.520 C 
ATOM     23  O   LIG    1        2.328   1.214  -0.014  0.00  0.00    -0.520 OA
BRANCH  22  24
ATOM     24  C   LIG    1       -0.018   1.468   0.010  0.00  0.00    +0.240 C 
BRANCH  24  25
ATOM     25  C   LIG    1        0.002  -0.004   0.002  0.00  0.00    +0.210 C 
ATOM     26  N   LIG    1        0.018  -1.140  -0.004  0.00  0.00    -0.410 NA
ENDBRANCH  24  25
ENDBRANCH  22  24
ENDBRANCH   4  20
TORSDOF 4
