REMARK  Name = ZINCfA000001ohd9.0
REMARK                            x       y       z     vdW  Elec       q    Type
REMARK                         _______ _______ _______ _____ _____    ______ ____
ROOT
ATOM      1  S   LIG    1       -0.022   1.806   0.012  0.00  0.00    +0.060 S 
ENDROOT
BRANCH   1   2
ATOM      2  C   LIG    1        1.708   2.135  -0.003  0.00  0.00    +0.460 C 
ATOM      3  N   LIG    1        2.547   1.109  -0.011  0.00  0.00    -0.650 NA
ATOM      4  C   LIG    1        3.997   1.306  -0.032  0.00  0.00    +0.310 C 
ATOM      5  C   LIG    1        4.332   2.630   0.663  0.00  0.00    +0.060 C 
ATOM      6  C   LIG    1        3.532   3.748  -0.016  0.00  0.00    +0.320 C 
ATOM      7  H   LIG    1        2.191   0.206  -0.006  0.00  0.00    +0.440 HD
ATOM      8  N   LIG    1        2.111   3.398   0.000  0.00  0.00    -0.620 NA
ATOM      9  H   LIG    1        1.449   4.107   0.013  0.00  0.00    +0.440 HD
ENDBRANCH   1   2
BRANCH   1  10
ATOM     10  C   LIG    1        0.002  -0.004   0.002  0.00  0.00    +0.140 C 
BRANCH  10  15
ATOM     11 BR   LIG    1       -5.779  -2.139   0.046  0.00  0.00    -0.020 Br
ATOM     12  C   LIG    1       -4.005  -1.484   0.032  0.00  0.00    -0.070 A 
ATOM     13  C   LIG    1       -3.368  -1.237  -1.170  0.00  0.00    +0.050 A 
ATOM     14  C   LIG    1       -2.071  -0.758  -1.180  0.00  0.00    +0.060 A 
ATOM     15  C   LIG    1       -1.412  -0.526   0.013  0.00  0.00    -0.100 A 
ATOM     16  C   LIG    1       -2.047  -0.777   1.215  0.00  0.00    +0.060 A 
ATOM     17  C   LIG    1       -3.345  -1.251   1.225  0.00  0.00    +0.050 A 
ENDBRANCH  10  15
ENDBRANCH   1  10
TORSDOF 3
