REMARK  Name = ZINCrD00000F5LEg.0
REMARK                            x       y       z     vdW  Elec       q    Type
REMARK                         _______ _______ _______ _____ _____    ______ ____
ROOT
ATOM      1  C   LIG    1       -0.718   1.572   1.248  0.00  0.00    +0.520 C 
ATOM      2  N   LIG    1       -0.242   1.246   2.466  0.00  0.00    -0.620 N 
ATOM      3  H   LIG    1        0.555   0.699   2.544  0.00  0.00    +0.430 HD
ATOM      4  O   LIG    1       -1.715   2.256   1.150  0.00  0.00    -0.470 OA
ENDROOT
BRANCH   2   5
ATOM      5  C   LIG    1       -0.892   1.694   3.609  0.00  0.00    +0.240 A 
ATOM      6  N   LIG    1       -0.522   1.435   4.824  0.00  0.00    -0.490 NA
ATOM      7  C   LIG    1       -1.256   1.946   5.795  0.00  0.00    +0.100 A 
ATOM      8  C   LIG    1       -2.302   2.664   5.380  0.00  0.00    -0.120 A 
ATOM      9  S   LIG    1       -2.302   2.662   3.619  0.00  0.00    +0.260 S 
BRANCH   7  10
ATOM     10  C   LIG    1       -0.942   1.732   7.253  0.00  0.00    +0.210 C 
BRANCH  10  11
ATOM     11  C   LIG    1       -0.845   0.255   7.534  0.00  0.00    +0.460 C 
ATOM     12  O   LIG    1       -1.015  -0.543   6.642  0.00  0.00    -0.490 OA
BRANCH  11  13
ATOM     13  O   LIG    1       -0.572  -0.176   8.776  0.00  0.00    -0.360 OA
BRANCH  13  14
ATOM     14  C   LIG    1       -0.494  -1.612   8.974  0.00  0.00    +0.200 C 
ATOM     15  C   LIG    1       -0.176  -1.909  10.441  0.00  0.00    +0.070 C 
ENDBRANCH  13  14
ENDBRANCH  11  13
ENDBRANCH  10  11
ENDBRANCH   7  10
ENDBRANCH   2   5
BRANCH   1  16
ATOM     16  C   LIG    1       -0.013   1.086   0.008  0.00  0.00    +0.250 C 
BRANCH  16  17
ATOM     17  O   LIG    1       -0.704   1.559  -1.150  0.00  0.00    -0.280 OA
BRANCH  17  21
ATOM     18  C   LIG    1        0.847   0.488  -4.829  0.00  0.00    -0.040 A 
ATOM     19  C   LIG    1        1.469   0.063  -3.654  0.00  0.00    +0.020 A 
ATOM     20  C   LIG    1        0.948   0.423  -2.428  0.00  0.00    -0.030 A 
ATOM     21  C   LIG    1       -0.194   1.207  -2.360  0.00  0.00    +0.090 A 
ATOM     22  C   LIG    1       -0.823   1.631  -3.529  0.00  0.00    +0.110 A 
ATOM     23  C   LIG    1       -0.302   1.278  -4.760  0.00  0.00    -0.020 A 
BRANCH  18  26
ATOM     24  C   LIG    1        3.064  -1.037  -7.545  0.00  0.00    +0.070 C 
ATOM     25  C   LIG    1        2.496  -0.645  -6.205  0.00  0.00    -0.030 C 
ATOM     26  C   LIG    1        1.404   0.104  -6.142  0.00  0.00    -0.010 C 
ENDBRANCH  18  26
BRANCH  22  27
ATOM     27  O   LIG    1       -1.945   2.396  -3.459  0.00  0.00    -0.300 OA
ATOM     28  C   LIG    1       -2.537   2.794  -4.697  0.00  0.00    +0.240 C 
ENDBRANCH  22  27
ENDBRANCH  17  21
ENDBRANCH  16  17
ENDBRANCH   1  16
TORSDOF 10
