REMARK  Name = ZINCrD0000073EF4.0
REMARK                            x       y       z     vdW  Elec       q    Type
REMARK                         _______ _______ _______ _____ _____    ______ ____
ROOT
ATOM      1  O   LIG    1       -0.304  -3.935   0.121  0.00  0.00    -0.280 OA
ENDROOT
BRANCH   1   2
ATOM      2  C   LIG    1       -0.195  -2.582   0.116  0.00  0.00    +0.150 A 
ATOM      3  C   LIG    1       -1.328  -1.794   0.286  0.00  0.00    -0.010 A 
ATOM      4  C   LIG    1       -1.221  -0.422   0.281  0.00  0.00    +0.090 A 
ATOM      5  C   LIG    1        0.028   0.180   0.105  0.00  0.00    -0.170 A 
ATOM      6  C   LIG    1        1.163  -0.615  -0.072  0.00  0.00    +0.120 A 
ATOM      7  C   LIG    1        1.049  -1.988  -0.059  0.00  0.00    -0.080 A 
BRANCH   5   8
ATOM      8  C   LIG    1        0.146   1.651   0.099  0.00  0.00    +0.560 C 
ATOM      9  N   LIG    1       -0.663   2.396   0.877  0.00  0.00    -0.610 N 
ATOM     10  C   LIG    1       -1.596   1.755   1.815  0.00  0.00    +0.260 C 
ATOM     11  C   LIG    1       -1.361   2.343   3.215  0.00  0.00    +0.010 C 
ATOM     12  C   LIG    1       -1.483   3.867   3.150  0.00  0.00    +0.020 C 
ATOM     13  C   LIG    1       -0.415   4.426   2.207  0.00  0.00    +0.010 C 
ATOM     14  C   LIG    1       -0.635   3.862   0.800  0.00  0.00    +0.270 C 
ATOM     15  O   LIG    1        0.978   2.191  -0.605  0.00  0.00    -0.540 OA
ENDBRANCH   5   8
ENDBRANCH   1   2
BRANCH   1  16
ATOM     16  C   LIG    1        0.900  -4.683  -0.059  0.00  0.00    +0.240 C 
BRANCH  16  19
ATOM     17  N   LIG    1        1.573  -7.061  -0.175  0.00  0.00    -0.670 N 
ATOM     18  H   LIG    1        2.496  -6.766  -0.230  0.00  0.00    +0.420 HD
ATOM     19  C   LIG    1        0.585  -6.157  -0.025  0.00  0.00    +0.510 C 
ATOM     20  O   LIG    1       -0.558  -6.529   0.138  0.00  0.00    -0.480 OA
BRANCH  17  25
ATOM     21  C   LIG    1       -0.268 -10.185  -0.800  0.00  0.00    +0.150 A 
ATOM     22  C   LIG    1        0.672 -11.125  -0.402  0.00  0.00    -0.090 A 
ATOM     23  C   LIG    1        1.905 -10.716   0.070  0.00  0.00    +0.070 A 
ATOM     24  C   LIG    1        2.208  -9.370   0.140  0.00  0.00    -0.050 A 
ATOM     25  C   LIG    1        1.269  -8.424  -0.252  0.00  0.00    +0.190 A 
ATOM     26  C   LIG    1        0.030  -8.833  -0.725  0.00  0.00    -0.010 A 
BRANCH  21  28
ATOM     27  C   LIG    1       -1.718 -11.997  -1.313  0.00  0.00    +0.250 C 
ATOM     28  O   LIG    1       -1.480 -10.589  -1.264  0.00  0.00    -0.310 OA
ENDBRANCH  21  28
ENDBRANCH  17  25
ENDBRANCH  16  19
ENDBRANCH   1  16
TORSDOF 6
