REMARK  Name = ZINCrD000000fzBu.0
REMARK                            x       y       z     vdW  Elec       q    Type
REMARK                         _______ _______ _______ _____ _____    ______ ____
ROOT
ATOM      1  C   LIG    1       -0.863   2.928   2.845  0.00  0.00    +0.200 C 
ATOM      2  C   LIG    1       -1.432   3.243   4.230  0.00  0.00    +0.050 C 
ATOM      3  C   LIG    1        0.023   2.795   4.084  0.00  0.00    -0.120 C 
ATOM      4  C   LIG    1        1.115   3.848   4.295  0.00  0.00    +0.060 C 
ATOM      5  C   LIG    1        1.510   3.860   5.776  0.00  0.00    +0.270 C 
ATOM      6  N   LIG    1        1.813   2.486   6.197  0.00  0.00    -0.600 N 
ATOM      7  C   LIG    1        0.792   1.444   6.031  0.00  0.00    +0.300 C 
ATOM      8  C   LIG    1        3.014   2.185   6.729  0.00  0.00    +0.560 C 
ATOM      9  O   LIG    1        3.232   1.063   7.142  0.00  0.00    -0.510 OA
ATOM     10  C   LIG    1        0.383   1.383   4.554  0.00  0.00    +0.060 C 
ENDROOT
BRANCH   8  11
ATOM     11  C   LIG    1        4.068   3.221   6.811  0.00  0.00    -0.120 A 
ATOM     12  C   LIG    1        3.821   4.451   7.430  0.00  0.00    +0.030 A 
ATOM     13  C   LIG    1        4.834   5.387   7.489  0.00  0.00    +0.260 A 
ATOM     14  N   LIG    1        6.017   5.141   6.963  0.00  0.00    -0.440 NA
ATOM     15  C   LIG    1        6.293   3.999   6.365  0.00  0.00    +0.260 A 
ATOM     16  C   LIG    1        5.339   3.001   6.265  0.00  0.00    +0.090 A 
ATOM     17  F   LIG    1        5.629   1.833   5.652  0.00  0.00    -0.110 F 
ENDBRANCH   8  11
BRANCH   1  20
ATOM     18  C   LIG    1       -3.632   2.332   2.748  0.00  0.00    +0.080 C 
ATOM     19  C   LIG    1       -2.623   1.409   2.116  0.00  0.00    +0.520 C 
ATOM     20  N   LIG    1       -1.307   1.692   2.196  0.00  0.00    -0.580 N 
ATOM     21  O   LIG    1       -2.994   0.410   1.536  0.00  0.00    -0.540 OA
BRANCH  20  22
ATOM     22  C   LIG    1       -0.323   0.764   1.635  0.00  0.00    +0.350 C 
BRANCH  22  23
ATOM     23  C   LIG    1       -0.056   1.126   0.196  0.00  0.00    -0.120 A 
ATOM     24  C   LIG    1        0.902   1.982  -0.163  0.00  0.00    -0.040 A 
ATOM     25  S   LIG    1        0.915   2.153  -1.913  0.00  0.00    +0.100 S 
ATOM     26  C   LIG    1       -0.421   1.019  -2.064  0.00  0.00    -0.050 A 
ATOM     27  C   LIG    1       -0.782   0.590  -0.853  0.00  0.00    +0.020 A 
ENDBRANCH  22  23
ENDBRANCH  20  22
ENDBRANCH   1  20
TORSDOF 4
