REMARK  Name = ZINCrg00000aibij.0
REMARK                            x       y       z     vdW  Elec       q    Type
REMARK                         _______ _______ _______ _____ _____    ______ ____
ROOT
ATOM      1  C   LIG    1       -8.309   2.667   0.145  0.00  0.00    +0.580 C 
ATOM      2  N   LIG    1       -7.845   1.901  -0.862  0.00  0.00    -0.590 N 
ATOM      3  C   LIG    1       -8.396   2.032  -2.218  0.00  0.00    +0.290 C 
ATOM      4  C   LIG    1       -8.847   0.650  -2.703  0.00  0.00    +0.050 C 
ATOM      5  C   LIG    1       -7.678  -0.331  -2.591  0.00  0.00    +0.040 C 
ATOM      6  C   LIG    1       -7.247  -0.450  -1.128  0.00  0.00    +0.250 C 
ATOM      7  C   LIG    1       -6.778   0.919  -0.625  0.00  0.00    +0.300 C 
ATOM      8  O   LIG    1       -9.145   3.522  -0.077  0.00  0.00    -0.490 OA
ENDROOT
BRANCH   1  13
ATOM      9  C   LIG    1       -8.178   2.369   3.885  0.00  0.00    +0.230 A 
ATOM     10  C   LIG    1       -6.839   2.095   4.070  0.00  0.00    -0.190 A 
ATOM     11  C   LIG    1       -5.997   2.014   2.945  0.00  0.00    +0.510 A 
ATOM     12  O   LIG    1       -6.497   2.201   1.712  0.00  0.00    -0.260 OA
ATOM     13  C   LIG    1       -7.802   2.468   1.519  0.00  0.00    +0.100 A 
ATOM     14  O   LIG    1       -4.811   1.773   3.090  0.00  0.00    -0.460 OA
ATOM     15  C   LIG    1       -8.658   2.564   2.567  0.00  0.00    +0.020 A 
BRANCH   9  16
ATOM     16  O   LIG    1       -9.017   2.454   4.944  0.00  0.00    -0.290 OA
BRANCH  16  18
ATOM     17  C   LIG    1       -9.542   2.384   7.302  0.00  0.00    +0.080 C 
ATOM     18  C   LIG    1       -8.450   2.249   6.240  0.00  0.00    +0.210 C 
ENDBRANCH  16  18
ENDBRANCH   9  16
ENDBRANCH   1  13
BRANCH   6  19
ATOM     19  N   LIG    1       -6.149  -1.413  -1.018  0.00  0.00    -0.290 N 
ATOM     20  C   LIG    1       -4.836  -1.143  -1.201  0.00  0.00    +0.140 A 
ATOM     21  C   LIG    1       -4.179  -2.310  -1.004  0.00  0.00    -0.000 A 
ATOM     22  N   LIG    1       -5.112  -3.227  -0.721  0.00  0.00    -0.260 NA
ATOM     23  N   LIG    1       -6.267  -2.662  -0.731  0.00  0.00    -0.080 NA
BRANCH  21  24
ATOM     24  C   LIG    1       -2.692  -2.535  -1.094  0.00  0.00    +0.100 C 
BRANCH  24  25
ATOM     25  C   LIG    1       -2.190  -3.156   0.211  0.00  0.00    +0.220 C 
ATOM     26  C   LIG    1       -0.705  -3.498   0.076  0.00  0.00    +0.010 C 
BRANCH  25  27
ATOM     27  O   LIG    1       -2.368  -2.225   1.281  0.00  0.00    -0.560 OA
ATOM     28  H   LIG    1       -1.893  -1.391   1.160  0.00  0.00    +0.370 HD
ENDBRANCH  25  27
ENDBRANCH  24  25
ENDBRANCH  21  24
ENDBRANCH   6  19
TORSDOF 7
