REMARK  Name = ZINCkj000005jyCr.1
REMARK                            x       y       z     vdW  Elec       q    Type
REMARK                         _______ _______ _______ _____ _____    ______ ____
ROOT
ATOM      1  C   LIG    1       -1.249   6.250  -0.105  0.00  0.00    +0.500 C 
ATOM      2  N   LIG    1       -0.200   5.603   0.441  0.00  0.00    -0.650 N 
ATOM      3  H   LIG    1        0.514   6.106   0.862  0.00  0.00    +0.420 HD
ATOM      4  O   LIG    1       -2.183   5.620  -0.554  0.00  0.00    -0.500 OA
ENDROOT
BRANCH   2   5
ATOM      5  C   LIG    1       -0.142   4.209   0.400  0.00  0.00    +0.150 A 
ATOM      6  C   LIG    1       -0.678   3.524  -0.686  0.00  0.00    +0.020 A 
ATOM      7  C   LIG    1       -0.622   2.149  -0.730  0.00  0.00    +0.090 A 
ATOM      8  C   LIG    1       -0.026   1.442   0.317  0.00  0.00    -0.020 A 
ATOM      9  C   LIG    1        0.506   2.133   1.409  0.00  0.00    +0.100 A 
ATOM     10  C   LIG    1        0.452   3.509   1.444  0.00  0.00    +0.010 A 
BRANCH   8  11
ATOM     11  C   LIG    1        0.035   0.011   0.275  0.00  0.00    +0.240 C 
ATOM     12  N   LIG    1        0.082  -1.123   0.241  0.00  0.00    -0.390 NA
ENDBRANCH   8  11
ENDBRANCH   2   5
BRANCH   1  14
ATOM     13  C   LIG    1       -0.594   8.226  -1.453  0.00  0.00    +0.120 C 
ATOM     14  C   LIG    1       -1.260   7.756  -0.158  0.00  0.00    +0.170 C 
BRANCH  14  15
ATOM     15  N   LIG    1       -2.648   8.237  -0.119  0.00  0.00    -0.370 N 
ATOM     16  C   LIG    1       -3.309   7.721   1.086  0.00  0.00    +0.260 C 
ATOM     17  C   LIG    1       -4.778   8.151   1.089  0.00  0.00    +0.040 C 
ATOM     18  C   LIG    1       -4.856   9.680   1.078  0.00  0.00    +0.170 C 
ATOM     19  C   LIG    1       -4.099  10.211  -0.142  0.00  0.00    +0.080 C 
ATOM     20  C   LIG    1       -2.656   9.704  -0.101  0.00  0.00    +0.270 C 
ATOM     21  H   LIG    1       -3.139   7.909  -0.938  0.00  0.00    +0.430 HD
BRANCH  18  22
ATOM     22  O   LIG    1       -6.223  10.088   1.008  0.00  0.00    -0.550 OA
ATOM     23  H   LIG    1       -6.763   9.786   1.751  0.00  0.00    +0.400 HD
ENDBRANCH  18  22
ENDBRANCH  14  15
ENDBRANCH   1  14
TORSDOF 5
