REMARK  Name = ZINCrH000004sg6h.0
REMARK                            x       y       z     vdW  Elec       q    Type
REMARK                         _______ _______ _______ _____ _____    ______ ____
ROOT
ATOM      1  C   LIG    1        3.152  -2.715  -0.146  0.00  0.00    +0.150 A 
ATOM      2  N   LIG    1        1.862  -2.532  -0.333  0.00  0.00    -0.260 NA
ATOM      3  N   LIG    1        1.286  -3.683  -0.387  0.00  0.00    -0.250 N 
ATOM      4  C   LIG    1        2.225  -4.639  -0.231  0.00  0.00    +0.270 A 
ATOM      5  N   LIG    1        3.380  -4.040  -0.087  0.00  0.00    -0.450 NA
ENDROOT
BRANCH   1  14
ATOM      6  C   LIG    1        8.222   2.041  -0.013  0.00  0.00    +0.110 C 
ATOM      7  C   LIG    1        6.716   1.974  -0.002  0.00  0.00    -0.110 A 
ATOM      8  C   LIG    1        5.966   3.135   0.019  0.00  0.00    +0.240 A 
ATOM      9  N   LIG    1        4.649   3.084   0.029  0.00  0.00    -0.450 NA
ATOM     10  C   LIG    1        3.993   1.939   0.020  0.00  0.00    +0.080 A 
ATOM     11  C   LIG    1        2.508   1.651   0.028  0.00  0.00    +0.120 C 
ATOM     12  C   LIG    1        2.410   0.116   0.010  0.00  0.00    +0.300 C 
ATOM     13  N   LIG    1        3.797  -0.357  -0.007  0.00  0.00    -0.540 N 
ATOM     14  C   LIG    1        4.172  -1.651  -0.027  0.00  0.00    +0.630 C 
ATOM     15  O   LIG    1        5.349  -1.944   0.053  0.00  0.00    -0.480 OA
ATOM     16  C   LIG    1        4.672   0.731  -0.000  0.00  0.00    +0.100 A 
ATOM     17  C   LIG    1        6.071   0.751  -0.012  0.00  0.00    +0.060 A 
ENDBRANCH   1  14
BRANCH   3  18
ATOM     18  C   LIG    1       -0.085  -3.905  -0.576  0.00  0.00    +0.120 A 
ATOM     19  C   LIG    1       -0.518  -4.803  -1.542  0.00  0.00    +0.060 A 
ATOM     20  C   LIG    1       -1.870  -5.019  -1.726  0.00  0.00    +0.050 A 
ATOM     21  C   LIG    1       -2.792  -4.343  -0.949  0.00  0.00    +0.060 A 
ATOM     22  C   LIG    1       -2.365  -3.447   0.014  0.00  0.00    +0.050 A 
ATOM     23  C   LIG    1       -1.014  -3.231   0.208  0.00  0.00    -0.020 A 
ATOM     24 CL   LIG    1       -0.478  -2.113   1.423  0.00  0.00    -0.040 Cl
ENDBRANCH   3  18
BRANCH   4  25
ATOM     25  C   LIG    1        1.988  -6.127  -0.228  0.00  0.00    +0.020 C 
ATOM     26  C   LIG    1        3.123  -7.022   0.276  0.00  0.00    +0.080 C 
ATOM     27  C   LIG    1        2.794  -6.972  -1.217  0.00  0.00    +0.060 C 
ENDBRANCH   4  25
TORSDOF 3
