REMARK  Name = ZINCvU00000004dc.0
REMARK                            x       y       z     vdW  Elec       q    Type
REMARK                         _______ _______ _______ _____ _____    ______ ____
ROOT
ATOM      1  C   LIG    1        7.658   6.805   1.145  0.00  0.00    +0.200 A 
ATOM      2  N   LIG    1        7.147   7.763   0.411  0.00  0.00    -0.300 NA
ATOM      3  N   LIG    1        7.852   8.942   0.684  0.00  0.00    -0.330 NA
ATOM      4  C   LIG    1        8.772   8.668   1.576  0.00  0.00    +0.420 A 
ATOM      5  N   LIG    1        8.674   7.340   1.890  0.00  0.00    -0.440 N 
ENDROOT
BRANCH   5   6
ATOM      6  C   LIG    1        9.476   6.649   2.810  0.00  0.00    +0.110 A 
ATOM      7  C   LIG    1        9.425   6.974   4.159  0.00  0.00    +0.060 A 
ATOM      8  C   LIG    1       10.211   6.287   5.064  0.00  0.00    +0.060 A 
ATOM      9  C   LIG    1       11.056   5.285   4.627  0.00  0.00    +0.050 A 
ATOM     10  C   LIG    1       11.114   4.962   3.282  0.00  0.00    -0.020 A 
ATOM     11 CL   LIG    1       12.177   3.702   2.737  0.00  0.00    -0.050 Cl
ATOM     12  C   LIG    1       10.325   5.641   2.373  0.00  0.00    +0.040 A 
ENDBRANCH   5   6
BRANCH   4  13
ATOM     13  N   LIG    1        9.682   9.570   2.113  0.00  0.00    -0.440 N 
ATOM     14  C   LIG    1       11.076   9.183   1.776  0.00  0.00    +0.190 C 
ATOM     15  C   LIG    1       11.866  10.502   1.968  0.00  0.00    +0.040 C 
ATOM     16  C   LIG    1       10.881  11.574   1.449  0.00  0.00    +0.030 C 
ATOM     17  C   LIG    1        9.490  10.921   1.543  0.00  0.00    +0.210 C 
ENDBRANCH   4  13
BRANCH   1  18
ATOM     18  S   LIG    1        7.126   5.125   1.173  0.00  0.00    +0.080 S 
BRANCH  18  20
ATOM     19  C   LIG    1        6.308   5.415  -1.420  0.00  0.00    +0.110 C 
ATOM     20  C   LIG    1        5.763   5.109  -0.024  0.00  0.00    +0.150 C 
BRANCH  20  21
ATOM     21  C   LIG    1        5.113   3.749  -0.025  0.00  0.00    +0.170 A 
ATOM     22  N   LIG    1        5.730   2.600  -0.038  0.00  0.00    -0.250 NA
ATOM     23  N   LIG    1        4.865   1.648  -0.035  0.00  0.00    -0.270 NA
ATOM     24  C   LIG    1        3.657   2.160  -0.021  0.00  0.00    +0.220 A 
ATOM     25  O   LIG    1        3.792   3.502  -0.020  0.00  0.00    -0.210 OA
BRANCH  24  26
ATOM     26  C   LIG    1        2.385   1.407  -0.013  0.00  0.00    -0.030 A 
ATOM     27  C   LIG    1        1.167   2.088   0.002  0.00  0.00    +0.050 A 
ATOM     28  C   LIG    1       -0.017   1.379   0.010  0.00  0.00    +0.010 A 
ATOM     29  C   LIG    1        0.002  -0.004   0.002  0.00  0.00    +0.040 A 
ATOM     30  C   LIG    1        1.206  -0.685  -0.013  0.00  0.00    +0.020 A 
ATOM     31  C   LIG    1        2.397   0.011  -0.021  0.00  0.00    +0.080 A 
ENDBRANCH  24  26
ENDBRANCH  20  21
ENDBRANCH  18  20
ENDBRANCH   1  18
TORSDOF 6
