REMARK  Name = ZINCpk00000y6uF2.0
REMARK                            x       y       z     vdW  Elec       q    Type
REMARK                         _______ _______ _______ _____ _____    ______ ____
ROOT
ATOM      1  N   LIG    1       -2.452  -2.881   0.253  0.00  0.00    -0.720 N 
ATOM      2  H   LIG    1       -3.261  -2.353   0.342  0.00  0.00    +0.400 HD
ATOM      3  C   LIG    1       -2.522  -4.227   0.255  0.00  0.00    +0.510 C 
ATOM      4  O   LIG    1       -1.511  -4.888   0.144  0.00  0.00    -0.510 OA
ENDROOT
BRANCH   3   5
ATOM      5  C   LIG    1       -3.857  -4.912   0.395  0.00  0.00    +0.240 C 
ATOM      6  C   LIG    1       -4.502  -4.506   1.722  0.00  0.00    +0.080 C 
BRANCH   5   7
ATOM      7  N   LIG    1       -3.667  -6.364   0.369  0.00  0.00    -0.580 N 
ATOM      8  C   LIG    1       -2.901  -7.031   1.271  0.00  0.00    +0.550 C 
ATOM      9  C   LIG    1       -3.216  -8.487   1.091  0.00  0.00    +0.000 C 
ATOM     10  C   LIG    1       -2.096  -9.488   1.278  0.00  0.00    +0.110 C 
ATOM     11  C   LIG    1       -2.580 -10.803   0.702  0.00  0.00    -0.040 C 
ATOM     12  C   LIG    1       -3.575 -10.918  -0.125  0.00  0.00    -0.050 C 
ATOM     13  C   LIG    1       -4.383  -9.753  -0.658  0.00  0.00    +0.110 C 
ATOM     14  C   LIG    1       -3.558  -8.504  -0.431  0.00  0.00    +0.000 C 
ATOM     15  O   LIG    1       -2.121  -6.547   2.062  0.00  0.00    -0.450 OA
ATOM     16  C   LIG    1       -4.234  -7.173  -0.563  0.00  0.00    +0.550 C 
ATOM     17  O   LIG    1       -5.112  -6.878  -1.345  0.00  0.00    -0.470 OA
ENDBRANCH   5   7
ENDBRANCH   3   5
BRANCH   1  18
ATOM     18  C   LIG    1       -1.154  -2.216   0.117  0.00  0.00    +0.260 C 
BRANCH  18  19
ATOM     19  C   LIG    1       -1.353  -0.699   0.144  0.00  0.00    +0.100 C 
BRANCH  19  20
ATOM     20  C   LIG    1        0.002  -0.004   0.002  0.00  0.00    +0.030 C 
ATOM     21  N   LIG    1        1.198  -0.692   0.494  0.00  0.00    -0.110 NA
ATOM     22  N   LIG    1        1.066  -0.687  -0.739  0.00  0.00    -0.120 NA
BRANCH  20  23
ATOM     23  C   LIG    1       -0.019   1.526   0.010  0.00  0.00    +0.120 C 
BRANCH  23  24
ATOM     24  C   LIG    1        1.417   2.055  -0.000  0.00  0.00    +0.160 C 
BRANCH  24  26
ATOM     25  C   LIG    1        1.381   4.701   0.014  0.00  0.00    +0.030 C 
ATOM     26  C   LIG    1        1.397   3.527   0.008  0.00  0.00    -0.190 C 
ENDBRANCH  24  26
ENDBRANCH  23  24
ENDBRANCH  20  23
ENDBRANCH  19  20
ENDBRANCH  18  19
ENDBRANCH   1  18
TORSDOF 8
