REMARK  Name = ZINCrH000004s05M.0
REMARK                            x       y       z     vdW  Elec       q    Type
REMARK                         _______ _______ _______ _____ _____    ______ ____
ROOT
ATOM      1  N   LIG    1        3.625   1.773  -0.157  0.00  0.00    -0.340 N 
ATOM      2  N   LIG    1        4.562   0.741  -0.295  0.00  0.00    -0.270 NA
ATOM      3  C   LIG    1        3.944  -0.402  -0.145  0.00  0.00    +0.110 A 
ATOM      4  C   LIG    1        2.591  -0.145   0.100  0.00  0.00    -0.080 A 
ATOM      5  C   LIG    1        2.413   1.204   0.083  0.00  0.00    +0.330 A 
ENDROOT
BRANCH   1  12
ATOM      6  C   LIG    1        5.827   2.823   1.310  0.00  0.00    +0.110 C 
ATOM      7  C   LIG    1        4.954   3.699   0.450  0.00  0.00    -0.070 A 
ATOM      8  C   LIG    1        5.212   5.053   0.356  0.00  0.00    +0.030 A 
ATOM      9  C   LIG    1        4.410   5.858  -0.433  0.00  0.00    +0.020 A 
ATOM     10  C   LIG    1        3.349   5.310  -1.131  0.00  0.00    +0.020 A 
ATOM     11  C   LIG    1        3.090   3.956  -1.045  0.00  0.00    +0.000 A 
ATOM     12  C   LIG    1        3.889   3.147  -0.250  0.00  0.00    +0.140 A 
ENDBRANCH   1  12
BRANCH   5  13
ATOM     13  N   LIG    1        1.208   1.879   0.281  0.00  0.00    -0.660 N 
ATOM     14  H   LIG    1        1.199   2.847   0.341  0.00  0.00    +0.410 HD
ATOM     15  C   LIG    1        0.057   1.187   0.391  0.00  0.00    +0.710 C 
ATOM     16  N   LIG    1       -1.107   1.839   0.577  0.00  0.00    -0.740 N 
ATOM     17  H   LIG    1       -1.116   2.808   0.636  0.00  0.00    +0.400 HD
ATOM     18  O   LIG    1        0.069  -0.027   0.316  0.00  0.00    -0.550 OA
BRANCH  16  19
ATOM     19  C   LIG    1       -2.359   1.087   0.689  0.00  0.00    +0.280 C 
BRANCH  19  20
ATOM     20  C   LIG    1       -3.522   2.060   0.894  0.00  0.00    -0.020 C 
ATOM     21  C   LIG    1       -3.407   2.737   2.276  0.00  0.00    +0.020 C 
ATOM     22  C   LIG    1       -4.873   2.856   2.763  0.00  0.00    -0.010 C 
ATOM     23  C   LIG    1       -5.506   1.533   2.268  0.00  0.00    +0.160 C 
ATOM     24  C   LIG    1       -4.856   1.294   0.889  0.00  0.00    +0.050 C 
BRANCH  23  25
ATOM     25  O   LIG    1       -6.922   1.675   2.135  0.00  0.00    -0.570 OA
ATOM     26  H   LIG    1       -7.382   1.827   2.972  0.00  0.00    +0.380 HD
ENDBRANCH  23  25
ENDBRANCH  19  20
ENDBRANCH  16  19
ENDBRANCH   5  13
BRANCH   3  27
ATOM     27  C   LIG    1        4.582  -1.765  -0.217  0.00  0.00    +0.010 C 
ATOM     28  C   LIG    1        4.076  -2.627   0.941  0.00  0.00    +0.040 C 
ATOM     29  C   LIG    1        6.102  -1.622  -0.119  0.00  0.00    +0.040 C 
ATOM     30  C   LIG    1        4.217  -2.430  -1.545  0.00  0.00    +0.040 C 
ENDBRANCH   3  27
TORSDOF 6
