REMARK  Name = ZINCqH0000033RKW.0
REMARK                            x       y       z     vdW  Elec       q    Type
REMARK                         _______ _______ _______ _____ _____    ______ ____
ROOT
ATOM      1  N   LIG    1        1.605  -3.183  -0.032  0.00  0.00    -1.010 N 
ATOM      2  H   LIG    1        1.227  -4.076  -0.034  0.00  0.00    +0.440 HD
ENDROOT
BRANCH   1   3
ATOM      3  C   LIG    1        0.762  -2.067  -0.017  0.00  0.00    +0.360 A 
ATOM      4  N   LIG    1        1.146  -0.813  -0.019  0.00  0.00    -0.270 NA
ATOM      5  N   LIG    1        0.002  -0.004   0.002  0.00  0.00    -0.300 N 
ATOM      6  C   LIG    1       -1.087  -0.819   0.008  0.00  0.00    +0.350 A 
ATOM      7  C   LIG    1       -0.645  -2.097  -0.004  0.00  0.00    -0.240 A 
ATOM      8 BR   LIG    1       -1.725  -3.648  -0.002  0.00  0.00    +0.010 Br
BRANCH   5   9
ATOM      9  C   LIG    1       -0.017   1.389   0.010  0.00  0.00    +0.560 A 
ATOM     10  N   LIG    1       -1.181   2.019   0.019  0.00  0.00    -0.530 NA
ATOM     11  C   LIG    1       -1.235   3.341   0.031  0.00  0.00    +0.360 A 
ATOM     12  C   LIG    1       -0.053   4.065   0.024  0.00  0.00    -0.080 A 
ATOM     13  C   LIG    1        1.148   3.373   0.009  0.00  0.00    +0.360 A 
ATOM     14  N   LIG    1        1.130   2.050   0.002  0.00  0.00    -0.500 NA
ENDBRANCH   5   9
ENDBRANCH   1   3
BRANCH   1  15
ATOM     15  S   LIG    1        3.248  -2.978  -0.047  0.00  0.00    +2.690 S 
ATOM     16  O   LIG    1        3.525  -2.027  -1.066  0.00  0.00    -0.920 OA
ATOM     17  O   LIG    1        3.815  -4.281  -0.026  0.00  0.00    -0.940 OA
BRANCH  15  21
ATOM     18  C   LIG    1        4.391  -1.024   3.873  0.00  0.00    -0.010 A 
ATOM     19  C   LIG    1        4.355  -2.402   3.772  0.00  0.00    -0.010 A 
ATOM     20  C   LIG    1        4.006  -2.999   2.575  0.00  0.00    +0.130 A 
ATOM     21  C   LIG    1        3.693  -2.217   1.479  0.00  0.00    -0.680 A 
ATOM     22  C   LIG    1        3.734  -0.839   1.578  0.00  0.00    +0.160 A 
ATOM     23  C   LIG    1        4.078  -0.242   2.776  0.00  0.00    -0.010 A 
BRANCH  18  24
ATOM     24  C   LIG    1        4.771  -0.373   5.178  0.00  0.00    +0.020 C 
ATOM     25  C   LIG    1        3.616   0.504   5.666  0.00  0.00    +0.040 C 
BRANCH  24  27
ATOM     26  C   LIG    1        6.475   1.053   6.320  0.00  0.00    +0.030 C 
ATOM     27  C   LIG    1        6.016   0.492   4.973  0.00  0.00    +0.020 C 
ENDBRANCH  24  27
ENDBRANCH  18  24
ENDBRANCH  15  21
ENDBRANCH   1  15
TORSDOF 6
