REMARK  Name = ZINCrH000004j6IN.0
REMARK                            x       y       z     vdW  Elec       q    Type
REMARK                         _______ _______ _______ _____ _____    ______ ____
ROOT
ATOM      1  N   LIG    1       -3.172   8.188   1.230  0.00  0.00    -0.550 N 
ATOM      2  C   LIG    1       -2.847   7.909  -0.175  0.00  0.00    +0.320 C 
ATOM      3  C   LIG    1       -1.388   7.403  -0.166  0.00  0.00    +0.020 C 
ATOM      4  C   LIG    1       -0.834   8.056   1.122  0.00  0.00    +0.090 C 
ATOM      5  C   LIG    1       -2.060   8.282   1.979  0.00  0.00    +0.510 C 
ATOM      6  O   LIG    1       -2.042   8.514   3.170  0.00  0.00    -0.500 OA
ENDROOT
BRANCH   1  10
ATOM      7  C   LIG    1       -7.043   8.635   2.704  0.00  0.00    -0.100 A 
ATOM      8  C   LIG    1       -6.845   8.261   1.387  0.00  0.00    +0.040 A 
ATOM      9  C   LIG    1       -5.563   8.113   0.896  0.00  0.00    -0.020 A 
ATOM     10  C   LIG    1       -4.472   8.339   1.725  0.00  0.00    +0.160 A 
ATOM     11  C   LIG    1       -4.675   8.708   3.048  0.00  0.00    +0.000 A 
ATOM     12  C   LIG    1       -5.959   8.861   3.532  0.00  0.00    +0.040 A 
BRANCH   7  14
ATOM     13  C   LIG    1       -8.928   7.463   3.809  0.00  0.00    +0.030 C 
ATOM     14  C   LIG    1       -8.444   8.796   3.237  0.00  0.00    +0.060 C 
ENDBRANCH   7  14
ENDBRANCH   1  10
BRANCH   3  15
ATOM     15  C   LIG    1       -1.339   5.899  -0.072  0.00  0.00    +0.520 C 
ATOM     16  N   LIG    1       -0.151   5.268   0.011  0.00  0.00    -0.670 N 
ATOM     17  H   LIG    1        0.669   5.783   0.075  0.00  0.00    +0.410 HD
ATOM     18  O   LIG    1       -2.368   5.258  -0.072  0.00  0.00    -0.500 OA
BRANCH  16  19
ATOM     19  C   LIG    1       -0.100   3.874   0.006  0.00  0.00    +0.150 A 
ATOM     20  C   LIG    1       -1.100   3.139   0.606  0.00  0.00    +0.020 A 
ATOM     21  C   LIG    1       -1.058   1.748   0.600  0.00  0.00    +0.060 A 
ATOM     22  C   LIG    1       -0.029   1.076   0.014  0.00  0.00    +0.040 A 
ATOM     23  C   LIG    1        1.011   1.787  -0.610  0.00  0.00    +0.140 A 
ATOM     24  N   LIG    1        2.027   1.146  -1.196  0.00  0.00    -0.470 NA
ATOM     25  C   LIG    1        3.001   1.802  -1.780  0.00  0.00    +0.290 A 
ATOM     26  C   LIG    1        3.026   3.194  -1.819  0.00  0.00    -0.030 A 
ATOM     27  C   LIG    1        2.016   3.910  -1.238  0.00  0.00    +0.070 A 
ATOM     28  C   LIG    1        0.975   3.203  -0.614  0.00  0.00    -0.110 A 
ENDBRANCH  16  19
ENDBRANCH   3  15
TORSDOF 4
