REMARK  Name = ZINCnE00000h9DtU.1
REMARK                            x       y       z     vdW  Elec       q    Type
REMARK                         _______ _______ _______ _____ _____    ______ ____
ROOT
ATOM      1  C   LIG    1       -0.118   0.963   0.011  0.00  0.00    +0.100 C 
ENDROOT
BRANCH   1   2
ATOM      2  C   LIG    1       -0.815   1.437   1.261  0.00  0.00    +0.530 C 
ATOM      3  N   LIG    1       -0.242   1.246   2.466  0.00  0.00    -0.670 N 
ATOM      4  H   LIG    1        0.581   0.737   2.536  0.00  0.00    +0.410 HD
ATOM      5  O   LIG    1       -1.891   1.990   1.183  0.00  0.00    -0.500 OA
BRANCH   3   6
ATOM      6  C   LIG    1       -0.833   1.782   3.615  0.00  0.00    +0.150 A 
ATOM      7  C   LIG    1       -1.514   2.990   3.548  0.00  0.00    +0.020 A 
ATOM      8  C   LIG    1       -2.101   3.514   4.683  0.00  0.00    +0.020 A 
ATOM      9  C   LIG    1       -2.003   2.842   5.887  0.00  0.00    -0.110 A 
ATOM     10  C   LIG    1       -1.321   1.641   5.958  0.00  0.00    -0.070 A 
ATOM     11  C   LIG    1       -1.216   0.911   7.273  0.00  0.00    +0.080 C 
ATOM     12  C   LIG    1       -2.641   3.419   7.125  0.00  0.00    +0.090 C 
ATOM     13  C   LIG    1       -0.736   1.109   4.826  0.00  0.00    -0.020 A 
ENDBRANCH   3   6
ENDBRANCH   1   2
BRANCH   1  14
ATOM     14  S   LIG    1       -1.133   1.363  -1.433  0.00  0.00    +0.030 S 
BRANCH  14  19
ATOM     15  C   LIG    1        1.841  -0.354  -3.337  0.00  0.00    +0.180 A 
ATOM     16  C   LIG    1        1.484  -0.285  -4.653  0.00  0.00    -0.270 A 
ATOM     17  C   LIG    1        0.262   0.320  -4.996  0.00  0.00    +0.490 A 
ATOM     18  N   LIG    1       -0.517   0.813  -4.010  0.00  0.00    -0.640 NA
ATOM     19  C   LIG    1       -0.109   0.716  -2.714  0.00  0.00    +0.320 A 
ATOM     20  O   LIG    1       -0.087   0.398  -6.162  0.00  0.00    -0.620 OA
ATOM     21  N   LIG    1        1.041   0.152  -2.402  0.00  0.00    -0.630 NA
BRANCH  15  22
ATOM     22  C   LIG    1        3.146  -0.997  -2.945  0.00  0.00    +0.080 C 
BRANCH  22  24
ATOM     23  C   LIG    1        5.548  -0.573  -2.405  0.00  0.00    +0.000 C 
ATOM     24  C   LIG    1        4.223   0.080  -2.804  0.00  0.00    +0.010 C 
ENDBRANCH  22  24
ENDBRANCH  15  22
ENDBRANCH  14  19
ENDBRANCH   1  14
TORSDOF 6
