REMARK  Name = ZINCnE000001HY6w.0
REMARK                            x       y       z     vdW  Elec       q    Type
REMARK                         _______ _______ _______ _____ _____    ______ ____
ROOT
ATOM      1  C   LIG    1        2.053  -0.326   5.929  0.00  0.00    +0.030 A 
ATOM      2  C   LIG    1        1.806  -1.502   6.578  0.00  0.00    -0.040 A 
ATOM      3  C   LIG    1        2.702  -1.575   7.650  0.00  0.00    +0.020 A 
ATOM      4  C   LIG    1        3.460  -0.426   7.614  0.00  0.00    -0.040 A 
ATOM      5  O   LIG    1        3.049   0.315   6.563  0.00  0.00    -0.160 OA
ENDROOT
BRANCH   1   9
ATOM      6  C   LIG    1        0.000   1.080   2.488  0.00  0.00    -0.080 A 
ATOM      7  C   LIG    1       -0.350  -0.135   3.050  0.00  0.00    +0.010 A 
ATOM      8  C   LIG    1        0.317  -0.600   4.164  0.00  0.00    +0.040 A 
ATOM      9  C   LIG    1        1.339   0.163   4.732  0.00  0.00    -0.020 A 
ATOM     10  C   LIG    1        1.684   1.391   4.162  0.00  0.00    +0.030 A 
ATOM     11  C   LIG    1        1.013   1.841   3.044  0.00  0.00    +0.020 A 
BRANCH   6  13
ATOM     12  C   LIG    1       -0.013   1.086   0.008  0.00  0.00    +0.030 C 
ATOM     13  C   LIG    1       -0.729   1.579   1.267  0.00  0.00    +0.050 C 
ENDBRANCH   6  13
ENDBRANCH   1   9
BRANCH   4  14
ATOM     14  C   LIG    1        4.527  -0.070   8.552  0.00  0.00    +0.600 C 
ATOM     15  N   LIG    1        5.195   1.092   8.404  0.00  0.00    -0.690 N 
ATOM     16  H   LIG    1        4.970   1.692   7.676  0.00  0.00    +0.390 HD
ATOM     17  O   LIG    1        4.811  -0.822   9.466  0.00  0.00    -0.500 OA
BRANCH  15  18
ATOM     18  C   LIG    1        6.263   1.448   9.342  0.00  0.00    +0.100 C 
ATOM     19  C   LIG    1        5.690   1.529  10.759  0.00  0.00    +0.040 C 
BRANCH  18  20
ATOM     20  C   LIG    1        7.343   0.398   9.297  0.00  0.00    +0.500 C 
ATOM     21  O   LIG    1        8.328   0.506  10.007  0.00  0.00    -0.690 OA
ATOM     22  O   LIG    1        7.231  -0.559   8.549  0.00  0.00    -0.680 OA
ENDBRANCH  18  20
BRANCH  18  23
ATOM     23  C   LIG    1        6.853   2.804   8.952  0.00  0.00    +0.010 C 
ATOM     24  C   LIG    1        7.967   3.176   9.932  0.00  0.00    +0.020 C 
ENDBRANCH  18  23
ENDBRANCH  15  18
ENDBRANCH   4  14
TORSDOF 6
