REMARK  Name = ZINCrg00000fSmOZ.2
REMARK                            x       y       z     vdW  Elec       q    Type
REMARK                         _______ _______ _______ _____ _____    ______ ____
ROOT
ATOM      1  N   LIG    1       -1.446   6.682  -0.003  0.00  0.00    -0.500 NA
ATOM      2  C   LIG    1       -1.302   6.285   1.421  0.00  0.00    +0.190 C 
ATOM      3  C   LIG    1       -1.822   4.832   1.475  0.00  0.00    +0.000 C 
ATOM      4  C   LIG    1       -1.658   4.295   0.038  0.00  0.00    +0.120 C 
ATOM      5  C   LIG    1       -1.053   5.468  -0.763  0.00  0.00    +0.180 C 
ENDROOT
BRANCH   3   6
ATOM      6  C   LIG    1       -3.273   4.811   1.879  0.00  0.00    +0.540 C 
ATOM      7  N   LIG    1       -3.638   5.241   3.103  0.00  0.00    -0.620 N 
ATOM      8  C   LIG    1       -2.636   5.730   4.064  0.00  0.00    +0.250 C 
ATOM      9  C   LIG    1       -3.105   7.095   4.592  0.00  0.00    +0.210 C 
ATOM     10  O   LIG    1       -4.444   6.975   5.077  0.00  0.00    -0.380 OA
ATOM     11  C   LIG    1       -5.400   6.614   4.077  0.00  0.00    +0.220 C 
ATOM     12  C   LIG    1       -5.049   5.229   3.521  0.00  0.00    +0.260 C 
ATOM     13  O   LIG    1       -4.113   4.406   1.104  0.00  0.00    -0.520 OA
ENDBRANCH   3   6
BRANCH   4  14
ATOM     14  C   LIG    1       -0.722   3.114   0.024  0.00  0.00    +0.010 A 
ATOM     15  C   LIG    1        0.623   3.170   0.012  0.00  0.00    +0.120 A 
ATOM     16  N   LIG    1        1.074   1.878   0.002  0.00  0.00    -0.460 N 
ATOM     17  C   LIG    1       -0.013   1.076   0.008  0.00  0.00    +0.390 A 
ATOM     18  C   LIG    1        2.474   1.445  -0.013  0.00  0.00    +0.330 C 
ATOM     19  N   LIG    1       -1.083   1.822   0.017  0.00  0.00    -0.480 NA
ENDBRANCH   4  14
BRANCH   1  20
ATOM     20  C   LIG    1       -0.567   7.814  -0.326  0.00  0.00    +0.290 C 
BRANCH  20  24
ATOM     21  C   LIG    1       -0.296  10.803   3.686  0.00  0.00    +0.220 C 
ATOM     22  C   LIG    1       -0.711  10.225   2.357  0.00  0.00    +0.190 A 
ATOM     23  N   LIG    1       -0.220   9.150   1.811  0.00  0.00    -0.480 NA
ATOM     24  C   LIG    1       -0.833   8.946   0.632  0.00  0.00    -0.020 A 
ATOM     25  C   LIG    1       -1.723   9.938   0.458  0.00  0.00    -0.020 A 
ATOM     26  C   LIG    1       -2.637  10.124  -0.725  0.00  0.00    +0.190 C 
ATOM     27  O   LIG    1       -1.647  10.733   1.544  0.00  0.00    -0.200 OA
ENDBRANCH  20  24
ENDBRANCH   1  20
TORSDOF 4
