REMARK  Name = ZINCrH000004o2Su.0
REMARK                            x       y       z     vdW  Elec       q    Type
REMARK                         _______ _______ _______ _____ _____    ______ ____
ROOT
ATOM      1  C   LIG    1       -1.245   9.200   1.489  0.00  0.00    +0.520 C 
ATOM      2  N   LIG    1       -0.704   8.253   0.697  0.00  0.00    -0.620 N 
ATOM      3  C   LIG    1       -1.476   7.672  -0.409  0.00  0.00    +0.280 C 
ATOM      4  C   LIG    1       -1.470   6.147  -0.268  0.00  0.00    +0.060 C 
ATOM      5  C   LIG    1       -0.024   5.653  -0.183  0.00  0.00    +0.010 C 
ATOM      6  C   LIG    1        0.651   6.255   1.051  0.00  0.00    +0.030 C 
ATOM      7  C   LIG    1        0.669   7.782   0.925  0.00  0.00    +0.280 C 
ATOM      8  O   LIG    1       -2.379   9.581   1.291  0.00  0.00    -0.530 OA
ENDROOT
BRANCH   5   9
ATOM      9  C   LIG    1       -0.013   4.149  -0.077  0.00  0.00    +0.520 C 
ATOM     10  N   LIG    1        1.159   3.489   0.010  0.00  0.00    -0.670 N 
ATOM     11  H   LIG    1        1.991   3.983   0.070  0.00  0.00    +0.410 HD
ATOM     12  O   LIG    1       -1.058   3.534  -0.071  0.00  0.00    -0.510 OA
BRANCH  10  13
ATOM     13  C   LIG    1        1.174   2.087   0.013  0.00  0.00    +0.120 A 
ATOM     14  C   LIG    1        0.148   1.382   0.624  0.00  0.00    +0.030 A 
ATOM     15  C   LIG    1        0.165   0.000   0.626  0.00  0.00    +0.020 A 
ATOM     16  C   LIG    1        1.204  -0.682   0.022  0.00  0.00    +0.010 A 
ATOM     17  C   LIG    1        2.231   0.014  -0.589  0.00  0.00    +0.000 A 
ATOM     18  C   LIG    1        2.221   1.399  -0.596  0.00  0.00    +0.080 A 
BRANCH  18  19
ATOM     19  O   LIG    1        3.230   2.085  -1.197  0.00  0.00    -0.500 OA
ATOM     20  H   LIG    1        3.073   2.276  -2.132  0.00  0.00    +0.390 HD
ENDBRANCH  18  19
ENDBRANCH  10  13
ENDBRANCH   5   9
BRANCH   1  21
ATOM     21  C   LIG    1       -0.440   9.787   2.620  0.00  0.00    +0.060 C 
BRANCH  21  23
ATOM     22  C   LIG    1       -1.573  12.004   2.418  0.00  0.00    +0.040 C 
ATOM     23  C   LIG    1       -1.281  10.832   3.356  0.00  0.00    +0.050 C 
BRANCH  23  24
ATOM     24  C   LIG    1       -0.522  11.329   4.560  0.00  0.00    -0.080 A 
ATOM     25  C   LIG    1        0.708  11.937   4.399  0.00  0.00    +0.000 A 
ATOM     26  C   LIG    1        1.402  12.398   5.502  0.00  0.00    +0.000 A 
ATOM     27  C   LIG    1        0.869  12.242   6.768  0.00  0.00    +0.000 A 
ATOM     28  C   LIG    1       -0.360  11.629   6.930  0.00  0.00    +0.000 A 
ATOM     29  C   LIG    1       -1.055  11.172   5.826  0.00  0.00    +0.000 A 
ENDBRANCH  23  24
ENDBRANCH  21  23
ENDBRANCH   1  21
TORSDOF 6
