REMARK  Name = ZINCvU0000000I7p.0
REMARK                            x       y       z     vdW  Elec       q    Type
REMARK                         _______ _______ _______ _____ _____    ______ ____
ROOT
ATOM      1  C   LIG    1       -5.734   2.104   2.523  0.00  0.00    +0.360 A 
ATOM      2  N   LIG    1       -5.803   1.214   1.564  0.00  0.00    -0.520 NA
ATOM      3  C   LIG    1       -4.746   0.947   0.769  0.00  0.00    +0.090 A 
ATOM      4  C   LIG    1       -3.550   1.629   0.966  0.00  0.00    -0.230 A 
ATOM      5  C   LIG    1       -2.519   1.214   0.020  0.00  0.00    +0.040 A 
ATOM      6  C   LIG    1       -2.911   0.279  -0.845  0.00  0.00    -0.040 A 
ATOM      7  C   LIG    1       -3.491   2.593   2.013  0.00  0.00    +0.560 A 
ATOM      8  O   LIG    1       -2.465   3.216   2.225  0.00  0.00    -0.500 OA
ATOM      9  S   LIG    1       -4.579  -0.183  -0.568  0.00  0.00    +0.220 S 
ATOM     10  N   LIG    1       -4.588   2.806   2.765  0.00  0.00    -0.510 N 
ENDROOT
BRANCH   5  11
ATOM     11  C   LIG    1       -1.157   1.788   0.017  0.00  0.00    -0.140 A 
ATOM     12  C   LIG    1       -0.013   1.076   0.008  0.00  0.00    +0.020 A 
ATOM     13  C   LIG    1        1.140   1.837   0.001  0.00  0.00    +0.000 A 
ATOM     14  C   LIG    1        0.945   3.158   0.010  0.00  0.00    -0.070 A 
ATOM     15  S   LIG    1       -0.778   3.506   0.028  0.00  0.00    +0.180 S 
ENDBRANCH   5  11
BRANCH  10  16
ATOM     16  C   LIG    1       -4.552   3.793   3.847  0.00  0.00    +0.290 C 
ATOM     17  C   LIG    1       -4.972   5.160   3.304  0.00  0.00    +0.050 C 
ENDBRANCH  10  16
BRANCH   1  18
ATOM     18  S   LIG    1       -7.153   2.403   3.524  0.00  0.00    +0.100 S 
BRANCH  18  19
ATOM     19  C   LIG    1       -8.318   1.238   2.774  0.00  0.00    +0.110 C 
BRANCH  19  21
ATOM     20  N   LIG    1      -10.668   0.537   3.100  0.00  0.00    -0.600 N 
ATOM     21  C   LIG    1       -9.642   1.320   3.489  0.00  0.00    +0.540 C 
ATOM     22  O   LIG    1       -9.784   2.090   4.415  0.00  0.00    -0.520 OA
BRANCH  20  24
ATOM     23  C   LIG    1      -10.003  -1.742   2.511  0.00  0.00    +0.020 C 
ATOM     24  C   LIG    1      -10.496  -0.393   1.981  0.00  0.00    +0.270 C 
ENDBRANCH  20  24
BRANCH  20  25
ATOM     25  C   LIG    1      -11.955   0.617   3.795  0.00  0.00    +0.350 C 
BRANCH  25  26
ATOM     26  C   LIG    1      -12.822   1.654   3.128  0.00  0.00    -0.110 A 
ATOM     27  C   LIG    1      -12.779   2.968   3.553  0.00  0.00    +0.040 A 
ATOM     28  C   LIG    1      -13.571   3.920   2.938  0.00  0.00    +0.000 A 
ATOM     29  C   LIG    1      -14.414   3.555   1.905  0.00  0.00    +0.010 A 
ATOM     30  C   LIG    1      -14.461   2.239   1.484  0.00  0.00    +0.000 A 
ATOM     31  C   LIG    1      -13.665   1.288   2.095  0.00  0.00    +0.010 A 
ENDBRANCH  25  26
ENDBRANCH  20  25
ENDBRANCH  19  21
ENDBRANCH  18  19
ENDBRANCH   1  18
TORSDOF 8
