REMARK  Name = ZINCpk00000e96TL.0
REMARK                            x       y       z     vdW  Elec       q    Type
REMARK                         _______ _______ _______ _____ _____    ______ ____
ROOT
ATOM      1  C   LIG    1        0.567  -5.815  -0.028  0.00  0.00    +0.510 C 
ATOM      2  N   LIG    1        1.272  -4.667  -0.032  0.00  0.00    -0.600 N 
ATOM      3  C   LIG    1        1.660  -4.022   1.230  0.00  0.00    +0.280 C 
ATOM      4  C   LIG    1        1.183  -2.567   1.207  0.00  0.00    +0.050 C 
ATOM      5  C   LIG    1        1.727  -1.875  -0.045  0.00  0.00    +0.100 C 
ATOM      6  C   LIG    1        1.189  -2.579  -1.293  0.00  0.00    +0.050 C 
ATOM      7  C   LIG    1        1.666  -4.035  -1.298  0.00  0.00    +0.270 C 
ATOM      8  O   LIG    1        0.335  -6.381   1.020  0.00  0.00    -0.510 OA
ENDROOT
BRANCH   5   9
ATOM      9  C   LIG    1        1.288  -0.433  -0.053  0.00  0.00    +0.200 A 
ATOM     10  N   LIG    1        0.058   0.001  -0.059  0.00  0.00    -0.280 NA
ATOM     11  N   LIG    1        0.052   1.286  -0.064  0.00  0.00    -0.280 NA
ATOM     12  C   LIG    1        1.281   1.731  -0.060  0.00  0.00    +0.160 A 
ATOM     13  C   LIG    1        2.102   3.002  -0.058  0.00  0.00    +0.160 C 
ATOM     14  C   LIG    1        3.514   2.543   0.372  0.00  0.00    +0.070 C 
ATOM     15  C   LIG    1        3.509   1.060  -0.059  0.00  0.00    +0.300 C 
ATOM     16  N   LIG    1        2.099   0.654  -0.056  0.00  0.00    -0.490 N 
ENDBRANCH   5   9
BRANCH   1  17
ATOM     17  C   LIG    1        0.067  -6.397  -1.325  0.00  0.00    +0.260 C 
BRANCH  17  18
ATOM     18  N   LIG    1        1.030  -7.383  -1.821  0.00  0.00    -0.370 N 
ATOM     19  C   LIG    1        1.785  -8.215  -1.083  0.00  0.00    +0.480 A 
ATOM     20  N   LIG    1        2.510  -8.937  -1.898  0.00  0.00    -0.540 NA
ATOM     21  C   LIG    1        2.252  -8.592  -3.158  0.00  0.00    +0.420 A 
ATOM     22  N   LIG    1        1.353  -7.644  -3.163  0.00  0.00    -0.310 NA
ENDBRANCH  17  18
BRANCH  17  24
ATOM     23  C   LIG    1       -2.322  -6.025  -0.695  0.00  0.00    +0.040 C 
ATOM     24  C   LIG    1       -1.284  -7.076  -1.092  0.00  0.00    -0.010 C 
ATOM     25  C   LIG    1       -1.732  -7.774  -2.378  0.00  0.00    +0.040 C 
ENDBRANCH  17  24
ENDBRANCH   1  17
TORSDOF 4
