REMARK  Name = ZINCrD0000073z2G.0
REMARK                            x       y       z     vdW  Elec       q    Type
REMARK                         _______ _______ _______ _____ _____    ______ ____
ROOT
ATOM      1  N   LIG    1        0.088  -2.779   0.090  0.00  0.00    -0.650 N 
ATOM      2  H   LIG    1       -0.426  -2.347  -0.610  0.00  0.00    +0.420 HD
ATOM      3  C   LIG    1        0.225  -4.120   0.096  0.00  0.00    +0.520 C 
ATOM      4  O   LIG    1        0.782  -4.668   1.024  0.00  0.00    -0.490 OA
ENDROOT
BRANCH   1  10
ATOM      5  C   LIG    1        0.172  -0.755   1.416  0.00  0.00    +0.150 A 
ATOM      6  C   LIG    1        0.766   0.000   2.414  0.00  0.00    -0.030 A 
ATOM      7  C   LIG    1        1.870  -0.489   3.087  0.00  0.00    +0.130 A 
ATOM      8  C   LIG    1        2.385  -1.732   2.766  0.00  0.00    -0.060 A 
ATOM      9  C   LIG    1        1.799  -2.491   1.771  0.00  0.00    +0.140 A 
ATOM     10  C   LIG    1        0.688  -2.009   1.096  0.00  0.00    +0.130 A 
BRANCH   8  11
ATOM     11  N   LIG    1        3.567  -2.250   3.491  0.00  0.00    +0.030 N 
ATOM     12  O   LIG    1        4.022  -3.344   3.209  0.00  0.00    -0.150 OA
ATOM     13  O   LIG    1        4.085  -1.583   4.368  0.00  0.00    -0.160 OA
ENDBRANCH   8  11
BRANCH   5  15
ATOM     14  C   LIG    1       -1.392   1.016   1.139  0.00  0.00    +0.270 C 
ATOM     15  O   LIG    1       -0.914  -0.275   0.754  0.00  0.00    -0.310 OA
ENDBRANCH   5  15
ENDBRANCH   1  10
BRANCH   3  16
ATOM     16  C   LIG    1       -0.312  -4.937  -1.050  0.00  0.00    +0.200 C 
ATOM     17  C   LIG    1        0.454  -4.590  -2.328  0.00  0.00    +0.080 C 
BRANCH  16  18
ATOM     18  O   LIG    1       -0.148  -6.350  -0.756  0.00  0.00    -0.320 OA
BRANCH  18  19
ATOM     19  C   LIG    1       -1.056  -7.195  -1.286  0.00  0.00    +0.550 C 
ATOM     20  O   LIG    1       -1.960  -6.763  -1.976  0.00  0.00    -0.500 OA
BRANCH  19  21
ATOM     21  C   LIG    1       -0.952  -8.633  -1.032  0.00  0.00    -0.270 A 
ATOM     22  C   LIG    1       -1.803  -9.581  -1.509  0.00  0.00    +0.130 A 
ATOM     23  C   LIG    1       -1.481 -10.877  -1.120  0.00  0.00    -0.150 A 
ATOM     24  C   LIG    1       -0.388 -10.959  -0.342  0.00  0.00    -0.220 A 
ATOM     25  C   LIG    1       -0.112 -12.409   0.035  0.00  0.00    +0.120 C 
ATOM     26  C   LIG    1       -1.435 -13.150  -0.247  0.00  0.00    +0.040 C 
ATOM     27  C   LIG    1       -2.059 -12.273  -1.350  0.00  0.00    +0.100 C 
ATOM     28  S   LIG    1        0.293  -9.409  -0.070  0.00  0.00    +0.280 S 
ENDBRANCH  19  21
ENDBRANCH  18  19
ENDBRANCH  16  18
ENDBRANCH   3  16
TORSDOF 7
