REMARK  Name = ZINCnE000001TyDL.0
REMARK                            x       y       z     vdW  Elec       q    Type
REMARK                         _______ _______ _______ _____ _____    ______ ____
ROOT
ATOM      1  C   LIG    1       -0.838   0.453  -5.849  0.00  0.00    -0.030 C 
ATOM      2  C   LIG    1       -1.948   1.477  -6.094  0.00  0.00    +0.010 C 
ATOM      3  C   LIG    1       -2.632   1.817  -4.768  0.00  0.00    +0.000 C 
ATOM      4  C   LIG    1       -1.607   2.435  -3.812  0.00  0.00    +0.270 C 
ATOM      5  N   LIG    1       -0.467   1.517  -3.685  0.00  0.00    -0.610 N 
ATOM      6  C   LIG    1       -0.047   1.107  -2.471  0.00  0.00    +0.520 C 
ATOM      7  O   LIG    1       -0.660   1.432  -1.476  0.00  0.00    -0.550 OA
ATOM      8  C   LIG    1        0.212   1.059  -4.905  0.00  0.00    +0.270 C 
ENDROOT
BRANCH   6   9
ATOM      9  C   LIG    1        1.183   0.244  -2.351  0.00  0.00    -0.010 C 
ATOM     10  C   LIG    1        2.431   1.128  -2.389  0.00  0.00    +0.040 C 
ATOM     11  C   LIG    1        3.680   0.253  -2.267  0.00  0.00    +0.040 C 
ATOM     12  C   LIG    1        3.638  -0.513  -0.943  0.00  0.00    +0.040 C 
ATOM     13  C   LIG    1        2.390  -1.397  -0.904  0.00  0.00    -0.010 C 
ATOM     14  C   LIG    1        1.141  -0.521  -1.027  0.00  0.00    +0.070 C 
BRANCH  13  15
ATOM     15  C   LIG    1        2.348  -2.163   0.420  0.00  0.00    +0.450 C 
ATOM     16  F   LIG    1        2.309  -1.254   1.483  0.00  0.00    -0.180 F 
ATOM     17  F   LIG    1        3.490  -2.963   0.532  0.00  0.00    -0.180 F 
ATOM     18  F   LIG    1        1.206  -2.971   0.455  0.00  0.00    -0.180 F 
ENDBRANCH  13  15
ENDBRANCH   6   9
BRANCH   1  19
ATOM     19  C   LIG    1       -0.176   0.089  -7.180  0.00  0.00    +0.030 C 
BRANCH  19  20
ATOM     20  C   LIG    1       -1.191  -0.622  -8.077  0.00  0.00    -0.070 C 
BRANCH  20  22
ATOM     21  O   LIG    1        0.629  -0.694  -9.586  0.00  0.00    -0.700 OA
ATOM     22  C   LIG    1       -0.539  -0.980  -9.388  0.00  0.00    +0.490 C 
ATOM     23  O   LIG    1       -1.180  -1.556 -10.250  0.00  0.00    -0.710 OA
ENDBRANCH  20  22
ENDBRANCH  19  20
ENDBRANCH   1  19
TORSDOF 5
