REMARK  Name = ZINCah0000002kLt.0
REMARK                            x       y       z     vdW  Elec       q    Type
REMARK                         _______ _______ _______ _____ _____    ______ ____
ROOT
ATOM      1  C   LIG    1        1.803   3.247   0.002  0.00  0.00    +0.180 C 
ATOM      2  C   LIG    1        1.332   1.815  -0.001  0.00  0.00    +0.130 A 
ATOM      3  N   LIG    1        2.094   0.758  -0.014  0.00  0.00    -0.280 NA
ATOM      4  N   LIG    1        1.289  -0.386  -0.012  0.00  0.00    -0.350 N 
ATOM      5  C   LIG    1        0.002  -0.004   0.002  0.00  0.00    +0.180 A 
ATOM      6 CL   LIG    1       -1.382  -1.052   0.010  0.00  0.00    +0.030 Cl
ATOM      7  C   LIG    1        1.770  -1.770  -0.024  0.00  0.00    +0.370 C 
ATOM      8  C   LIG    1       -0.017   1.383   0.010  0.00  0.00    -0.320 A 
ENDROOT
BRANCH   8   9
ATOM      9  C   LIG    1       -1.206   2.238   0.020  0.00  0.00    +0.520 C 
ATOM     10  O   LIG    1       -2.312   1.739   0.024  0.00  0.00    -0.460 OA
ENDBRANCH   8   9
TORSDOF 1
