REMARK  Name = ZINCpk00000eaPDq.0
REMARK                            x       y       z     vdW  Elec       q    Type
REMARK                         _______ _______ _______ _____ _____    ______ ____
ROOT
ATOM      1  N   LIG    1        4.183   3.400   0.736  0.00  0.00    -0.740 N 
ATOM      2  H   LIG    1        3.554   2.871   1.251  0.00  0.00    +0.400 HD
ATOM      3  C   LIG    1        5.418   3.638   1.220  0.00  0.00    +0.710 C 
ATOM      4  N   LIG    1        5.780   3.139   2.419  0.00  0.00    -0.730 N 
ATOM      5  H   LIG    1        5.151   2.610   2.934  0.00  0.00    +0.390 HD
ATOM      6  O   LIG    1        6.207   4.301   0.575  0.00  0.00    -0.590 OA
ENDROOT
BRANCH   1   7
ATOM      7  C   LIG    1        3.791   3.942  -0.567  0.00  0.00    +0.290 C 
BRANCH   7   8
ATOM      8  C   LIG    1        2.350   3.530  -0.878  0.00  0.00    +0.160 C 
ATOM      9  C   LIG    1        1.982   3.988  -2.291  0.00  0.00    +0.000 C 
BRANCH   8  13
ATOM     10  C   LIG    1        3.837  -0.804  -2.677  0.00  0.00    +0.050 C 
ATOM     11  C   LIG    1        2.992  -0.110  -1.607  0.00  0.00    +0.150 C 
ATOM     12  C   LIG    1        3.103   1.408  -1.772  0.00  0.00    +0.160 C 
ATOM     13  N   LIG    1        2.230   2.068  -0.791  0.00  0.00    -0.530 NA
ATOM     14  C   LIG    1        0.834   1.643  -0.967  0.00  0.00    +0.160 C 
ATOM     15  C   LIG    1        0.745   0.123  -0.810  0.00  0.00    +0.160 C 
ATOM     16  C   LIG    1       -0.691  -0.335  -1.071  0.00  0.00    +0.050 C 
ATOM     17  O   LIG    1        1.624  -0.501  -1.750  0.00  0.00    -0.380 OA
ENDBRANCH   8  13
ENDBRANCH   7   8
ENDBRANCH   1   7
BRANCH   4  18
ATOM     18  C   LIG    1        7.122   3.397   2.945  0.00  0.00    +0.360 C 
BRANCH  18  19
ATOM     19  C   LIG    1        7.299   2.667   4.251  0.00  0.00    -0.130 A 
ATOM     20  C   LIG    1        7.215   3.348   5.452  0.00  0.00    +0.090 A 
ATOM     21  C   LIG    1        7.384   2.634   6.632  0.00  0.00    -0.040 A 
ATOM     22  C   LIG    1        7.629   1.277   6.572  0.00  0.00    +0.280 A 
ATOM     23  N   LIG    1        7.703   0.653   5.412  0.00  0.00    -0.510 NA
ATOM     24  C   LIG    1        7.543   1.297   4.266  0.00  0.00    +0.310 A 
BRANCH  24  25
ATOM     25  N   LIG    1        7.623   0.599   3.066  0.00  0.00    -0.490 N 
ATOM     26  C   LIG    1        6.597  -0.450   2.997  0.00  0.00    +0.210 C 
ATOM     27  C   LIG    1        8.966   0.034   2.875  0.00  0.00    +0.220 C 
ENDBRANCH  24  25
ENDBRANCH  18  19
ENDBRANCH   4  18
TORSDOF 6
