REMARK  Name = ZINCpe00000MJKCg.0
REMARK                            x       y       z     vdW  Elec       q    Type
REMARK                         _______ _______ _______ _____ _____    ______ ____
ROOT
ATOM      1  N   LIG    1       -1.535   0.169  -2.495  0.00  0.00    -0.510 NA
ENDROOT
BRANCH   1   2
ATOM      2  C   LIG    1       -0.731   1.068  -1.657  0.00  0.00    +0.210 C 
ATOM      3  C   LIG    1        0.227   0.227  -0.799  0.00  0.00    -0.320 C 
ATOM      4  S   LIG    1       -0.140   0.689   0.935  0.00  0.00    +2.380 S 
ATOM      5  C   LIG    1       -0.946   2.289   0.517  0.00  0.00    -0.330 C 
ATOM      6  O   LIG    1        1.075   0.933   1.631  0.00  0.00    -0.930 OA
ATOM      7  O   LIG    1       -1.105  -0.204   1.474  0.00  0.00    -0.920 OA
ATOM      8  C   LIG    1       -1.669   1.926  -0.807  0.00  0.00    +0.210 C 
BRANCH   8   9
ATOM      9  O   LIG    1       -2.002   3.121  -1.516  0.00  0.00    -0.540 OA
ATOM     10  H   LIG    1       -2.595   3.713  -1.033  0.00  0.00    +0.380 HD
ENDBRANCH   8   9
ENDBRANCH   1   2
BRANCH   1  11
ATOM     11  C   LIG    1       -0.722  -0.422  -3.566  0.00  0.00    +0.330 C 
BRANCH  11  13
ATOM     12  C   LIG    1        0.612   1.406  -4.758  0.00  0.00    -0.230 A 
ATOM     13  C   LIG    1       -0.487   0.605  -4.644  0.00  0.00    +0.110 A 
ATOM     14  O   LIG    1       -1.323   0.890  -5.646  0.00  0.00    -0.160 OA
ATOM     15  C   LIG    1       -0.817   1.853  -6.433  0.00  0.00    +0.180 A 
ATOM     16  C   LIG    1        0.380   2.227  -5.956  0.00  0.00    -0.010 A 
BRANCH  12  17
ATOM     17  C   LIG    1        1.786   1.440  -3.869  0.00  0.00    +0.540 C 
ATOM     18  O   LIG    1        1.876   0.647  -2.953  0.00  0.00    -0.510 OA
BRANCH  17  20
ATOM     19  C   LIG    1        3.886   2.324  -3.159  0.00  0.00    +0.280 C 
ATOM     20  O   LIG    1        2.759   2.349  -4.073  0.00  0.00    -0.350 OA
ENDBRANCH  17  20
ENDBRANCH  12  17
ENDBRANCH  11  13
ENDBRANCH   1  11
BRANCH   1  21
ATOM     21  C   LIG    1       -2.175  -0.875  -1.683  0.00  0.00    +0.300 C 
BRANCH  21  22
ATOM     22  C   LIG    1       -3.586  -0.461  -1.353  0.00  0.00    -0.010 A 
ATOM     23  C   LIG    1       -4.658  -0.615  -2.150  0.00  0.00    -0.030 A 
ATOM     24  C   LIG    1       -5.769  -0.094  -1.448  0.00  0.00    -0.060 A 
ATOM     25  C   LIG    1       -5.308   0.356  -0.268  0.00  0.00    +0.160 A 
ATOM     26  O   LIG    1       -3.985   0.131  -0.215  0.00  0.00    -0.170 OA
ENDBRANCH  21  22
ENDBRANCH   1  21
TORSDOF 8
