REMARK  Name = ZINCpk00000xIeoI.1
REMARK                            x       y       z     vdW  Elec       q    Type
REMARK                         _______ _______ _______ _____ _____    ______ ____
ROOT
ATOM      1  C   LIG    1       -0.719   3.033   0.025  0.00  0.00    +0.280 A 
ATOM      2  N   LIG    1       -1.147   1.790   0.017  0.00  0.00    -0.260 NA
ATOM      3  N   LIG    1       -0.011   0.966   0.007  0.00  0.00    -0.460 N 
ATOM      4  H   LIG    1        0.002  -0.004   0.002  0.00  0.00    +0.450 HD
ATOM      5  C   LIG    1        1.061   1.789   0.002  0.00  0.00    +0.250 A 
ATOM      6  N   LIG    1        0.622   3.029   0.012  0.00  0.00    -0.530 NA
ENDROOT
BRANCH   1  13
ATOM      7  C   LIG    1       -2.970   4.114   0.047  0.00  0.00    +0.170 A 
ATOM      8  C   LIG    1       -3.766   5.248   0.066  0.00  0.00    -0.060 A 
ATOM      9  C   LIG    1       -3.184   6.502   0.067  0.00  0.00    +0.090 A 
ATOM     10  C   LIG    1       -1.806   6.632   0.055  0.00  0.00    -0.080 A 
ATOM     11  C   LIG    1       -1.001   5.509   0.041  0.00  0.00    +0.120 A 
ATOM     12 CL   LIG    1       -1.087   8.212   0.057  0.00  0.00    -0.060 Cl
ATOM     13  C   LIG    1       -1.578   4.242   0.040  0.00  0.00    -0.040 A 
BRANCH   7  15
ATOM     14  C   LIG    1       -4.969   2.827   0.047  0.00  0.00    +0.240 C 
ATOM     15  O   LIG    1       -3.541   2.881   0.040  0.00  0.00    -0.290 OA
ENDBRANCH   7  15
ENDBRANCH   1  13
BRANCH   5  16
ATOM     16  S   LIG    1        2.750   1.289  -0.017  0.00  0.00    +0.090 S 
BRANCH  16  17
ATOM     17  C   LIG    1        3.558   2.909  -0.016  0.00  0.00    +0.110 C 
BRANCH  17  18
ATOM     18  C   LIG    1        5.053   2.724  -0.032  0.00  0.00    +0.540 C 
ATOM     19  N   LIG    1        5.865   3.800  -0.034  0.00  0.00    -0.710 N 
ATOM     20  H   LIG    1        5.486   4.694  -0.025  0.00  0.00    +0.420 HD
ATOM     21  O   LIG    1        5.527   1.608  -0.042  0.00  0.00    -0.520 OA
BRANCH  19  22
ATOM     22  C   LIG    1        7.319   3.621  -0.048  0.00  0.00    +0.300 C 
BRANCH  22  23
ATOM     23  C   LIG    1        7.991   4.970  -0.048  0.00  0.00    +0.510 C 
ATOM     24  N   LIG    1        9.336   5.052  -0.060  0.00  0.00    -0.620 N 
ATOM     25  C   LIG    1       10.145   3.831  -0.074  0.00  0.00    +0.290 C 
ATOM     26  C   LIG    1        9.990   6.364  -0.059  0.00  0.00    +0.290 C 
ATOM     27  O   LIG    1        7.322   5.981  -0.036  0.00  0.00    -0.530 OA
ENDBRANCH  22  23
ENDBRANCH  19  22
ENDBRANCH  17  18
ENDBRANCH  16  17
ENDBRANCH   5  16
TORSDOF 7
