REMARK  Name = ZINCpk00000xIeoI.0
REMARK                            x       y       z     vdW  Elec       q    Type
REMARK                         _______ _______ _______ _____ _____    ______ ____
ROOT
ATOM      1  C   LIG    1        0.002  -0.004   0.002  0.00  0.00    +0.350 A 
ATOM      2  N   LIG    1       -0.016   1.314   0.009  0.00  0.00    -0.480 NA
ATOM      3  C   LIG    1        1.235   1.781  -0.000  0.00  0.00    +0.190 A 
ATOM      4  N   LIG    1        2.070   0.768  -0.014  0.00  0.00    -0.320 NA
ATOM      5  N   LIG    1        1.294  -0.403  -0.013  0.00  0.00    -0.470 N 
ATOM      6  H   LIG    1        1.620  -1.316  -0.021  0.00  0.00    +0.440 HD
ENDROOT
BRANCH   1  13
ATOM      7  C   LIG    1       -2.470  -0.343   0.030  0.00  0.00    +0.190 A 
ATOM      8  C   LIG    1       -3.573  -1.181   0.031  0.00  0.00    -0.050 A 
ATOM      9  C   LIG    1       -3.402  -2.552   0.023  0.00  0.00    +0.100 A 
ATOM     10  C   LIG    1       -2.129  -3.098   0.007  0.00  0.00    -0.080 A 
ATOM     11  C   LIG    1       -1.020  -2.275   0.001  0.00  0.00    +0.090 A 
ATOM     12 CL   LIG    1       -1.927  -4.822  -0.003  0.00  0.00    -0.060 Cl
ATOM     13  C   LIG    1       -1.181  -0.890   0.009  0.00  0.00    -0.070 A 
BRANCH   7  15
ATOM     14  C   LIG    1       -3.981   1.491   0.065  0.00  0.00    +0.250 C 
ATOM     15  O   LIG    1       -2.638   1.005   0.044  0.00  0.00    -0.270 OA
ENDBRANCH   7  15
ENDBRANCH   1  13
BRANCH   3  16
ATOM     16  S   LIG    1        1.691   3.483   0.004  0.00  0.00    +0.110 S 
BRANCH  16  17
ATOM     17  C   LIG    1        3.504   3.419  -0.013  0.00  0.00    +0.080 C 
BRANCH  17  18
ATOM     18  C   LIG    1        4.056   4.821  -0.011  0.00  0.00    +0.540 C 
ATOM     19  N   LIG    1        5.389   5.021  -0.023  0.00  0.00    -0.710 N 
ATOM     20  H   LIG    1        5.993   4.262  -0.033  0.00  0.00    +0.420 HD
ATOM     21  O   LIG    1        3.301   5.770   0.000  0.00  0.00    -0.520 OA
BRANCH  19  22
ATOM     22  C   LIG    1        5.926   6.384  -0.021  0.00  0.00    +0.300 C 
BRANCH  22  23
ATOM     23  C   LIG    1        7.431   6.331  -0.036  0.00  0.00    +0.510 C 
ATOM     24  N   LIG    1        8.146   7.474  -0.037  0.00  0.00    -0.620 N 
ATOM     25  C   LIG    1        7.459   8.768  -0.024  0.00  0.00    +0.290 C 
ATOM     26  C   LIG    1        9.610   7.422  -0.051  0.00  0.00    +0.290 C 
ATOM     27  O   LIG    1        8.001   5.260  -0.046  0.00  0.00    -0.530 OA
ENDBRANCH  22  23
ENDBRANCH  19  22
ENDBRANCH  17  18
ENDBRANCH  16  17
ENDBRANCH   3  16
TORSDOF 7
