REMARK  Name = ZINCvU0000000G9D.0
REMARK                            x       y       z     vdW  Elec       q    Type
REMARK                         _______ _______ _______ _____ _____    ______ ____
ROOT
ATOM      1  C   LIG    1       -0.760   2.286   5.014  0.00  0.00    +0.330 C 
ENDROOT
BRANCH   1   2
ATOM      2  C   LIG    1       -0.955   2.034   3.541  0.00  0.00    -0.090 A 
ATOM      3  C   LIG    1        0.075   1.506   2.788  0.00  0.00    +0.050 A 
ATOM      4  C   LIG    1       -0.098   1.272   1.436  0.00  0.00    -0.070 A 
ATOM      5  C   LIG    1       -1.310   1.568   0.835  0.00  0.00    -0.080 A 
ATOM      6  C   LIG    1       -1.250   1.224  -0.638  0.00  0.00    +0.090 C 
ATOM      7  C   LIG    1        0.254   1.098  -0.962  0.00  0.00    +0.040 C 
ATOM      8  C   LIG    1       -2.343   2.097   1.591  0.00  0.00    +0.070 A 
ATOM      9  C   LIG    1        0.856   0.708   0.405  0.00  0.00    +0.080 C 
ATOM     10  C   LIG    1       -2.167   2.330   2.942  0.00  0.00    -0.080 A 
ATOM     11 BR   LIG    1       -3.579   3.053   3.970  0.00  0.00    -0.050 Br
ENDBRANCH   1   2
BRANCH   1  12
ATOM     12  C   LIG    1       -0.281   3.699   5.223  0.00  0.00    +0.200 A 
ATOM     13  N   LIG    1        0.823   4.228   4.756  0.00  0.00    -0.290 NA
ATOM     14  N   LIG    1        0.874   5.454   5.149  0.00  0.00    -0.080 NA
ATOM     15  N   LIG    1       -0.166   5.719   5.860  0.00  0.00    -0.090 NA
ATOM     16  N   LIG    1       -0.903   4.662   5.929  0.00  0.00    -0.290 N 
BRANCH  16  17
ATOM     17  C   LIG    1       -2.176   4.534   6.642  0.00  0.00    +0.250 C 
ATOM     18  C   LIG    1       -3.124   5.684   6.241  0.00  0.00    +0.040 C 
ATOM     19  C   LIG    1       -3.868   6.036   7.554  0.00  0.00    +0.030 C 
ATOM     20  C   LIG    1       -2.762   5.883   8.627  0.00  0.00    +0.040 C 
ATOM     21  C   LIG    1       -1.946   4.661   8.158  0.00  0.00    +0.040 C 
ENDBRANCH  16  17
ENDBRANCH   1  12
BRANCH   1  22
ATOM     22  N   LIG    1        0.238   1.347   5.543  0.00  0.00    -0.660 NA
ATOM     23  H   LIG    1        1.029   1.271   4.921  0.00  0.00    +0.360 HD
BRANCH  22  24
ATOM     24  C   LIG    1       -0.360   0.030   5.798  0.00  0.00    +0.250 C 
BRANCH  24  30
ATOM     25  F   LIG    1        2.364  -1.651   9.476  0.00  0.00    -0.130 F 
ATOM     26  C   LIG    1        2.016  -1.705   8.171  0.00  0.00    +0.070 A 
ATOM     27  C   LIG    1        2.624  -2.620   7.330  0.00  0.00    +0.030 A 
ATOM     28  C   LIG    1        2.267  -2.675   5.995  0.00  0.00    +0.040 A 
ATOM     29  C   LIG    1        1.298  -1.822   5.502  0.00  0.00    +0.050 A 
ATOM     30  C   LIG    1        0.692  -0.903   6.339  0.00  0.00    -0.100 A 
ATOM     31  C   LIG    1        1.048  -0.845   7.675  0.00  0.00    +0.090 A 
ATOM     32  F   LIG    1        0.452   0.048   8.495  0.00  0.00    -0.120 F 
ENDBRANCH  24  30
ENDBRANCH  22  24
ENDBRANCH   1  22
TORSDOF 6
