REMARK  Name = ZINCpk000004ATb4.0
REMARK                            x       y       z     vdW  Elec       q    Type
REMARK                         _______ _______ _______ _____ _____    ______ ____
ROOT
ATOM      1  C   LIG    1       -2.503   1.007   0.019  0.00  0.00    +0.570 C 
ATOM      2  N   LIG    1       -3.677   1.669   0.028  0.00  0.00    -0.700 N 
ATOM      3  H   LIG    1       -3.686   2.639   0.034  0.00  0.00    +0.400 HD
ATOM      4  O   LIG    1       -2.491  -0.208   0.012  0.00  0.00    -0.530 OA
ENDROOT
BRANCH   1   8
ATOM      5  C   LIG    1        1.155   3.167   0.009  0.00  0.00    -0.080 A 
ATOM      6  C   LIG    1        1.172   1.783   0.000  0.00  0.00    +0.020 A 
ATOM      7  C   LIG    1       -0.013   1.076   0.008  0.00  0.00    +0.080 A 
ATOM      8  C   LIG    1       -1.230   1.759   0.017  0.00  0.00    -0.120 A 
ATOM      9  C   LIG    1       -1.240   3.154   0.030  0.00  0.00    +0.040 A 
ATOM     10  C   LIG    1       -0.048   3.850   0.023  0.00  0.00    +0.020 A 
BRANCH   5  11
ATOM     11  C   LIG    1        2.452   3.933   0.001  0.00  0.00    +0.320 C 
BRANCH  11  13
ATOM     12  C   LIG    1        3.998   4.864  -1.636  0.00  0.00    +0.540 C 
ATOM     13  N   LIG    1        2.860   4.189  -1.383  0.00  0.00    -0.720 N 
ATOM     14  H   LIG    1        2.310   3.873  -2.117  0.00  0.00    +0.400 HD
ATOM     15  O   LIG    1        4.688   5.261  -0.716  0.00  0.00    -0.540 OA
BRANCH  12  17
ATOM     16  C   LIG    1        5.531   5.788  -3.275  0.00  0.00    +0.150 C 
ATOM     17  C   LIG    1        4.408   5.122  -3.025  0.00  0.00    -0.090 C 
ENDBRANCH  12  17
ENDBRANCH  11  13
ENDBRANCH   5  11
ENDBRANCH   1   8
BRANCH   2  18
ATOM     18  C   LIG    1       -4.938   0.925   0.029  0.00  0.00    +0.300 C 
BRANCH  18  19
ATOM     19  C   LIG    1       -6.023   1.774   0.640  0.00  0.00    -0.100 A 
ATOM     20  C   LIG    1       -6.081   3.127   0.359  0.00  0.00    +0.010 A 
ATOM     21  C   LIG    1       -7.078   3.906   0.916  0.00  0.00    +0.020 A 
ATOM     22  C   LIG    1       -8.012   3.334   1.760  0.00  0.00    +0.020 A 
ATOM     23  C   LIG    1       -7.951   1.982   2.044  0.00  0.00    +0.020 A 
ATOM     24  C   LIG    1       -6.956   1.203   1.484  0.00  0.00    +0.030 A 
ENDBRANCH  18  19
BRANCH  18  25
ATOM     25  C   LIG    1       -5.314   0.571  -1.387  0.00  0.00    +0.510 C 
ATOM     26  O   LIG    1       -4.599   0.908  -2.306  0.00  0.00    -0.530 OA
ATOM     27  N   LIG    1       -6.445  -0.120  -1.631  0.00  0.00    -0.850 N 
ATOM     28  H   LIG    1       -6.687  -0.348  -2.542  0.00  0.00    +0.410 HD
ATOM     29  H   LIG    1       -7.017  -0.389  -0.895  0.00  0.00    +0.400 HD
ENDBRANCH  18  25
ENDBRANCH   2  18
TORSDOF 7
