REMARK  Name = ZINCpk000000nX8S.0
REMARK                            x       y       z     vdW  Elec       q    Type
REMARK                         _______ _______ _______ _____ _____    ______ ____
ROOT
ATOM      1  N   LIG    1       -2.036  -0.501   1.552  0.00  0.00    -0.730 N 
ATOM      2  H   LIG    1       -1.200  -0.993   1.539  0.00  0.00    +0.400 HD
ATOM      3  C   LIG    1       -2.030   0.841   1.427  0.00  0.00    +0.510 C 
ATOM      4  O   LIG    1       -3.075   1.456   1.443  0.00  0.00    -0.520 OA
ENDROOT
BRANCH   3   5
ATOM      5  C   LIG    1       -0.725   1.577   1.269  0.00  0.00    +0.070 C 
ATOM      6  C   LIG    1       -0.013   1.086   0.008  0.00  0.00    +0.100 C 
ATOM      7  C   LIG    1       -0.737   1.583  -1.214  0.00  0.00    +0.520 C 
ATOM      8  N   LIG    1       -1.321   2.795  -1.223  0.00  0.00    -0.660 N 
ATOM      9  H   LIG    1       -1.774   3.105  -2.022  0.00  0.00    +0.420 HD
ATOM     10  C   LIG    1       -1.280   3.610  -0.087  0.00  0.00    +0.210 A 
ATOM     11  C   LIG    1       -1.528   4.971  -0.196  0.00  0.00    -0.050 A 
ATOM     12  C   LIG    1       -1.486   5.771   0.932  0.00  0.00    +0.140 A 
ATOM     13  C   LIG    1       -1.197   5.214   2.167  0.00  0.00    -0.030 A 
ATOM     14  C   LIG    1       -0.950   3.858   2.276  0.00  0.00    +0.100 A 
ATOM     15  F   LIG    1       -1.727   7.096   0.829  0.00  0.00    -0.130 F 
ATOM     16  O   LIG    1       -0.795   0.882  -2.203  0.00  0.00    -0.520 OA
ATOM     17  C   LIG    1       -0.991   3.055   1.153  0.00  0.00    -0.120 A 
ENDBRANCH   3   5
BRANCH   1  18
ATOM     18  C   LIG    1       -3.305  -1.217   1.706  0.00  0.00    +0.270 C 
BRANCH  18  19
ATOM     19  C   LIG    1       -3.033  -2.717   1.826  0.00  0.00    +0.170 C 
BRANCH  19  23
ATOM     20  C   LIG    1       -5.266  -7.103   1.886  0.00  0.00    +0.060 C 
ATOM     21  C   LIG    1       -5.447  -5.598   2.087  0.00  0.00    +0.110 C 
ATOM     22  C   LIG    1       -4.109  -4.887   1.861  0.00  0.00    +0.170 C 
ATOM     23  N   LIG    1       -4.306  -3.435   1.980  0.00  0.00    -0.530 NA
ATOM     24  C   LIG    1       -5.299  -2.962   1.006  0.00  0.00    +0.150 C 
ATOM     25  C   LIG    1       -6.624  -3.692   1.240  0.00  0.00    +0.220 C 
ATOM     26  C   LIG    1       -5.934  -5.327   3.512  0.00  0.00    +0.020 C 
ATOM     27  O   LIG    1       -6.408  -5.103   1.152  0.00  0.00    -0.380 OA
ENDBRANCH  19  23
ENDBRANCH  18  19
ENDBRANCH   1  18
TORSDOF 4
