REMARK  Name = ZINCrg00000SixXD.0
REMARK                            x       y       z     vdW  Elec       q    Type
REMARK                         _______ _______ _______ _____ _____    ______ ____
ROOT
ATOM      1  C   LIG    1        4.818   0.899  -0.039  0.00  0.00    +0.520 C 
ATOM      2  N   LIG    1        6.082   1.368  -0.049  0.00  0.00    -0.610 N 
ATOM      3  C   LIG    1        6.348   2.814  -0.043  0.00  0.00    +0.300 C 
ATOM      4  C   LIG    1        7.065   3.189   1.260  0.00  0.00    +0.130 C 
ATOM      5  C   LIG    1        8.160   2.186   1.519  0.00  0.00    +0.110 A 
ATOM      6  C   LIG    1        8.236   0.962   0.936  0.00  0.00    -0.220 A 
ATOM      7  C   LIG    1        9.372   0.321   1.420  0.00  0.00    +0.000 A 
ATOM      8  N   LIG    1        9.966   1.129   2.264  0.00  0.00    -0.220 NA
ATOM      9  N   LIG    1        9.217   2.313   2.340  0.00  0.00    -0.440 N 
ATOM     10  H   LIG    1        9.425   3.086   2.888  0.00  0.00    +0.450 HD
ATOM     11  C   LIG    1        7.230   0.444  -0.058  0.00  0.00    +0.390 C 
ATOM     12  O   LIG    1        4.615  -0.297  -0.043  0.00  0.00    -0.520 OA
ENDROOT
BRANCH   7  13
ATOM     13  C   LIG    1        9.839  -1.061   1.039  0.00  0.00    +0.550 C 
ATOM     14  F   LIG    1       10.190  -1.078  -0.315  0.00  0.00    -0.160 F 
ATOM     15  F   LIG    1        8.810  -1.980   1.266  0.00  0.00    -0.160 F 
ATOM     16  F   LIG    1       10.952  -1.406   1.813  0.00  0.00    -0.160 F 
ENDBRANCH   7  13
BRANCH   1  17
ATOM     17  C   LIG    1        3.658   1.860  -0.023  0.00  0.00    +0.300 C 
BRANCH  17  18
ATOM     18  N   LIG    1        2.401   1.108  -0.015  0.00  0.00    -0.730 N 
ATOM     19  H   LIG    1        2.416   0.138  -0.020  0.00  0.00    +0.420 HD
BRANCH  18  23
ATOM     20  C   LIG    1       -1.237   3.134   0.030  0.00  0.00    -0.730 A 
ATOM     21  C   LIG    1       -1.217   1.751   0.017  0.00  0.00    +0.170 A 
ATOM     22  C   LIG    1       -0.013   1.076   0.008  0.00  0.00    -0.080 A 
ATOM     23  C   LIG    1        1.180   1.788   0.000  0.00  0.00    +0.270 A 
ATOM     24  C   LIG    1        1.157   3.176   0.008  0.00  0.00    -0.090 A 
ATOM     25  C   LIG    1       -0.051   3.845   0.022  0.00  0.00    +0.170 A 
BRANCH  20  26
ATOM     26  S   LIG    1       -2.776   3.991   0.050  0.00  0.00    +2.710 S 
ATOM     27  O   LIG    1       -2.514   5.275   0.599  0.00  0.00    -0.970 OA
ATOM     28  O   LIG    1       -3.729   3.091   0.599  0.00  0.00    -0.970 OA
BRANCH  26  29
ATOM     29  N   LIG    1       -3.220   4.237  -1.526  0.00  0.00    -1.250 NA
ATOM     30  H   LIG    1       -2.541   4.340  -2.211  0.00  0.00    +0.420 HD
ATOM     31  H   LIG    1       -4.160   4.280  -1.764  0.00  0.00    +0.420 HD
ENDBRANCH  26  29
ENDBRANCH  20  26
ENDBRANCH  18  23
ENDBRANCH  17  18
ENDBRANCH   1  17
TORSDOF 6
