REMARK  Name = ZINCpe00000VVGm4.0
REMARK                            x       y       z     vdW  Elec       q    Type
REMARK                         _______ _______ _______ _____ _____    ______ ____
ROOT
ATOM      1  C   LIG    1       -9.101   0.239   4.875  0.00  0.00    +0.500 C 
ATOM      2  N   LIG    1       -8.009   1.029   4.877  0.00  0.00    -0.600 N 
ATOM      3  C   LIG    1       -7.612   1.687   6.138  0.00  0.00    +0.260 C 
ATOM      4  C   LIG    1       -6.087   1.637   6.337  0.00  0.00    +0.050 C 
ATOM      5  C   LIG    1       -5.561   0.287   5.901  0.00  0.00    +0.190 C 
ATOM      6  N   LIG    1       -5.158   0.362   4.497  0.00  0.00    -0.560 NA
ATOM      7  C   LIG    1       -6.170   0.116   3.540  0.00  0.00    +0.170 C 
ATOM      8  C   LIG    1       -7.270   1.200   3.643  0.00  0.00    +0.300 C 
ATOM      9  O   LIG    1       -9.449  -0.312   3.852  0.00  0.00    -0.530 OA
ENDROOT
BRANCH   1  10
ATOM     10  C   LIG    1       -9.891   0.042   6.143  0.00  0.00    +0.300 C 
BRANCH  10  12
ATOM     11  C   LIG    1      -11.872  -1.174   6.874  0.00  0.00    +0.520 C 
ATOM     12  N   LIG    1      -11.022  -0.852   5.880  0.00  0.00    -0.720 N 
ATOM     13  H   LIG    1      -11.158  -1.212   4.989  0.00  0.00    +0.410 HD
ATOM     14  O   LIG    1      -11.702  -0.724   7.987  0.00  0.00    -0.540 OA
BRANCH  11  15
ATOM     15  C   LIG    1      -13.035  -2.093   6.604  0.00  0.00    +0.060 C 
BRANCH  15  17
ATOM     16  C   LIG    1      -15.018  -3.227   7.616  0.00  0.00    +0.030 C 
ATOM     17  C   LIG    1      -13.837  -2.294   7.891  0.00  0.00    +0.030 C 
ENDBRANCH  15  17
ENDBRANCH  11  15
ENDBRANCH  10  12
ENDBRANCH   1  10
BRANCH   6  18
ATOM     18  C   LIG    1       -3.978  -0.476   4.243  0.00  0.00    +0.320 C 
BRANCH  18  19
ATOM     19  C   LIG    1       -3.344  -0.068   2.939  0.00  0.00    +0.180 A 
ATOM     20  N   LIG    1       -3.621  -0.550   1.764  0.00  0.00    -0.380 NA
ATOM     21  O   LIG    1       -2.942  -0.009   0.917  0.00  0.00    +0.080 OA
ATOM     22  C   LIG    1       -2.136   0.891   1.489  0.00  0.00    +0.210 A 
ATOM     23  N   LIG    1       -2.387   0.864   2.776  0.00  0.00    -0.460 NA
BRANCH  22  24
ATOM     24  C   LIG    1       -1.136   1.773   0.788  0.00  0.00    +0.070 C 
ATOM     25  C   LIG    1       -0.013   1.086   0.008  0.00  0.00    +0.070 C 
ATOM     26  C   LIG    1       -1.150   1.781  -0.743  0.00  0.00    +0.070 C 
ENDBRANCH  22  24
ENDBRANCH  18  19
ENDBRANCH   6  18
TORSDOF 7
