REMARK  Name = ZINCqH00000503zo.0
REMARK                            x       y       z     vdW  Elec       q    Type
REMARK                         _______ _______ _______ _____ _____    ______ ____
ROOT
ATOM      1  C   LIG    1       -3.258  -0.826   3.289  0.00  0.00    +0.130 C 
ENDROOT
BRANCH   1   2
ATOM      2  C   LIG    1       -2.745  -1.267   4.636  0.00  0.00    +0.520 C 
ATOM      3  N   LIG    1       -3.474  -2.114   5.389  0.00  0.00    -0.620 N 
ATOM      4  H   LIG    1       -4.328  -2.440   5.065  0.00  0.00    +0.440 HD
ATOM      5  O   LIG    1       -1.678  -0.859   5.041  0.00  0.00    -0.490 OA
BRANCH   3   6
ATOM      6  C   LIG    1       -3.002  -2.520   6.629  0.00  0.00    +0.080 A 
ATOM      7  C   LIG    1       -3.664  -3.372   7.474  0.00  0.00    -0.240 A 
ATOM      8  C   LIG    1       -2.937  -3.624   8.699  0.00  0.00    +0.060 A 
ATOM      9  C   LIG    1       -1.783  -2.976   8.762  0.00  0.00    -0.110 A 
ATOM     10  S   LIG    1       -1.523  -2.022   7.313  0.00  0.00    +0.300 S 
BRANCH   7  11
ATOM     11  C   LIG    1       -4.969  -3.966   7.168  0.00  0.00    +0.590 C 
ATOM     12  O   LIG    1       -5.523  -3.710   6.115  0.00  0.00    -0.560 OA
ATOM     13  N   LIG    1       -5.556  -4.796   8.054  0.00  0.00    -0.850 N 
ATOM     14  H   LIG    1       -6.419  -5.189   7.851  0.00  0.00    +0.410 HD
ATOM     15  H   LIG    1       -5.115  -5.000   8.893  0.00  0.00    +0.400 HD
ENDBRANCH   7  11
ENDBRANCH   3   6
ENDBRANCH   1   2
BRANCH   1  16
ATOM     16  S   LIG    1       -2.064   0.301   2.528  0.00  0.00    +0.080 S 
BRANCH  16  21
ATOM     17  N   LIG    1       -2.435   1.466   0.021  0.00  0.00    -0.400 N 
ATOM     18  C   LIG    1       -3.387   1.460  -0.975  0.00  0.00    +0.150 A 
ATOM     19  C   LIG    1       -4.374   0.643  -0.570  0.00  0.00    +0.170 A 
ATOM     20  N   LIG    1       -4.055   0.162   0.644  0.00  0.00    -0.480 NA
ATOM     21  C   LIG    1       -2.893   0.648   1.012  0.00  0.00    +0.180 A 
BRANCH  17  29
ATOM     22  C   LIG    1        0.002  -0.004   0.002  0.00  0.00    +0.110 C 
ATOM     23  C   LIG    1       -0.018   1.503   0.010  0.00  0.00    -0.050 A 
ATOM     24  C   LIG    1        1.169   2.211   0.003  0.00  0.00    -0.030 A 
ATOM     25  C   LIG    1        1.150   3.595   0.010  0.00  0.00    +0.050 A 
ATOM     26  C   LIG    1       -0.055   4.272   0.025  0.00  0.00    +0.050 A 
ATOM     27  C   LIG    1       -1.244   3.569   0.034  0.00  0.00    +0.050 A 
ATOM     28 CL   LIG    1        2.684   1.364  -0.016  0.00  0.00    -0.050 Cl
ATOM     29  C   LIG    1       -1.230   2.181   0.020  0.00  0.00    +0.110 A 
ENDBRANCH  17  29
ENDBRANCH  16  21
ENDBRANCH   1  16
TORSDOF 6
