REMARK  Name = ZINCpk00000KfLK1.0
REMARK                            x       y       z     vdW  Elec       q    Type
REMARK                         _______ _______ _______ _____ _____    ______ ____
ROOT
ATOM      1  O   LIG    1        0.008   0.049   0.203  0.00  0.00    -0.520 OA
ATOM      2  C   LIG    1        0.005   1.260   0.133  0.00  0.00    +0.540 C 
ATOM      3  N   LIG    1       -1.161   1.934   0.164  0.00  0.00    -0.630 N 
ATOM      4  H   LIG    1       -1.163   2.902   0.108  0.00  0.00    +0.440 HD
ENDROOT
BRANCH   3   5
ATOM      5  C   LIG    1       -2.349   1.249   0.276  0.00  0.00    +0.440 A 
ATOM      6  C   LIG    1       -3.615   1.811   0.326  0.00  0.00    -0.320 A 
ATOM      7  C   LIG    1       -4.547   0.751   0.438  0.00  0.00    +0.560 A 
ATOM      8  N   LIG    1       -3.856  -0.406   0.464  0.00  0.00    -0.510 N 
ATOM      9  H   LIG    1       -4.239  -1.294   0.538  0.00  0.00    +0.440 HD
ATOM     10  O   LIG    1       -5.758   0.864   0.506  0.00  0.00    -0.540 OA
ATOM     11  N   LIG    1       -2.491  -0.109   0.363  0.00  0.00    -0.470 N 
ATOM     12  H   LIG    1       -1.769  -0.757   0.357  0.00  0.00    +0.450 HD
BRANCH   6  13
ATOM     13  C   LIG    1       -3.934   3.256   0.268  0.00  0.00    +0.010 A 
ATOM     14  C   LIG    1       -3.525   4.105   1.297  0.00  0.00    +0.000 A 
ATOM     15  C   LIG    1       -3.822   5.451   1.236  0.00  0.00    +0.000 A 
ATOM     16  C   LIG    1       -4.533   5.957   0.162  0.00  0.00    +0.000 A 
ATOM     17  C   LIG    1       -4.946   5.120  -0.858  0.00  0.00    +0.000 A 
ATOM     18  C   LIG    1       -4.651   3.773  -0.811  0.00  0.00    +0.020 A 
ENDBRANCH   6  13
ENDBRANCH   3   5
BRANCH   2  19
ATOM     19  C   LIG    1        1.306   2.010   0.004  0.00  0.00    +0.140 C 
BRANCH  19  20
ATOM     20  C   LIG    1        2.451   1.030  -0.014  0.00  0.00    -0.010 A 
ATOM     21  C   LIG    1        3.038   0.675  -1.214  0.00  0.00    +0.040 A 
ATOM     22  C   LIG    1        4.091  -0.220  -1.230  0.00  0.00    +0.090 A 
ATOM     23  C   LIG    1        4.551  -0.767  -0.047  0.00  0.00    +0.040 A 
ATOM     24  C   LIG    1        3.962  -0.415   1.153  0.00  0.00    +0.110 A 
ATOM     25  C   LIG    1        2.911   0.483   1.169  0.00  0.00    -0.030 A 
BRANCH  25  26
ATOM     26  N   LIG    1        2.280   0.859   2.454  0.00  0.00    +0.030 N 
ATOM     27  O   LIG    1        1.287   1.565   2.461  0.00  0.00    -0.170 OA
ATOM     28  O   LIG    1        2.752   0.462   3.504  0.00  0.00    -0.150 OA
ENDBRANCH  25  26
ENDBRANCH  19  20
ENDBRANCH   2  19
TORSDOF 5
