REMARK  Name = ZINCrH000004swmD.0
REMARK                            x       y       z     vdW  Elec       q    Type
REMARK                         _______ _______ _______ _____ _____    ______ ____
ROOT
ATOM      1  C   LIG    1       -1.626   7.345  -5.054  0.00  0.00    +0.610 C 
ATOM      2  N   LIG    1       -1.100   6.677  -4.008  0.00  0.00    -0.730 N 
ATOM      3  H   LIG    1       -1.104   7.078  -3.125  0.00  0.00    +0.400 HD
ATOM      4  O   LIG    1       -1.621   6.841  -6.162  0.00  0.00    -0.500 OA
ENDROOT
BRANCH   1   7
ATOM      5  C   LIG    1       -2.864   9.034  -7.259  0.00  0.00    +0.170 C 
ATOM      6  C   LIG    1       -2.762   9.458  -5.817  0.00  0.00    +0.170 A 
ATOM      7  C   LIG    1       -2.203   8.679  -4.857  0.00  0.00    -0.310 A 
ATOM      8  S   LIG    1       -2.301   9.553  -3.331  0.00  0.00    +0.160 S 
ATOM      9  C   LIG    1       -3.063  10.864  -4.120  0.00  0.00    +0.080 A 
ATOM     10  N   LIG    1       -3.206  10.610  -5.381  0.00  0.00    -0.470 NA
BRANCH   9  11
ATOM     11  C   LIG    1       -3.511  12.134  -3.442  0.00  0.00    +0.050 C 
ATOM     12  C   LIG    1       -5.024  12.299  -3.613  0.00  0.00    +0.040 C 
ATOM     13  C   LIG    1       -5.456  13.629  -2.989  0.00  0.00    -0.010 C 
ATOM     14  C   LIG    1       -4.670  14.769  -3.642  0.00  0.00    +0.220 C 
ATOM     15  O   LIG    1       -3.270  14.538  -3.473  0.00  0.00    -0.380 OA
ATOM     16  C   LIG    1       -2.800  13.332  -4.078  0.00  0.00    +0.250 C 
ENDBRANCH   9  11
ENDBRANCH   1   7
BRANCH   2  17
ATOM     17  C   LIG    1       -0.524   5.345  -4.205  0.00  0.00    +0.390 C 
BRANCH  17  18
ATOM     18  C   LIG    1       -0.575   4.579  -2.908  0.00  0.00    +0.170 A 
ATOM     19  N   LIG    1       -0.953   3.333  -2.751  0.00  0.00    -0.460 NA
ATOM     20  C   LIG    1       -0.834   3.082  -1.435  0.00  0.00    +0.210 A 
ATOM     21  N   LIG    1       -0.402   4.169  -0.869  0.00  0.00    -0.370 NA
ATOM     22  O   LIG    1       -0.242   5.039  -1.698  0.00  0.00    +0.080 OA
BRANCH  20  23
ATOM     23  C   LIG    1       -1.150   1.781  -0.743  0.00  0.00    +0.050 C 
ATOM     24  C   LIG    1       -0.013   1.086   0.008  0.00  0.00    +0.060 C 
ATOM     25  C   LIG    1       -1.136   1.773   0.788  0.00  0.00    +0.050 C 
ENDBRANCH  20  23
ENDBRANCH  17  18
BRANCH  17  26
ATOM     26  C   LIG    1        0.930   5.480  -4.660  0.00  0.00    -0.020 C 
ATOM     27  C   LIG    1        0.982   6.258  -5.977  0.00  0.00    +0.050 C 
ATOM     28  C   LIG    1        1.533   4.089  -4.866  0.00  0.00    +0.040 C 
ENDBRANCH  17  26
ENDBRANCH   2  17
TORSDOF 6
