REMARK  Name = ZINCqH0000008hyT.0
REMARK                            x       y       z     vdW  Elec       q    Type
REMARK                         _______ _______ _______ _____ _____    ______ ____
ROOT
ATOM      1  C   LIG    1       -2.198   1.155   1.217  0.00  0.00    +0.040 C 
ATOM      2  C   LIG    1       -0.729   1.579   1.267  0.00  0.00    +0.270 C 
ENDROOT
BRANCH   2   3
ATOM      3  N   LIG    1       -0.645   3.040   1.336  0.00  0.00    -0.720 N 
ATOM      4  H   LIG    1       -0.527   3.558   0.524  0.00  0.00    +0.400 HD
ATOM      5  C   LIG    1       -0.731   3.665   2.527  0.00  0.00    +0.600 C 
ATOM      6  O   LIG    1       -0.879   3.015   3.545  0.00  0.00    -0.510 OA
BRANCH   5   7
ATOM      7  C   LIG    1       -0.647   5.125   2.595  0.00  0.00    -0.040 A 
ATOM      8  C   LIG    1       -0.725   5.918   3.748  0.00  0.00    -0.090 A 
ATOM      9  C   LIG    1       -0.879   5.697   5.122  0.00  0.00    +0.070 A 
ATOM     10  C   LIG    1       -0.902   6.758   5.973  0.00  0.00    +0.010 A 
ATOM     11  C   LIG    1       -0.772   8.068   5.510  0.00  0.00    +0.030 A 
ATOM     12  C   LIG    1       -0.615   8.349   4.191  0.00  0.00    +0.050 A 
ATOM     13  C   LIG    1       -0.582   7.296   3.255  0.00  0.00    +0.050 A 
ATOM     14  N   LIG    1       -0.449   7.207   1.943  0.00  0.00    -0.260 NA
ATOM     15  N   LIG    1       -0.484   5.984   1.551  0.00  0.00    -0.320 N 
ATOM     16  H   LIG    1       -0.403   5.706   0.625  0.00  0.00    +0.450 HD
ENDBRANCH   5   7
ENDBRANCH   2   3
BRANCH   2  17
ATOM     17  C   LIG    1       -0.013   1.086   0.008  0.00  0.00    +0.220 C 
BRANCH  17  18
ATOM     18  O   LIG    1       -0.704   1.559  -1.150  0.00  0.00    -0.310 OA
BRANCH  18  19
ATOM     19  C   LIG    1       -0.194   1.208  -2.359  0.00  0.00    +0.180 A 
ATOM     20  C   LIG    1        0.948   0.423  -2.431  0.00  0.00    -0.070 A 
ATOM     21  C   LIG    1        1.464   0.067  -3.662  0.00  0.00    +0.090 A 
ATOM     22  C   LIG    1        0.844   0.492  -4.822  0.00  0.00    -0.020 A 
ATOM     23  C   LIG    1       -0.294   1.274  -4.753  0.00  0.00    +0.120 A 
ATOM     24  C   LIG    1       -0.818   1.628  -3.525  0.00  0.00    -0.220 A 
BRANCH  24  25
ATOM     25  C   LIG    1       -2.062   2.474  -3.451  0.00  0.00    +0.520 C 
ATOM     26  F   LIG    1       -1.778   3.664  -2.773  0.00  0.00    -0.180 F 
ATOM     27  F   LIG    1       -3.062   1.775  -2.767  0.00  0.00    -0.170 F 
ATOM     28  F   LIG    1       -2.503   2.770  -4.746  0.00  0.00    -0.180 F 
ENDBRANCH  24  25
ENDBRANCH  18  19
ENDBRANCH  17  18
ENDBRANCH   2  17
TORSDOF 6
