REMARK  Name = ZINCqH0000008hyT.1
REMARK                            x       y       z     vdW  Elec       q    Type
REMARK                         _______ _______ _______ _____ _____    ______ ____
ROOT
ATOM      1  C   LIG    1       -1.773  -0.899  -1.423  0.00  0.00    +0.040 C 
ATOM      2  C   LIG    1       -1.256  -0.754   0.010  0.00  0.00    +0.260 C 
ENDROOT
BRANCH   2   3
ATOM      3  N   LIG    1        0.002  -0.004   0.002  0.00  0.00    -0.710 N 
ATOM      4  H   LIG    1        0.849  -0.478  -0.009  0.00  0.00    +0.410 HD
ATOM      5  C   LIG    1       -0.016   1.344   0.009  0.00  0.00    +0.610 C 
ATOM      6  O   LIG    1       -1.077   1.937   0.018  0.00  0.00    -0.530 OA
BRANCH   5   7
ATOM      7  C   LIG    1        1.250   2.098   0.001  0.00  0.00    -0.000 A 
ATOM      8  N   LIG    1        2.466   1.596  -0.013  0.00  0.00    -0.200 NA
ATOM      9  N   LIG    1        3.364   2.514  -0.017  0.00  0.00    -0.410 N 
ATOM     10  H   LIG    1        4.319   2.346  -0.027  0.00  0.00    +0.450 HD
ATOM     11  C   LIG    1        2.799   3.763  -0.004  0.00  0.00    +0.060 A 
ATOM     12  C   LIG    1        3.296   5.062  -0.002  0.00  0.00    +0.010 A 
ATOM     13  C   LIG    1        2.421   6.126   0.013  0.00  0.00    +0.050 A 
ATOM     14  C   LIG    1        1.049   5.917   0.025  0.00  0.00    -0.010 A 
ATOM     15  C   LIG    1        0.539   4.648   0.023  0.00  0.00    +0.090 A 
ATOM     16  C   LIG    1        1.405   3.559   0.002  0.00  0.00    -0.110 A 
ENDBRANCH   5   7
ENDBRANCH   2   3
BRANCH   2  17
ATOM     17  C   LIG    1       -1.020  -2.141   0.610  0.00  0.00    +0.220 C 
BRANCH  17  18
ATOM     18  O   LIG    1       -0.143  -2.884  -0.239  0.00  0.00    -0.300 OA
BRANCH  18  19
ATOM     19  C   LIG    1        0.172  -4.147   0.152  0.00  0.00    +0.180 A 
ATOM     20  C   LIG    1       -0.353  -4.660   1.329  0.00  0.00    -0.070 A 
ATOM     21  C   LIG    1       -0.032  -5.945   1.725  0.00  0.00    +0.090 A 
ATOM     22  C   LIG    1        0.812  -6.718   0.949  0.00  0.00    -0.020 A 
ATOM     23  C   LIG    1        1.337  -6.208  -0.224  0.00  0.00    +0.120 A 
ATOM     24  C   LIG    1        1.014  -4.927  -0.627  0.00  0.00    -0.220 A 
BRANCH  24  25
ATOM     25  C   LIG    1        1.580  -4.374  -1.910  0.00  0.00    +0.520 C 
ATOM     26  F   LIG    1        2.339  -3.233  -1.631  0.00  0.00    -0.170 F 
ATOM     27  F   LIG    1        0.534  -4.038  -2.776  0.00  0.00    -0.170 F 
ATOM     28  F   LIG    1        2.393  -5.339  -2.514  0.00  0.00    -0.180 F 
ENDBRANCH  24  25
ENDBRANCH  18  19
ENDBRANCH  17  18
ENDBRANCH   2  17
TORSDOF 6
