REMARK  Name = ZINCqH0000032wuL.0
REMARK                            x       y       z     vdW  Elec       q    Type
REMARK                         _______ _______ _______ _____ _____    ______ ____
ROOT
ATOM      1  C   LIG    1        4.341   1.113   1.568  0.00  0.00    +0.570 C 
ATOM      2  N   LIG    1        3.063   1.476   1.340  0.00  0.00    -0.720 N 
ATOM      3  H   LIG    1        2.509   1.786   2.073  0.00  0.00    +0.400 HD
ATOM      4  O   LIG    1        5.036   0.725   0.649  0.00  0.00    -0.530 OA
ENDROOT
BRANCH   1  11
ATOM      5  C   LIG    1        7.939   0.636   5.197  0.00  0.00    +0.080 A 
ATOM      6  N   LIG    1        7.698   0.939   6.438  0.00  0.00    -0.310 NA
ATOM      7  O   LIG    1        6.571   1.331   6.630  0.00  0.00    +0.090 OA
ATOM      8  C   LIG    1        5.827   1.362   5.510  0.00  0.00    +0.230 A 
ATOM      9  N   LIG    1        4.582   1.704   5.224  0.00  0.00    -0.460 NA
ATOM     10  C   LIG    1        4.109   1.637   3.999  0.00  0.00    +0.370 A 
ATOM     11  C   LIG    1        4.897   1.186   2.934  0.00  0.00    -0.210 A 
ATOM     12  C   LIG    1        6.223   0.812   3.182  0.00  0.00    +0.230 A 
ATOM     13  C   LIG    1        6.685   0.903   4.486  0.00  0.00    -0.220 A 
BRANCH   5  15
ATOM     14  C   LIG    1       10.342   1.143   4.857  0.00  0.00    +0.040 C 
ATOM     15  C   LIG    1        9.230   0.121   4.615  0.00  0.00    +0.080 C 
ATOM     16  C   LIG    1        9.600  -1.204   5.285  0.00  0.00    +0.040 C 
ENDBRANCH   5  15
ENDBRANCH   1  11
BRANCH   2  17
ATOM     17  C   LIG    1        2.512   1.403  -0.015  0.00  0.00    +0.360 C 
BRANCH  17  18
ATOM     18  C   LIG    1        1.076   1.861   0.002  0.00  0.00    -0.200 A 
ATOM     19  C   LIG    1       -0.013   1.076   0.008  0.00  0.00    +0.250 A 
ATOM     20  N   LIG    1       -1.144   1.846   0.017  0.00  0.00    -0.480 N 
ATOM     21  C   LIG    1       -0.802   3.180   0.027  0.00  0.00    +0.090 A 
ATOM     22  C   LIG    1       -1.541   4.358   0.040  0.00  0.00    -0.010 A 
ATOM     23  C   LIG    1       -0.891   5.573   0.040  0.00  0.00    +0.030 A 
ATOM     24  C   LIG    1        0.495   5.635   0.027  0.00  0.00    -0.020 A 
ATOM     25  C   LIG    1        1.241   4.490   0.014  0.00  0.00    +0.050 A 
ATOM     26  C   LIG    1       -2.514   1.329   0.020  0.00  0.00    +0.320 C 
ATOM     27  C   LIG    1        0.604   3.248   0.014  0.00  0.00    -0.090 A 
ENDBRANCH  17  18
ENDBRANCH   2  17
TORSDOF 4
