REMARK  Name = ZINCpk000000mSnW.0
REMARK                            x       y       z     vdW  Elec       q    Type
REMARK                         _______ _______ _______ _____ _____    ______ ____
ROOT
ATOM      1  C   LIG    1        1.105   2.020  -0.960  0.00  0.00    +0.220 C 
ATOM      2  C   LIG    1        1.788   3.319  -0.521  0.00  0.00    +0.040 C 
ATOM      3  C   LIG    1        2.749   3.782  -1.619  0.00  0.00    +0.020 C 
ATOM      4  C   LIG    1        3.827   2.718  -1.837  0.00  0.00    +0.010 C 
ATOM      5  C   LIG    1        3.167   1.413  -2.291  0.00  0.00    +0.270 C 
ATOM      6  N   LIG    1        2.139   1.037  -1.311  0.00  0.00    -0.600 N 
ATOM      7  C   LIG    1        2.144  -0.186  -0.745  0.00  0.00    +0.560 C 
ATOM      8  O   LIG    1        1.223  -0.529  -0.030  0.00  0.00    -0.500 OA
ENDROOT
BRANCH   7   9
ATOM      9  C   LIG    1        3.269  -1.111  -0.995  0.00  0.00    -0.120 A 
ATOM     10  C   LIG    1        4.580  -0.707  -0.735  0.00  0.00    +0.040 A 
ATOM     11  C   LIG    1        5.625  -1.577  -0.966  0.00  0.00    +0.010 A 
ATOM     12  C   LIG    1        5.378  -2.844  -1.464  0.00  0.00    +0.030 A 
ATOM     13  C   LIG    1        4.082  -3.249  -1.728  0.00  0.00    +0.010 A 
ATOM     14  C   LIG    1        3.027  -2.391  -1.497  0.00  0.00    +0.060 A 
ENDBRANCH   7   9
BRANCH   1  17
ATOM     15  N   LIG    1       -1.058   1.286  -0.011  0.00  0.00    -0.720 N 
ATOM     16  H   LIG    1       -1.467   1.490  -0.867  0.00  0.00    +0.400 HD
ATOM     17  C   LIG    1        0.262   1.486   0.169  0.00  0.00    +0.540 C 
ATOM     18  O   LIG    1        0.774   1.230   1.239  0.00  0.00    -0.510 OA
BRANCH  15  24
ATOM     19  C   LIG    1       -5.472   1.111   4.239  0.00  0.00    +0.100 C 
ATOM     20  C   LIG    1       -4.224   1.777   3.721  0.00  0.00    +0.530 C 
ATOM     21  N   LIG    1       -3.659   1.351   2.573  0.00  0.00    -0.620 N 
ATOM     22  C   LIG    1       -4.153   0.252   1.732  0.00  0.00    +0.250 C 
ATOM     23  C   LIG    1       -3.176   0.107   0.545  0.00  0.00    +0.030 C 
ATOM     24  C   LIG    1       -1.876   0.761   1.085  0.00  0.00    +0.250 C 
ATOM     25  C   LIG    1       -2.443   1.910   1.955  0.00  0.00    +0.240 C 
ATOM     26  O   LIG    1       -3.727   2.697   4.336  0.00  0.00    -0.540 OA
ENDBRANCH  15  24
ENDBRANCH   1  17
TORSDOF 3
