REMARK  Name = ZINCpk00000KfKDt.0
REMARK                            x       y       z     vdW  Elec       q    Type
REMARK                         _______ _______ _______ _____ _____    ______ ____
ROOT
ATOM      1  C   LIG    1        2.207   0.798   0.598  0.00  0.00    -0.020 C 
ATOM      2  C   LIG    1        1.482  -0.442   0.013  0.00  0.00    +0.070 C 
ATOM      3  C   LIG    1        0.002  -0.004   0.002  0.00  0.00    +0.240 C 
ATOM      4  N   LIG    1       -0.018   1.466   0.010  0.00  0.00    -0.640 N 
ATOM      5  C   LIG    1       -1.124   2.236   0.020  0.00  0.00    +0.730 C 
ATOM      6  N   LIG    1       -2.344   1.664   0.023  0.00  0.00    -0.730 N 
ATOM      7  H   LIG    1       -2.426   0.698   0.019  0.00  0.00    +0.400 HD
ATOM      8  O   LIG    1       -1.020   3.448   0.025  0.00  0.00    -0.580 OA
ATOM      9  C   LIG    1        1.372   1.958  -0.001  0.00  0.00    +0.300 C 
ENDROOT
BRANCH   1  13
ATOM     10  N   LIG    1        4.435   1.871   0.523  0.00  0.00    -0.850 N 
ATOM     11  H   LIG    1        5.355   1.911   0.218  0.00  0.00    +0.400 HD
ATOM     12  H   LIG    1        4.090   2.556   1.117  0.00  0.00    +0.400 HD
ATOM     13  C   LIG    1        3.636   0.862   0.123  0.00  0.00    +0.530 C 
ATOM     14  O   LIG    1        4.068   0.004  -0.619  0.00  0.00    -0.540 OA
ENDBRANCH   1  13
BRANCH   6  15
ATOM     15  C   LIG    1       -3.546   2.502   0.034  0.00  0.00    +0.340 C 
BRANCH  15  16
ATOM     16  C   LIG    1       -4.691   1.729   0.636  0.00  0.00    -0.090 A 
ATOM     17  C   LIG    1       -4.853   0.390   0.337  0.00  0.00    +0.030 A 
ATOM     18  C   LIG    1       -5.902  -0.322   0.887  0.00  0.00    +0.030 A 
ATOM     19  C   LIG    1       -6.795   0.306   1.742  0.00  0.00    +0.050 A 
ATOM     20  O   LIG    1       -7.826  -0.406   2.273  0.00  0.00    -0.310 OA
ATOM     21  C   LIG    1       -8.481   0.161   3.413  0.00  0.00    +0.220 C 
ATOM     22  C   LIG    1       -8.750   1.644   3.124  0.00  0.00    +0.220 C 
ATOM     23  O   LIG    1       -7.494   2.288   2.884  0.00  0.00    -0.310 OA
ATOM     24  C   LIG    1       -6.632   1.653   2.044  0.00  0.00    +0.060 A 
ATOM     25  C   LIG    1       -5.574   2.360   1.492  0.00  0.00    +0.040 A 
ENDBRANCH  15  16
BRANCH  15  26
ATOM     26  C   LIG    1       -3.900   2.904  -1.400  0.00  0.00    -0.060 C 
ATOM     27  C   LIG    1       -3.123   2.232  -2.534  0.00  0.00    +0.010 C 
ATOM     28  C   LIG    1       -2.857   3.699  -2.188  0.00  0.00    +0.030 C 
ENDBRANCH  15  26
ENDBRANCH   6  15
TORSDOF 4
