REMARK  Name = ZINCqH0000004Rxy.0
REMARK                            x       y       z     vdW  Elec       q    Type
REMARK                         _______ _______ _______ _____ _____    ______ ____
ROOT
ATOM      1  N   LIG    1        1.761   3.625   1.417  0.00  0.00    -0.510 N 
ATOM      2  C   LIG    1        0.523   3.522   2.135  0.00  0.00    +0.260 C 
ATOM      3  C   LIG    1       -0.179   2.198   1.929  0.00  0.00    -0.040 C 
ATOM      4  C   LIG    1        0.507   1.093   2.650  0.00  0.00    +0.520 C 
ATOM      5  N   LIG    1        1.796   0.971   2.835  0.00  0.00    -0.650 N 
ATOM      6  H   LIG    1        2.041   0.111   3.210  0.00  0.00    +0.400 HD
ATOM      7  C   LIG    1        2.887   1.789   2.617  0.00  0.00    +0.150 A 
ATOM      8  C   LIG    1        4.103   1.302   3.118  0.00  0.00    -0.030 A 
ATOM      9  C   LIG    1        5.279   1.995   2.944  0.00  0.00    +0.050 A 
ATOM     10  C   LIG    1        5.271   3.198   2.263  0.00  0.00    +0.000 A 
ATOM     11  C   LIG    1        4.084   3.693   1.773  0.00  0.00    +0.070 A 
ATOM     12  O   LIG    1       -0.198   0.221   3.112  0.00  0.00    -0.530 OA
ATOM     13  C   LIG    1       -1.616   2.312   2.441  0.00  0.00    +0.070 C 
ATOM     14  C   LIG    1        2.879   3.000   1.949  0.00  0.00    +0.070 A 
ENDROOT
BRANCH   1  15
ATOM     15  C   LIG    1        1.581   3.267   0.004  0.00  0.00    +0.320 C 
BRANCH  15  25
ATOM     16  N   LIG    1        2.808   5.080  -1.292  0.00  0.00    -0.480 N 
ATOM     17  C   LIG    1        4.005   5.187  -1.971  0.00  0.00    +0.080 A 
ATOM     18  C   LIG    1        4.632   6.211  -2.668  0.00  0.00    +0.010 A 
ATOM     19  C   LIG    1        5.862   5.992  -3.251  0.00  0.00    +0.070 A 
ATOM     20  C   LIG    1        6.480   4.755  -3.146  0.00  0.00    -0.030 A 
ATOM     21  C   LIG    1        5.874   3.726  -2.458  0.00  0.00    +0.160 A 
ATOM     22  F   LIG    1        6.484   2.524  -2.360  0.00  0.00    -0.130 F 
ATOM     23  C   LIG    1        4.626   3.931  -1.861  0.00  0.00    +0.010 A 
ATOM     24  N   LIG    1        3.793   3.140  -1.136  0.00  0.00    -0.460 NA
ATOM     25  C   LIG    1        2.731   3.812  -0.804  0.00  0.00    +0.290 A 
BRANCH  16  27
ATOM     26  C   LIG    1        0.807   6.076  -2.285  0.00  0.00    +0.030 C 
ATOM     27  C   LIG    1        1.806   6.136  -1.128  0.00  0.00    +0.290 C 
ENDBRANCH  16  27
ENDBRANCH  15  25
ENDBRANCH   1  15
TORSDOF 3
