REMARK  Name = ZINCkj000005hvG9.1
REMARK                            x       y       z     vdW  Elec       q    Type
REMARK                         _______ _______ _______ _____ _____    ______ ____
ROOT
ATOM      1  N   LIG    1        1.229  -1.756   1.245  0.00  0.00    -0.640 N 
ATOM      2  H   LIG    1        1.411  -2.152   0.379  0.00  0.00    +0.420 HD
ATOM      3  C   LIG    1        0.256  -0.832   1.372  0.00  0.00    +0.500 C 
ATOM      4  O   LIG    1       -0.040  -0.409   2.470  0.00  0.00    -0.500 OA
ENDROOT
BRANCH   1   8
ATOM      5  C   LIG    1        3.455  -2.906   4.573  0.00  0.00    -0.130 A 
ATOM      6  C   LIG    1        2.837  -1.653   4.543  0.00  0.00    +0.060 A 
ATOM      7  C   LIG    1        2.106  -1.274   3.439  0.00  0.00    +0.020 A 
ATOM      8  C   LIG    1        1.974  -2.141   2.360  0.00  0.00    +0.140 A 
ATOM      9  C   LIG    1        2.588  -3.389   2.386  0.00  0.00    -0.100 A 
ATOM     10  C   LIG    1        2.446  -4.323   1.212  0.00  0.00    +0.100 C 
ATOM     11  C   LIG    1        3.325  -3.772   3.484  0.00  0.00    +0.110 A 
BRANCH   5  15
ATOM     12  C   LIG    1        5.152  -2.881   7.971  0.00  0.00    +0.300 C 
ATOM     13  N   LIG    1        4.369  -2.477   6.801  0.00  0.00    -0.730 N 
ATOM     14  H   LIG    1        3.941  -1.607   6.781  0.00  0.00    +0.400 HD
ATOM     15  C   LIG    1        4.244  -3.313   5.752  0.00  0.00    +0.550 C 
ATOM     16  O   LIG    1        4.781  -4.404   5.776  0.00  0.00    -0.530 OA
ENDBRANCH   5  15
ENDBRANCH   1   8
BRANCH   3  17
ATOM     17  C   LIG    1       -0.465  -0.324   0.150  0.00  0.00    +0.190 C 
BRANCH  17  18
ATOM     18  N   LIG    1       -1.104   0.962   0.457  0.00  0.00    -0.620 N 
ATOM     19  H   LIG    1       -1.764   0.839   1.210  0.00  0.00    +0.450 HD
ATOM     20  H   LIG    1       -1.587   1.302  -0.361  0.00  0.00    +0.440 HD
ATOM     21  H   LIG    1       -0.400   1.630   0.734  0.00  0.00    +0.440 HD
ENDBRANCH  17  18
BRANCH  17  22
ATOM     22  C   LIG    1       -1.533  -1.336  -0.270  0.00  0.00    +0.110 C 
BRANCH  22  23
ATOM     23  C   LIG    1       -2.180  -0.882  -1.580  0.00  0.00    +0.060 C 
BRANCH  23  24
ATOM     24  S   LIG    1       -3.446  -2.082  -2.077  0.00  0.00    -0.220 S 
ATOM     25  C   LIG    1       -4.087  -1.382  -3.623  0.00  0.00    +0.140 C 
ENDBRANCH  23  24
ENDBRANCH  22  23
ENDBRANCH  17  22
ENDBRANCH   3  17
TORSDOF 7
