REMARK  Name = ZINCrg000000s136.0
REMARK                            x       y       z     vdW  Elec       q    Type
REMARK                         _______ _______ _______ _____ _____    ______ ____
ROOT
ATOM      1  N   LIG    1       -5.566  -2.105  -2.099  0.00  0.00    -0.530 NA
ATOM      2  C   LIG    1       -4.763  -1.459  -3.146  0.00  0.00    +0.190 C 
ATOM      3  C   LIG    1       -3.305  -1.917  -3.023  0.00  0.00    +0.300 C 
ATOM      4  N   LIG    1       -2.851  -1.665  -1.647  0.00  0.00    -0.610 N 
ATOM      5  C   LIG    1       -3.676  -2.170  -0.538  0.00  0.00    +0.290 C 
ATOM      6  C   LIG    1       -1.707  -0.994  -1.408  0.00  0.00    +0.500 C 
ATOM      7  O   LIG    1       -1.037  -0.590  -2.334  0.00  0.00    -0.520 OA
ATOM      8  C   LIG    1       -5.122  -1.697  -0.759  0.00  0.00    +0.170 C 
ENDROOT
BRANCH   1   9
ATOM      9  C   LIG    1       -6.996  -1.829  -2.287  0.00  0.00    +0.310 C 
BRANCH   9  14
ATOM     10  C   LIG    1       -9.338  -2.172   2.219  0.00  0.00    +0.160 C 
ATOM     11  C   LIG    1       -8.769  -2.459   0.854  0.00  0.00    +0.020 A 
ATOM     12  N   LIG    1       -8.849  -3.579   0.195  0.00  0.00    -0.360 NA
ATOM     13  O   LIG    1       -8.295  -3.505  -0.877  0.00  0.00    +0.110 OA
ATOM     14  C   LIG    1       -7.761  -2.292  -1.073  0.00  0.00    -0.030 A 
ATOM     15  C   LIG    1       -8.038  -1.566   0.036  0.00  0.00    -0.060 A 
ENDBRANCH   9  14
ENDBRANCH   1   9
BRANCH   6  16
ATOM     16  C   LIG    1       -1.260  -0.747   0.010  0.00  0.00    +0.340 C 
BRANCH  16  17
ATOM     17  N   LIG    1        0.002  -0.004   0.002  0.00  0.00    -0.530 N 
ATOM     18  C   LIG    1       -0.016   1.354   0.009  0.00  0.00    +0.580 A 
ATOM     19  N   LIG    1        1.058   2.083   0.003  0.00  0.00    -0.520 NA
ATOM     20  C   LIG    1        2.295   1.526  -0.012  0.00  0.00    +0.150 A 
ATOM     21  C   LIG    1        3.451   2.309  -0.019  0.00  0.00    +0.030 A 
ATOM     22  C   LIG    1        4.686   1.702  -0.035  0.00  0.00    +0.070 A 
ATOM     23  C   LIG    1        4.798   0.318  -0.044  0.00  0.00    +0.000 A 
ATOM     24  C   LIG    1        3.672  -0.476  -0.037  0.00  0.00    +0.100 A 
ATOM     25  C   LIG    1        2.413   0.119  -0.021  0.00  0.00    -0.190 A 
ATOM     26  C   LIG    1        1.176  -0.677  -0.013  0.00  0.00    +0.550 A 
ATOM     27  O   LIG    1        1.207  -1.894  -0.021  0.00  0.00    -0.510 OA
ENDBRANCH  16  17
ENDBRANCH   6  16
TORSDOF 4
