REMARK  Name = ZINCrD0000074pc3.0
REMARK                            x       y       z     vdW  Elec       q    Type
REMARK                         _______ _______ _______ _____ _____    ______ ____
ROOT
ATOM      1  C   LIG    1       -2.833   5.450  -0.068  0.00  0.00    +0.420 C 
ATOM      2  O   LIG    1       -2.029   6.337   0.132  0.00  0.00    -0.450 OA
ENDROOT
BRANCH   1   6
ATOM      3  C   LIG    1       -2.860   0.356  -0.203  0.00  0.00    +0.150 C 
ATOM      4  C   LIG    1       -2.438   1.797  -0.073  0.00  0.00    +0.020 A 
ATOM      5  C   LIG    1       -3.244   2.861  -0.224  0.00  0.00    +0.020 A 
ATOM      6  C   LIG    1       -2.407   4.050  -0.009  0.00  0.00    -0.260 A 
ATOM      7  C   LIG    1       -1.138   3.576   0.263  0.00  0.00    +0.140 A 
ATOM      8  C   LIG    1        0.076   4.419   0.559  0.00  0.00    +0.160 C 
ATOM      9  N   LIG    1       -1.173   2.229   0.216  0.00  0.00    -0.360 N 
BRANCH   9  10
ATOM     10  C   LIG    1       -0.074   1.393   0.438  0.00  0.00    +0.210 A 
ATOM     11  N   LIG    1        1.119   1.511  -0.083  0.00  0.00    -0.350 NA
ATOM     12  O   LIG    1        1.856   0.631   0.296  0.00  0.00    +0.120 OA
ATOM     13  C   LIG    1        1.237  -0.207   1.139  0.00  0.00    +0.200 A 
ATOM     14  C   LIG    1       -0.032   0.243   1.269  0.00  0.00    -0.040 A 
ENDBRANCH   9  10
ENDBRANCH   1   6
BRANCH   1  15
ATOM     15  C   LIG    1       -4.268   5.789  -0.376  0.00  0.00    +0.330 C 
BRANCH  15  16
ATOM     16  N   LIG    1       -4.437   7.244  -0.376  0.00  0.00    -0.540 N 
ATOM     17  C   LIG    1       -4.260   7.942  -1.529  0.00  0.00    +0.590 A 
ATOM     18  N   LIG    1       -4.393   9.231  -1.610  0.00  0.00    -0.520 NA
ATOM     19  C   LIG    1       -4.722   9.982  -0.529  0.00  0.00    +0.160 A 
ATOM     20  C   LIG    1       -4.865  11.368  -0.617  0.00  0.00    +0.050 A 
ATOM     21  C   LIG    1       -5.201  12.091   0.505  0.00  0.00    +0.090 A 
ATOM     22  C   LIG    1       -5.401  11.459   1.726  0.00  0.00    -0.060 A 
ATOM     23  C   LIG    1       -5.265  10.091   1.838  0.00  0.00    +0.120 A 
ATOM     24 CL   LIG    1       -5.823  12.398   3.124  0.00  0.00    -0.060 Cl
ATOM     25  C   LIG    1       -4.926   9.341   0.714  0.00  0.00    -0.180 A 
ATOM     26  C   LIG    1       -4.773   7.880   0.770  0.00  0.00    +0.560 A 
ATOM     27  O   LIG    1       -4.940   7.266   1.808  0.00  0.00    -0.500 OA
ENDBRANCH  15  16
ENDBRANCH   1  15
TORSDOF 4
