REMARK  Name = ZINCpe000000Ypsl.0
REMARK                            x       y       z     vdW  Elec       q    Type
REMARK                         _______ _______ _______ _____ _____    ______ ____
ROOT
ATOM      1  C   LIG    1       -0.431  -1.321  -1.485  0.00  0.00    +0.610 C 
ATOM      2  N   LIG    1       -0.340  -2.631  -1.182  0.00  0.00    -0.600 N 
ATOM      3  C   LIG    1        0.900  -3.184  -0.619  0.00  0.00    +0.290 C 
ATOM      4  C   LIG    1        0.559  -3.893   0.703  0.00  0.00    +0.290 C 
ATOM      5  N   LIG    1       -0.577  -4.796   0.470  0.00  0.00    -0.610 N 
ATOM      6  C   LIG    1       -1.815  -4.244  -0.099  0.00  0.00    +0.260 C 
ATOM      7  C   LIG    1       -0.486  -6.106   0.773  0.00  0.00    +0.590 C 
ATOM      8  O   LIG    1        0.551  -6.555   1.224  0.00  0.00    -0.520 OA
ATOM      9  C   LIG    1       -1.476  -3.534  -1.415  0.00  0.00    +0.290 C 
ATOM     10  O   LIG    1       -1.492  -0.855  -1.853  0.00  0.00    -0.520 OA
ENDROOT
BRANCH   7  11
ATOM     11  C   LIG    1       -1.639  -6.992   0.558  0.00  0.00    +0.010 A 
ATOM     12  C   LIG    1       -1.573  -8.331   0.336  0.00  0.00    +0.060 A 
ATOM     13  C   LIG    1       -2.897  -8.809   0.181  0.00  0.00    -0.120 A 
ATOM     14  C   LIG    1       -3.440 -10.077  -0.063  0.00  0.00    +0.070 A 
ATOM     15  C   LIG    1       -4.792 -10.228  -0.164  0.00  0.00    -0.020 A 
ATOM     16  C   LIG    1       -5.638  -9.135  -0.028  0.00  0.00    +0.050 A 
ATOM     17  C   LIG    1       -5.129  -7.878   0.212  0.00  0.00    -0.010 A 
ATOM     18  C   LIG    1       -3.753  -7.699   0.320  0.00  0.00    +0.110 A 
ATOM     19  N   LIG    1       -2.963  -6.598   0.555  0.00  0.00    -0.580 N 
ATOM     20  H   LIG    1       -3.283  -5.693   0.694  0.00  0.00    +0.420 HD
ENDBRANCH   7  11
BRANCH   1  25
ATOM     21  C   LIG    1        4.121   0.265  -0.545  0.00  0.00    +0.420 C 
ATOM     22  N   LIG    1        2.718   0.247  -0.969  0.00  0.00    -0.140 N 
ATOM     23  N   LIG    1        2.091   1.260  -1.452  0.00  0.00    -0.280 NA
ATOM     24  C   LIG    1        0.859   0.908  -1.729  0.00  0.00    +0.250 A 
ATOM     25  C   LIG    1        0.758  -0.451  -1.369  0.00  0.00    -0.050 A 
ATOM     26  N   LIG    1        1.954  -0.785  -0.907  0.00  0.00    -0.250 NA
ENDBRANCH   1  25
TORSDOF 2
