REMARK  Name = ZINCrg00001JduRY.0
REMARK                            x       y       z     vdW  Elec       q    Type
REMARK                         _______ _______ _______ _____ _____    ______ ____
ROOT
ATOM      1  C   LIG    1        3.606   0.681  -0.194  0.00  0.00    +0.220 C 
ENDROOT
BRANCH   1   2
ATOM      2  N   LIG    1        2.408  -0.159  -0.322  0.00  0.00    -0.480 NA
ATOM      3  C   LIG    1        2.577  -1.442   0.408  0.00  0.00    +0.180 C 
ATOM      4  C   LIG    1        1.545  -2.394  -0.235  0.00  0.00    +0.010 C 
ATOM      5  C   LIG    1        1.292  -1.819  -1.644  0.00  0.00    +0.000 C 
ATOM      6  C   LIG    1        2.192  -0.568  -1.734  0.00  0.00    +0.190 C 
BRANCH   5   7
ATOM      7  C   LIG    1        1.690  -2.838  -2.713  0.00  0.00    +0.180 C 
BRANCH   7   8
ATOM      8  O   LIG    1        1.341  -2.335  -4.004  0.00  0.00    -0.570 OA
ATOM      9  H   LIG    1        1.565  -2.931  -4.732  0.00  0.00    +0.380 HD
ENDBRANCH   7   8
ENDBRANCH   5   7
BRANCH   4  10
ATOM     10  C   LIG    1        0.249  -2.400   0.578  0.00  0.00    +0.190 C 
BRANCH  10  11
ATOM     11  O   LIG    1        0.477  -3.041   1.834  0.00  0.00    -0.570 OA
ATOM     12  H   LIG    1       -0.304  -3.080   2.403  0.00  0.00    +0.380 HD
ENDBRANCH  10  11
ENDBRANCH   4  10
ENDBRANCH   1   2
BRANCH   1  13
ATOM     13  C   LIG    1        3.434   1.930  -1.020  0.00  0.00    -0.180 A 
ATOM     14  C   LIG    1        2.292   2.652  -1.019  0.00  0.00    +0.030 A 
ATOM     15  S   LIG    1        2.576   3.963  -2.097  0.00  0.00    +0.280 S 
ATOM     16  N   LIG    1        4.159   3.506  -2.504  0.00  0.00    -0.460 NA
ATOM     17  C   LIG    1        4.427   2.420  -1.840  0.00  0.00    +0.280 A 
ENDBRANCH   1  13
BRANCH   1  19
ATOM     18  O   LIG    1        2.858   1.060   2.012  0.00  0.00    -0.480 OA
ATOM     19  C   LIG    1        3.803   1.058   1.252  0.00  0.00    +0.520 C 
ATOM     20  N   LIG    1        5.029   1.394   1.699  0.00  0.00    -0.670 N 
ATOM     21  H   LIG    1        5.796   1.324   1.110  0.00  0.00    +0.410 HD
BRANCH  20  22
ATOM     22  C   LIG    1        5.195   1.845   3.015  0.00  0.00    +0.160 A 
ATOM     23  C   LIG    1        4.184   2.568   3.634  0.00  0.00    +0.040 A 
ATOM     24  C   LIG    1        4.345   3.009   4.934  0.00  0.00    +0.060 A 
ATOM     25  C   LIG    1        5.518   2.740   5.620  0.00  0.00    +0.020 A 
ATOM     26  O   LIG    1        5.920   3.061   6.885  0.00  0.00    -0.310 OA
ATOM     27  C   LIG    1        7.349   2.885   6.891  0.00  0.00    +0.430 C 
ATOM     28  O   LIG    1        7.575   1.889   5.875  0.00  0.00    -0.310 OA
ATOM     29  C   LIG    1        6.536   2.019   4.999  0.00  0.00    +0.050 A 
ATOM     30  C   LIG    1        6.373   1.573   3.699  0.00  0.00    +0.010 A 
ENDBRANCH  20  22
ENDBRANCH   1  19
TORSDOF 8
