REMARK  Name = ZINCpe000000Z95X.0
REMARK                            x       y       z     vdW  Elec       q    Type
REMARK                         _______ _______ _______ _____ _____    ______ ____
ROOT
ATOM      1  O   LIG    1       -1.227   1.552  -1.789  0.00  0.00    -0.530 OA
ATOM      2  C   LIG    1       -0.762   2.264  -0.925  0.00  0.00    +0.520 C 
ATOM      3  N   LIG    1       -0.905   3.602  -1.005  0.00  0.00    -0.730 N 
ATOM      4  H   LIG    1       -0.533   4.172  -0.314  0.00  0.00    +0.400 HD
ENDROOT
BRANCH   2   5
ATOM      5  C   LIG    1       -0.025   1.654   0.240  0.00  0.00    +0.000 C 
ATOM      6  C   LIG    1        1.410   2.183   0.268  0.00  0.00    +0.030 C 
ATOM      7  C   LIG    1        2.146   1.587   1.472  0.00  0.00    +0.300 C 
ATOM      8  N   LIG    1        2.044   0.123   1.412  0.00  0.00    -0.630 N 
ATOM      9  C   LIG    1        0.713  -0.488   1.292  0.00  0.00    +0.260 C 
ATOM     10  C   LIG    1        3.149  -0.646   1.466  0.00  0.00    +0.730 C 
ATOM     11  N   LIG    1        3.037  -1.978   1.634  0.00  0.00    -0.640 N 
ATOM     12  C   LIG    1        1.782  -2.743   1.595  0.00  0.00    +0.250 C 
ATOM     13  C   LIG    1        2.138  -4.221   1.862  0.00  0.00    +0.030 C 
ATOM     14  C   LIG    1        3.497  -4.120   2.604  0.00  0.00    +0.040 C 
ATOM     15  C   LIG    1        4.150  -2.909   1.894  0.00  0.00    +0.270 C 
ATOM     16  O   LIG    1        4.249  -0.137   1.363  0.00  0.00    -0.580 OA
ATOM     17  C   LIG    1       -0.007   0.131   0.089  0.00  0.00    +0.040 C 
ENDBRANCH   2   5
BRANCH   3  18
ATOM     18  C   LIG    1       -1.621   4.196  -2.137  0.00  0.00    +0.260 C 
BRANCH  18  19
ATOM     19  C   LIG    1       -1.640   5.718  -1.987  0.00  0.00    +0.290 C 
BRANCH  19  20
ATOM     20  N   LIG    1       -2.357   6.311  -3.119  0.00  0.00    -0.490 N 
ATOM     21  C   LIG    1       -3.697   6.511  -3.035  0.00  0.00    +0.290 A 
ATOM     22  C   LIG    1       -4.380   7.059  -4.067  0.00  0.00    -0.080 A 
ATOM     23  C   LIG    1       -3.703   7.424  -5.239  0.00  0.00    +0.120 A 
ATOM     24  C   LIG    1       -2.357   7.222  -5.322  0.00  0.00    -0.090 A 
ATOM     25  C   LIG    1       -1.677   6.657  -4.229  0.00  0.00    +0.510 A 
ATOM     26  O   LIG    1       -0.472   6.476  -4.288  0.00  0.00    -0.550 OA
ENDBRANCH  19  20
ENDBRANCH  18  19
ENDBRANCH   3  18
TORSDOF 4
