REMARK  Name = ZINCqH0000008qKR.0
REMARK                            x       y       z     vdW  Elec       q    Type
REMARK                         _______ _______ _______ _____ _____    ______ ____
ROOT
ATOM      1  N   LIG    1       -2.368  -0.251   1.273  0.00  0.00    -0.630 NA
ATOM      2  C   LIG    1       -3.620  -0.713   1.282  0.00  0.00    +0.480 A 
ATOM      3  C   LIG    1       -4.005  -2.064   1.273  0.00  0.00    -0.060 A 
ATOM      4  C   LIG    1       -5.379  -2.115   1.290  0.00  0.00    +0.220 A 
ATOM      5  N   LIG    1       -5.859  -0.828   1.302  0.00  0.00    -0.480 N 
ATOM      6  H   LIG    1       -6.794  -0.569   1.311  0.00  0.00    +0.450 HD
ATOM      7  N   LIG    1       -4.764   0.047   1.297  0.00  0.00    -0.470 N 
ATOM      8  H   LIG    1       -4.806   1.016   1.303  0.00  0.00    +0.460 HD
ENDROOT
BRANCH   4   9
ATOM      9  C   LIG    1       -6.199  -3.343   1.291  0.00  0.00    -0.020 A 
ATOM     10  C   LIG    1       -5.584  -4.596   1.272  0.00  0.00    +0.100 A 
ATOM     11  C   LIG    1       -6.356  -5.741   1.278  0.00  0.00    -0.020 A 
ATOM     12  C   LIG    1       -7.738  -5.647   1.292  0.00  0.00    +0.070 A 
ATOM     13  C   LIG    1       -8.354  -4.407   1.305  0.00  0.00    -0.020 A 
ATOM     14 CL   LIG    1      -10.087  -4.301   1.322  0.00  0.00    -0.040 Cl
ATOM     15 CL   LIG    1       -5.594  -7.300   1.263  0.00  0.00    -0.040 Cl
ATOM     16  C   LIG    1       -7.593  -3.255   1.305  0.00  0.00    +0.050 A 
ENDBRANCH   4   9
BRANCH   1  17
ATOM     17  C   LIG    1       -2.143   1.058   1.278  0.00  0.00    +0.490 C 
ATOM     18  O   LIG    1       -3.078   1.835   1.291  0.00  0.00    -0.600 OA
BRANCH  17  20
ATOM     19  C   LIG    1       -0.013   1.086   0.008  0.00  0.00    +0.050 C 
ATOM     20  C   LIG    1       -0.729   1.579   1.267  0.00  0.00    +0.270 C 
BRANCH  20  21
ATOM     21  N   LIG    1       -0.749   3.044   1.275  0.00  0.00    -0.720 N 
ATOM     22  H   LIG    1       -1.520   3.521   0.930  0.00  0.00    +0.400 HD
ATOM     23  C   LIG    1        0.305   3.730   1.762  0.00  0.00    +0.590 C 
ATOM     24  O   LIG    1        1.271   3.132   2.195  0.00  0.00    -0.530 OA
BRANCH  23  25
ATOM     25  C   LIG    1        0.285   5.203   1.770  0.00  0.00    -0.240 A 
ATOM     26  C   LIG    1       -0.713   6.017   1.319  0.00  0.00    +0.230 A 
ATOM     27  O   LIG    1       -0.340   7.286   1.509  0.00  0.00    -0.170 OA
ATOM     28  C   LIG    1        0.879   7.349   2.065  0.00  0.00    +0.170 A 
ATOM     29  C   LIG    1        1.339   6.104   2.260  0.00  0.00    +0.000 A 
ENDBRANCH  23  25
ENDBRANCH  20  21
ENDBRANCH  17  20
ENDBRANCH   1  17
TORSDOF 5
