REMARK  Name = ZINCbu0000001gTS.0
REMARK                            x       y       z     vdW  Elec       q    Type
REMARK                         _______ _______ _______ _____ _____    ______ ____
ROOT
ATOM      1  C   LIG    1        2.595   0.163   1.228  0.00  0.00    +0.110 C 
ATOM      2  C   LIG    1        2.490   1.047  -0.016  0.00  0.00    +0.110 C 
ATOM      3  C   LIG    1        2.571   0.175  -1.270  0.00  0.00    +0.110 C 
ENDROOT
BRANCH   2   4
ATOM      4  C   LIG    1        1.175   1.783   0.000  0.00  0.00    -0.110 A 
ATOM      5  C   LIG    1       -0.013   1.076   0.008  0.00  0.00    +0.060 A 
ATOM      6  C   LIG    1       -1.219   1.750   0.017  0.00  0.00    +0.070 A 
ATOM      7  C   LIG    1       -1.238   3.133   0.029  0.00  0.00    -0.090 A 
ATOM      8  C   LIG    1       -0.049   3.841   0.021  0.00  0.00    +0.070 A 
ATOM      9  I   LIG    1       -3.066   4.156   0.051  0.00  0.00    -0.010 I 
ATOM     10  C   LIG    1        1.157   3.165   0.007  0.00  0.00    -0.010 A 
ENDBRANCH   2   4
BRANCH   2  11
ATOM     11  N   LIG    1        3.594   2.017  -0.021  0.00  0.00    -0.640 N 
ATOM     12  H   LIG    1        3.525   2.600  -0.841  0.00  0.00    +0.440 HD
ATOM     13  H   LIG    1        4.474   1.524  -0.032  0.00  0.00    +0.440 HD
ATOM     14  H   LIG    1        3.540   2.592   0.806  0.00  0.00    +0.440 HD
ENDBRANCH   2  11
TORSDOF 2
