REMARK  Name = ZINCrD000000Dc6G.0
REMARK                            x       y       z     vdW  Elec       q    Type
REMARK                         _______ _______ _______ _____ _____    ______ ____
ROOT
ATOM      1  S   LIG    1        5.242   4.132  -0.076  0.00  0.00    +2.690 S 
ATOM      2  O   LIG    1        4.744   5.347  -0.620  0.00  0.00    -0.950 OA
ATOM      3  O   LIG    1        6.401   3.476  -0.572  0.00  0.00    -0.950 OA
ENDROOT
BRANCH   1  10
ATOM      4  O   LIG    1       -1.327  -0.240  -0.423  0.00  0.00    -0.530 OA
ATOM      5  C   LIG    1       -0.439   0.591  -0.344  0.00  0.00    +0.540 A 
ATOM      6  C   LIG    1       -0.781   1.948  -0.166  0.00  0.00    -0.050 A 
ATOM      7  C   LIG    1        0.190   2.892  -0.081  0.00  0.00    +0.140 A 
ATOM      8  C   LIG    1        1.588   2.467  -0.172  0.00  0.00    -0.150 A 
ATOM      9  C   LIG    1        2.632   3.394  -0.090  0.00  0.00    +0.200 A 
ATOM     10  C   LIG    1        3.926   2.965  -0.179  0.00  0.00    -0.710 A 
ATOM     11  C   LIG    1        4.214   1.618  -0.349  0.00  0.00    +0.170 A 
ATOM     12  C   LIG    1        3.201   0.687  -0.434  0.00  0.00    -0.030 A 
ATOM     13  C   LIG    1        1.875   1.100  -0.345  0.00  0.00    +0.240 A 
ATOM     14  N   LIG    1        0.842   0.191  -0.425  0.00  0.00    -0.630 N 
ATOM     15  H   LIG    1        1.042  -0.751  -0.544  0.00  0.00    +0.420 HD
ENDBRANCH   1  10
BRANCH   1  16
ATOM     16  N   LIG    1        5.519   4.418   1.532  0.00  0.00    -0.990 NA
ATOM     17  C   LIG    1        4.971   5.615   2.184  0.00  0.00    +0.280 C 
ATOM     18  C   LIG    1        6.106   6.368   2.876  0.00  0.00    +0.020 C 
ATOM     19  C   LIG    1        6.843   5.418   3.822  0.00  0.00    +0.010 C 
ATOM     20  C   LIG    1        7.446   4.263   3.020  0.00  0.00    +0.020 C 
ATOM     21  C   LIG    1        6.322   3.483   2.331  0.00  0.00    +0.240 C 
BRANCH  21  22
ATOM     22  C   LIG    1        6.924   2.414   1.417  0.00  0.00    +0.080 C 
BRANCH  22  23
ATOM     23  C   LIG    1        7.641   1.385   2.253  0.00  0.00    -0.080 A 
ATOM     24  C   LIG    1        9.005   1.488   2.456  0.00  0.00    +0.010 A 
ATOM     25  C   LIG    1        9.662   0.547   3.226  0.00  0.00    +0.000 A 
ATOM     26  C   LIG    1        8.957  -0.502   3.786  0.00  0.00    +0.000 A 
ATOM     27  C   LIG    1        7.595  -0.608   3.579  0.00  0.00    +0.000 A 
ATOM     28  C   LIG    1        6.937   0.336   2.813  0.00  0.00    +0.000 A 
ENDBRANCH  22  23
ENDBRANCH  21  22
ENDBRANCH   1  16
TORSDOF 4
