REMARK  Name = ZINCpk00001AZj0q.0
REMARK                            x       y       z     vdW  Elec       q    Type
REMARK                         _______ _______ _______ _____ _____    ______ ____
ROOT
ATOM      1  N   LIG    1       -2.361   4.028  -1.290  0.00  0.00    -0.520 NA
ATOM      2  C   LIG    1       -3.448   5.018  -1.244  0.00  0.00    +0.240 C 
ATOM      3  C   LIG    1       -2.969   6.235  -0.451  0.00  0.00    +0.090 C 
ATOM      4  C   LIG    1       -1.637   6.699  -0.981  0.00  0.00    +0.050 A 
ATOM      5  N   LIG    1       -1.213   7.914  -0.675  0.00  0.00    -0.220 NA
ATOM      6  N   LIG    1       -0.090   8.375  -1.087  0.00  0.00    -0.280 NA
ATOM      7  C   LIG    1        0.726   7.664  -1.851  0.00  0.00    +0.250 A 
ATOM      8  C   LIG    1        0.362   6.371  -2.226  0.00  0.00    +0.030 A 
ATOM      9  C   LIG    1       -0.855   5.882  -1.776  0.00  0.00    -0.090 A 
ATOM     10  C   LIG    1       -1.282   4.496  -2.168  0.00  0.00    +0.300 C 
ENDROOT
BRANCH   7  11
ATOM     11  N   LIG    1        1.935   8.203  -2.275  0.00  0.00    -0.450 N 
ATOM     12  C   LIG    1        1.978   8.316  -3.755  0.00  0.00    +0.190 C 
ATOM     13  C   LIG    1        3.088   9.369  -3.999  0.00  0.00    +0.040 C 
ATOM     14  C   LIG    1        2.875  10.370  -2.840  0.00  0.00    +0.020 C 
ATOM     15  C   LIG    1        2.112   9.579  -1.761  0.00  0.00    +0.200 C 
ENDBRANCH   7  11
BRANCH   1  16
ATOM     16  C   LIG    1       -1.855   3.739   0.059  0.00  0.00    +0.310 C 
BRANCH  16  21
ATOM     17  N   LIG    1       -1.531   1.219   0.123  0.00  0.00    -0.370 N 
ATOM     18  N   LIG    1       -0.425   0.357   0.051  0.00  0.00    -0.320 NA
ATOM     19  C   LIG    1        0.634   1.112  -0.078  0.00  0.00    +0.430 A 
ATOM     20  N   LIG    1        0.257   2.390  -0.086  0.00  0.00    -0.530 NA
ATOM     21  C   LIG    1       -1.044   2.469   0.029  0.00  0.00    +0.300 A 
BRANCH  17  22
ATOM     22  C   LIG    1       -2.937   0.833   0.270  0.00  0.00    +0.340 C 
BRANCH  22  24
ATOM     23  F   LIG    1       -3.125   1.827   2.438  0.00  0.00    -0.200 F 
ATOM     24  C   LIG    1       -3.254   0.616   1.751  0.00  0.00    +0.370 C 
ATOM     25  F   LIG    1       -4.563   0.142   1.883  0.00  0.00    -0.190 F 
ENDBRANCH  22  24
ENDBRANCH  17  22
ENDBRANCH  16  21
ENDBRANCH   1  16
TORSDOF 5
