REMARK  Name = ZINCrg000000tizc.0
REMARK                            x       y       z     vdW  Elec       q    Type
REMARK                         _______ _______ _______ _____ _____    ______ ____
ROOT
ATOM      1  N   LIG    1       -0.881   5.257   2.488  0.00  0.00    -0.660 NA
ATOM      2  C   LIG    1       -0.812   5.933   3.633  0.00  0.00    +0.480 A 
ATOM      3  C   LIG    1       -0.936   7.329   3.789  0.00  0.00    -0.110 A 
ATOM      4  C   LIG    1       -0.808   7.620   5.103  0.00  0.00    +0.350 A 
ATOM      5  N   LIG    1       -0.607   6.463   5.795  0.00  0.00    -0.380 N 
ATOM      6  N   LIG    1       -0.614   5.399   4.883  0.00  0.00    -0.470 N 
ATOM      7  H   LIG    1       -0.498   4.459   5.095  0.00  0.00    +0.450 HD
ENDROOT
BRANCH   1   8
ATOM      8  C   LIG    1       -1.084   5.908   1.340  0.00  0.00    +0.540 C 
ATOM      9  O   LIG    1       -1.207   7.120   1.341  0.00  0.00    -0.550 OA
BRANCH   8  13
ATOM     10  O   LIG    1       -1.382   5.655  -3.407  0.00  0.00    -0.550 OA
ATOM     11  C   LIG    1       -1.314   5.084  -2.330  0.00  0.00    +0.520 A 
ATOM     12  C   LIG    1       -1.242   5.830  -1.138  0.00  0.00    -0.030 A 
ATOM     13  C   LIG    1       -1.160   5.154   0.062  0.00  0.00    -0.000 A 
ATOM     14  C   LIG    1       -1.151   3.736   0.069  0.00  0.00    -0.140 A 
ATOM     15  C   LIG    1       -1.231   3.064  -1.096  0.00  0.00    +0.140 A 
ATOM     16  C   LIG    1       -1.242   1.558  -1.168  0.00  0.00    +0.080 C 
ATOM     17  C   LIG    1       -0.712   0.951   0.129  0.00  0.00    +0.020 C 
ATOM     18  C   LIG    1       -1.466   1.589   1.302  0.00  0.00    +0.000 C 
ATOM     19  C   LIG    1       -1.039   3.051   1.405  0.00  0.00    +0.140 C 
ATOM     20  N   LIG    1       -1.307   3.743  -2.280  0.00  0.00    -0.610 N 
ATOM     21  H   LIG    1       -1.358   3.240  -3.108  0.00  0.00    +0.410 HD
ENDBRANCH   8  13
ENDBRANCH   1   8
BRANCH   5  22
ATOM     22  C   LIG    1       -0.422   6.351   7.244  0.00  0.00    +0.350 C 
BRANCH  22  23
ATOM     23  C   LIG    1        1.051   6.582   7.589  0.00  0.00    +0.170 C 
BRANCH  23  24
ATOM     24  N   LIG    1        1.237   6.469   9.042  0.00  0.00    -0.530 NA
ATOM     25  C   LIG    1        0.544   7.557   9.747  0.00  0.00    +0.150 C 
ATOM     26  C   LIG    1        0.714   7.368  11.257  0.00  0.00    +0.220 C 
ATOM     27  O   LIG    1        2.108   7.319  11.573  0.00  0.00    -0.380 OA
ATOM     28  C   LIG    1        2.813   6.270  10.903  0.00  0.00    +0.220 C 
ATOM     29  C   LIG    1        2.665   6.448   9.390  0.00  0.00    +0.160 C 
ENDBRANCH  23  24
ENDBRANCH  22  23
ENDBRANCH   5  22
TORSDOF 5
