REMARK  Name = ZINCtV000002PJ0V.0
REMARK                            x       y       z     vdW  Elec       q    Type
REMARK                         _______ _______ _______ _____ _____    ______ ____
ROOT
ATOM      1  O   LIG    1       -4.364   2.092  -0.928  0.00  0.00    -0.500 OA
ATOM      2  C   LIG    1       -4.006   2.972  -1.689  0.00  0.00    +0.550 A 
ATOM      3  C   LIG    1       -4.534   3.055  -3.058  0.00  0.00    -0.200 A 
ATOM      4  C   LIG    1       -5.461   2.136  -3.546  0.00  0.00    +0.100 A 
ATOM      5  C   LIG    1       -5.924   2.259  -4.837  0.00  0.00    +0.000 A 
ATOM      6  C   LIG    1       -5.475   3.288  -5.655  0.00  0.00    +0.070 A 
ATOM      7  C   LIG    1       -4.560   4.206  -5.194  0.00  0.00    +0.030 A 
ATOM      8  C   LIG    1       -4.074   4.104  -3.888  0.00  0.00    +0.170 A 
ATOM      9  N   LIG    1       -3.173   4.987  -3.396  0.00  0.00    -0.530 NA
ATOM     10  C   LIG    1       -2.722   4.894  -2.170  0.00  0.00    +0.370 A 
ATOM     11  N   LIG    1       -3.109   3.909  -1.306  0.00  0.00    -0.530 N 
ENDROOT
BRANCH  10  12
ATOM     12  S   LIG    1       -1.556   6.091  -1.611  0.00  0.00    +0.020 S 
BRANCH  12  13
ATOM     13  C   LIG    1       -1.413   7.110  -3.100  0.00  0.00    +0.170 C 
BRANCH  13  14
ATOM     14  C   LIG    1       -0.438   8.231  -2.850  0.00  0.00    -0.120 A 
ATOM     15  C   LIG    1       -0.888   9.442  -2.352  0.00  0.00    +0.130 A 
ATOM     16  C   LIG    1        0.009  10.470  -2.117  0.00  0.00    +0.000 A 
ATOM     17  C   LIG    1        1.352  10.291  -2.390  0.00  0.00    +0.080 A 
ATOM     18  C   LIG    1        1.801   9.084  -2.893  0.00  0.00    +0.030 A 
ATOM     19  F   LIG    1       -2.202   9.619  -2.091  0.00  0.00    -0.120 F 
ATOM     20  C   LIG    1        0.906   8.054  -3.123  0.00  0.00    +0.010 A 
ATOM     21 CL   LIG    1        1.471   6.538  -3.753  0.00  0.00    -0.040 Cl
ENDBRANCH  13  14
ENDBRANCH  12  13
ENDBRANCH  10  12
BRANCH  11  22
ATOM     22  C   LIG    1       -2.552   3.871   0.049  0.00  0.00    +0.370 C 
BRANCH  22  23
ATOM     23  C   LIG    1       -1.243   3.125   0.033  0.00  0.00    -0.090 A 
ATOM     24  C   LIG    1       -0.815   2.504  -1.125  0.00  0.00    +0.030 A 
ATOM     25  C   LIG    1        0.386   1.820  -1.139  0.00  0.00    +0.020 A 
ATOM     26  C   LIG    1        1.159   1.756   0.004  0.00  0.00    +0.040 A 
ATOM     27  C   LIG    1        0.733   2.377   1.163  0.00  0.00    +0.040 A 
ATOM     28  C   LIG    1       -0.472   3.056   1.180  0.00  0.00    -0.020 A 
ATOM     29 CL   LIG    1       -1.012   3.830   2.638  0.00  0.00    -0.060 Cl
ENDBRANCH  22  23
ENDBRANCH  11  22
TORSDOF 5
