REMARK  Name = ZINCqH0000001EVe.0
REMARK                            x       y       z     vdW  Elec       q    Type
REMARK                         _______ _______ _______ _____ _____    ______ ____
ROOT
ATOM      1  N   LIG    1        0.404  -3.001  -0.731  0.00  0.00    -0.720 N 
ATOM      2  H   LIG    1       -0.494  -2.634  -0.714  0.00  0.00    +0.400 HD
ATOM      3  C   LIG    1        1.470  -2.177  -0.681  0.00  0.00    +0.560 C 
ATOM      4  O   LIG    1        2.595  -2.637  -0.703  0.00  0.00    -0.520 OA
ENDROOT
BRANCH   3   5
ATOM      5  C   LIG    1        1.271  -0.717  -0.599  0.00  0.00    -0.120 A 
ATOM      6  C   LIG    1        0.156  -0.126  -1.192  0.00  0.00    +0.040 A 
ATOM      7  C   LIG    1       -0.025   1.240  -1.113  0.00  0.00    +0.010 A 
ATOM      8  C   LIG    1        0.895   2.031  -0.446  0.00  0.00    +0.040 A 
ATOM      9  C   LIG    1        2.005   1.463   0.147  0.00  0.00    +0.020 A 
ATOM     10  C   LIG    1        2.205   0.088   0.078  0.00  0.00    +0.010 A 
BRANCH  10  11
ATOM     11  C   LIG    1        3.395  -0.525   0.714  0.00  0.00    -0.140 A 
ATOM     12  C   LIG    1        3.259  -1.534   1.672  0.00  0.00    +0.340 A 
ATOM     13  N   LIG    1        4.347  -2.058   2.209  0.00  0.00    -0.510 NA
ATOM     14  C   LIG    1        5.546  -1.633   1.862  0.00  0.00    +0.490 A 
ATOM     15  N   LIG    1        5.719  -0.681   0.967  0.00  0.00    -0.520 NA
ATOM     16  C   LIG    1        4.686  -0.107   0.376  0.00  0.00    +0.340 A 
ENDBRANCH  10  11
ENDBRANCH   3   5
BRANCH   1  17
ATOM     17  C   LIG    1        0.602  -4.450  -0.813  0.00  0.00    +0.270 C 
BRANCH  17  18
ATOM     18  C   LIG    1       -0.754  -5.141  -0.975  0.00  0.00    +0.040 C 
BRANCH  18  19
ATOM     19  C   LIG    1       -1.578  -4.928   0.269  0.00  0.00    -0.130 A 
ATOM     20  C   LIG    1       -2.798  -4.274   0.199  0.00  0.00    +0.050 A 
ATOM     21  C   LIG    1       -3.525  -4.106   1.367  0.00  0.00    -0.030 A 
ATOM     22  C   LIG    1       -3.007  -4.581   2.557  0.00  0.00    +0.250 A 
ATOM     23  N   LIG    1       -1.840  -5.195   2.587  0.00  0.00    -0.480 NA
ATOM     24  C   LIG    1       -1.125  -5.378   1.495  0.00  0.00    +0.260 A 
ENDBRANCH  18  19
BRANCH  18  26
ATOM     25  C   LIG    1       -1.895  -7.346  -1.258  0.00  0.00    +0.020 C 
ATOM     26  C   LIG    1       -0.539  -6.640  -1.194  0.00  0.00    +0.000 C 
ATOM     27  C   LIG    1        0.213  -6.861  -2.507  0.00  0.00    +0.030 C 
ENDBRANCH  18  26
ENDBRANCH  17  18
ENDBRANCH   1  17
TORSDOF 6
