REMARK  Name = ZINCnE00000hdcdh.1
REMARK                            x       y       z     vdW  Elec       q    Type
REMARK                         _______ _______ _______ _____ _____    ______ ____
ROOT
ATOM      1  C   LIG    1        1.754   2.048   4.138  0.00  0.00    -0.420 C 
ATOM      2  C   LIG    1        3.078   1.929   4.443  0.00  0.00    +0.350 C 
ATOM      3  O   LIG    1        3.948   1.510   3.509  0.00  0.00    -0.610 OA
ENDROOT
BRANCH   1   4
ATOM      4  C   LIG    1        1.279   1.717   2.786  0.00  0.00    +0.480 C 
ATOM      5  O   LIG    1        2.067   1.337   1.939  0.00  0.00    -0.460 OA
BRANCH   4   8
ATOM      6  C   LIG    1       -0.013   1.086   0.008  0.00  0.00    +0.130 C 
ATOM      7  C   LIG    1       -0.718   1.572   1.248  0.00  0.00    -0.140 A 
ATOM      8  C   LIG    1       -0.145   1.845   2.458  0.00  0.00    -0.060 A 
ATOM      9  O   LIG    1       -1.119   2.253   3.298  0.00  0.00    -0.150 OA
ATOM     10  C   LIG    1       -2.293   2.247   2.654  0.00  0.00    +0.160 A 
ATOM     11  C   LIG    1       -2.090   1.837   1.382  0.00  0.00    -0.080 A 
ENDBRANCH   4   8
ENDBRANCH   1   4
BRANCH   2  12
ATOM     12  C   LIG    1        3.566   2.269   5.828  0.00  0.00    -0.020 C 
ATOM     13  C   LIG    1        4.593   3.400   5.745  0.00  0.00    +0.030 C 
BRANCH  12  14
ATOM     14  C   LIG    1        4.216   1.035   6.457  0.00  0.00    +0.090 C 
BRANCH  14  15
ATOM     15  C   LIG    1        4.593   1.337   7.884  0.00  0.00    -0.100 A 
ATOM     16  C   LIG    1        5.876   1.753   8.187  0.00  0.00    +0.040 A 
ATOM     17  C   LIG    1        6.220   2.037   9.496  0.00  0.00    +0.000 A 
ATOM     18  C   LIG    1        5.286   1.893  10.504  0.00  0.00    +0.030 A 
ATOM     19  C   LIG    1        4.004   1.471  10.204  0.00  0.00    -0.030 A 
ATOM     20  C   LIG    1        3.656   1.193   8.893  0.00  0.00    +0.100 A 
ATOM     21  F   LIG    1        2.404   0.781   8.599  0.00  0.00    -0.130 F 
ENDBRANCH  14  15
ENDBRANCH  12  14
ENDBRANCH   2  12
BRANCH   1  22
ATOM     22  C   LIG    1        0.828   2.495   5.134  0.00  0.00    +0.310 C 
ATOM     23  N   LIG    1        0.092   2.850   5.924  0.00  0.00    -0.530 NA
ENDBRANCH   1  22
TORSDOF 6
