REMARK  Name = ZINCAx0000000f7H.0
REMARK                            x       y       z     vdW  Elec       q    Type
REMARK                         _______ _______ _______ _____ _____    ______ ____
ROOT
ATOM      1  O   LIG    1        0.077  -2.247   3.515  0.00  0.00    -0.510 OA
ATOM      2  C   LIG    1        0.066  -2.845   2.457  0.00  0.00    +0.560 C 
ATOM      3  N   LIG    1        0.082  -4.193   2.445  0.00  0.00    -0.670 N 
ATOM      4  H   LIG    1        0.005  -4.671   1.604  0.00  0.00    +0.410 HD
ENDROOT
BRANCH   2   5
ATOM      5  C   LIG    1        0.035  -2.095   1.184  0.00  0.00    -0.160 A 
ATOM      6  C   LIG    1        0.023  -2.779  -0.033  0.00  0.00    +0.110 A 
ATOM      7  C   LIG    1       -0.006  -2.072  -1.218  0.00  0.00    +0.010 A 
ATOM      8  C   LIG    1       -0.027  -0.689  -1.201  0.00  0.00    +0.160 A 
ATOM      9  C   LIG    1       -0.010  -0.004   0.002  0.00  0.00    -0.690 A 
ATOM     10  C   LIG    1        0.019  -0.699   1.193  0.00  0.00    +0.210 A 
BRANCH   9  11
ATOM     11  S   LIG    1       -0.031   1.757   0.011  0.00  0.00    +2.700 S 
ATOM     12  O   LIG    1       -0.559   2.145   1.272  0.00  0.00    -0.930 OA
ATOM     13  O   LIG    1       -0.601   2.158  -1.227  0.00  0.00    -0.940 OA
BRANCH  11  14
ATOM     14  N   LIG    1        1.544   2.267  -0.013  0.00  0.00    -0.940 N 
ATOM     15  C   LIG    1        2.323   2.531  -1.226  0.00  0.00    +0.280 C 
ATOM     16  C   LIG    1        3.708   2.974  -0.727  0.00  0.00    +0.100 C 
ATOM     17  C   LIG    1        3.602   2.924   0.781  0.00  0.00    -0.130 A 
ATOM     18  C   LIG    1        4.528   3.213   1.764  0.00  0.00    +0.050 A 
ATOM     19  C   LIG    1        4.187   3.088   3.099  0.00  0.00    -0.010 A 
ATOM     20  C   LIG    1        2.915   2.673   3.447  0.00  0.00    +0.050 A 
ATOM     21  C   LIG    1        1.987   2.383   2.469  0.00  0.00    -0.010 A 
ATOM     22  C   LIG    1        2.322   2.513   1.120  0.00  0.00    +0.150 A 
ENDBRANCH  11  14
ENDBRANCH   9  11
ENDBRANCH   2   5
BRANCH   3  23
ATOM     23  C   LIG    1        0.209  -4.902   3.643  0.00  0.00    +0.130 A 
ATOM     24  C   LIG    1       -0.377  -4.416   4.805  0.00  0.00    +0.090 A 
ATOM     25  C   LIG    1       -0.250  -5.119   5.987  0.00  0.00    +0.020 A 
ATOM     26  C   LIG    1        0.459  -6.305   6.015  0.00  0.00    +0.110 A 
ATOM     27  C   LIG    1        1.044  -6.792   4.860  0.00  0.00    -0.660 A 
ATOM     28  C   LIG    1        0.917  -6.096   3.674  0.00  0.00    +0.090 A 
BRANCH  27  29
ATOM     29  S   LIG    1        1.948  -8.304   4.901  0.00  0.00    +2.690 S 
ATOM     30  O   LIG    1        2.368  -8.484   6.247  0.00  0.00    -0.950 OA
ATOM     31  O   LIG    1        2.850  -8.262   3.804  0.00  0.00    -0.950 OA
BRANCH  29  32
ATOM     32  N   LIG    1        0.876  -9.524   4.579  0.00  0.00    -1.000 NA
ATOM     33  C   LIG    1        0.146 -10.198   5.665  0.00  0.00    +0.280 C 
ATOM     34  C   LIG    1       -1.348 -10.205   5.306  0.00  0.00    +0.220 C 
ATOM     35  O   LIG    1       -1.514 -10.751   3.996  0.00  0.00    -0.370 OA
ATOM     36  C   LIG    1       -0.885  -9.991   2.961  0.00  0.00    +0.220 C 
ATOM     37  C   LIG    1        0.629  -9.970   3.199  0.00  0.00    +0.280 C 
ENDBRANCH  29  32
ENDBRANCH  27  29
ENDBRANCH   3  23
TORSDOF 6
