REMARK  Name = ZINCrH000004t6MO.0
REMARK                            x       y       z     vdW  Elec       q    Type
REMARK                         _______ _______ _______ _____ _____    ______ ____
ROOT
ATOM      1  C   LIG    1        3.524  -1.006   0.315  0.00  0.00    +0.560 C 
ATOM      2  N   LIG    1        4.678  -0.595   0.878  0.00  0.00    -0.720 N 
ATOM      3  H   LIG    1        5.349  -1.245   1.137  0.00  0.00    +0.400 HD
ATOM      4  O   LIG    1        2.682  -0.192  -0.011  0.00  0.00    -0.530 OA
ENDROOT
BRANCH   1  13
ATOM      5  C   LIG    1        0.506  -1.046   0.938  0.00  0.00    +0.340 C 
ATOM      6  N   LIG    1        0.780  -2.448   0.616  0.00  0.00    -0.480 N 
ATOM      7  C   LIG    1       -0.122  -3.467   0.618  0.00  0.00    +0.480 A 
ATOM      8  N   LIG    1        0.460  -4.580   0.281  0.00  0.00    -0.490 NA
ATOM      9  C   LIG    1        1.779  -4.350   0.048  0.00  0.00    +0.040 A 
ATOM     10  C   LIG    1        2.846  -5.168  -0.328  0.00  0.00    +0.110 A 
ATOM     11  C   LIG    1        4.106  -4.632  -0.490  0.00  0.00    +0.000 A 
ATOM     12  C   LIG    1        4.331  -3.283  -0.283  0.00  0.00    +0.070 A 
ATOM     13  C   LIG    1        3.283  -2.445   0.094  0.00  0.00    -0.130 A 
ATOM     14  C   LIG    1        1.998  -2.979   0.261  0.00  0.00    +0.090 A 
ENDBRANCH   1  13
BRANCH   2  15
ATOM     15  C   LIG    1        4.917   0.833   1.097  0.00  0.00    +0.280 C 
BRANCH  15  16
ATOM     16  C   LIG    1        6.346   1.039   1.606  0.00  0.00    -0.030 C 
ATOM     17  C   LIG    1        6.554   2.513   1.967  0.00  0.00    +0.020 C 
ATOM     18  C   LIG    1        6.397   3.364   0.702  0.00  0.00    +0.210 C 
ATOM     19  O   LIG    1        7.332   2.925  -0.286  0.00  0.00    -0.380 OA
ATOM     20  C   LIG    1        7.154   1.568  -0.695  0.00  0.00    +0.210 C 
ATOM     21  C   LIG    1        7.342   0.644   0.511  0.00  0.00    +0.010 C 
BRANCH  16  22
ATOM     22  C   LIG    1        6.573   0.184   2.827  0.00  0.00    -0.070 A 
ATOM     23  C   LIG    1        7.559  -0.785   2.817  0.00  0.00    +0.030 A 
ATOM     24  C   LIG    1        7.772  -1.566   3.938  0.00  0.00    +0.040 A 
ATOM     25  C   LIG    1        6.991  -1.383   5.066  0.00  0.00    -0.030 A 
ATOM     26  C   LIG    1        6.002  -0.416   5.073  0.00  0.00    +0.020 A 
ATOM     27 CL   LIG    1        7.254  -2.367   6.472  0.00  0.00    -0.070 Cl
ATOM     28  C   LIG    1        5.793   0.367   3.953  0.00  0.00    +0.030 A 
ENDBRANCH  16  22
ENDBRANCH  15  16
ENDBRANCH   2  15
TORSDOF 4
