REMARK  Name = ZINCpe00000VVH2x.1
REMARK                            x       y       z     vdW  Elec       q    Type
REMARK                         _______ _______ _______ _____ _____    ______ ____
ROOT
ATOM      1  N   LIG    1       -3.023   5.058   3.544  0.00  0.00    -0.680 N 
ATOM      2  H   LIG    1       -3.440   4.273   3.155  0.00  0.00    +0.420 HD
ATOM      3  C   LIG    1       -3.192   6.265   2.968  0.00  0.00    +0.510 C 
ATOM      4  O   LIG    1       -2.671   7.247   3.454  0.00  0.00    -0.520 OA
ENDROOT
BRANCH   3   5
ATOM      5  C   LIG    1       -4.021   6.393   1.732  0.00  0.00    +0.510 C 
ATOM      6  N   LIG    1       -4.189   7.600   1.157  0.00  0.00    -0.640 N 
ATOM      7  H   LIG    1       -3.835   8.395   1.585  0.00  0.00    +0.420 HD
ATOM      8  O   LIG    1       -4.542   5.411   1.246  0.00  0.00    -0.500 OA
BRANCH   6   9
ATOM      9  C   LIG    1       -4.874   7.706  -0.057  0.00  0.00    +0.140 A 
ATOM     10  C   LIG    1       -5.641   8.831  -0.328  0.00  0.00    -0.010 A 
ATOM     11  C   LIG    1       -6.315   8.931  -1.528  0.00  0.00    +0.040 A 
ATOM     12  C   LIG    1       -6.230   7.912  -2.464  0.00  0.00    -0.110 A 
ATOM     13  C   LIG    1       -6.864   7.785  -3.833  0.00  0.00    +0.080 C 
ATOM     14  C   LIG    1       -6.764   6.286  -4.187  0.00  0.00    +0.030 C 
ATOM     15  C   LIG    1       -5.537   5.834  -3.368  0.00  0.00    +0.080 C 
ATOM     16  C   LIG    1       -5.467   6.790  -2.197  0.00  0.00    -0.080 A 
ATOM     17  C   LIG    1       -4.785   6.689  -0.998  0.00  0.00    +0.020 A 
ENDBRANCH   6   9
ENDBRANCH   3   5
BRANCH   1  18
ATOM     18  C   LIG    1       -2.211   4.931   4.756  0.00  0.00    +0.270 C 
BRANCH  18  20
ATOM     19  C   LIG    1       -1.277   2.724   4.051  0.00  0.00    +0.050 C 
ATOM     20  C   LIG    1       -2.079   3.454   5.130  0.00  0.00    +0.130 C 
BRANCH  20  21
ATOM     21  N   LIG    1       -3.415   2.854   5.237  0.00  0.00    -0.540 NA
ATOM     22  C   LIG    1       -3.330   1.448   5.656  0.00  0.00    +0.200 C 
ATOM     23  C   LIG    1       -4.734   0.840   5.678  0.00  0.00    +0.180 C 
ATOM     24  N   LIG    1       -5.585   1.610   6.596  0.00  0.00    -0.550 NA
ATOM     25  C   LIG    1       -5.670   3.015   6.176  0.00  0.00    +0.180 C 
ATOM     26  C   LIG    1       -6.922   1.010   6.702  0.00  0.00    +0.190 C 
ATOM     27  C   LIG    1       -4.266   3.624   6.154  0.00  0.00    +0.180 C 
ENDBRANCH  20  21
ENDBRANCH  18  20
ENDBRANCH   1  18
TORSDOF 5
