REMARK  Name = ZINCkj0000166b5o.0
REMARK                            x       y       z     vdW  Elec       q    Type
REMARK                         _______ _______ _______ _____ _____    ______ ____
ROOT
ATOM      1  O   LIG    1        4.713   1.588   0.066  0.00  0.00    -0.500 OA
ATOM      2  C   LIG    1        3.652   2.175  -0.023  0.00  0.00    +0.610 C 
ATOM      3  N   LIG    1        3.632   3.519  -0.118  0.00  0.00    -0.640 N 
ATOM      4  C   LIG    1        2.595   4.563  -0.145  0.00  0.00    +0.320 C 
ATOM      5  C   LIG    1        3.638   5.530   0.427  0.00  0.00    +0.010 C 
ATOM      6  C   LIG    1        3.719   5.532   1.951  0.00  0.00    +0.100 C 
ATOM      7  C   LIG    1        4.937   6.356   2.385  0.00  0.00    +0.040 C 
ATOM      8  C   LIG    1        4.845   7.750   1.758  0.00  0.00    +0.050 C 
ATOM      9  C   LIG    1        4.793   7.622   0.234  0.00  0.00    +0.260 C 
ATOM     10  N   LIG    1        3.593   6.870  -0.158  0.00  0.00    -0.490 N 
ATOM     11  H   LIG    1        2.771   7.353   0.173  0.00  0.00    +0.430 HD
ATOM     12  H   LIG    1        3.556   6.797  -1.163  0.00  0.00    +0.430 HD
ATOM     13  C   LIG    1        4.636   4.587  -0.247  0.00  0.00    +0.330 C 
ENDROOT
BRANCH   2  14
ATOM     14  C   LIG    1        2.386   1.416  -0.027  0.00  0.00    -0.140 A 
ATOM     15  C   LIG    1        2.395   0.040   0.210  0.00  0.00    +0.130 A 
ATOM     16  C   LIG    1        1.212  -0.668   0.207  0.00  0.00    +0.040 A 
ATOM     17  C   LIG    1        0.010  -0.017  -0.033  0.00  0.00    +0.080 A 
ATOM     18  O   LIG    1       -1.271  -0.482  -0.089  0.00  0.00    -0.300 OA
ATOM     19  C   LIG    1       -2.023   0.541  -0.768  0.00  0.00    +0.440 C 
ATOM     20  O   LIG    1       -1.297   1.750  -0.478  0.00  0.00    -0.310 OA
ATOM     21  C   LIG    1       -0.005   1.358  -0.273  0.00  0.00    +0.020 A 
ATOM     22  C   LIG    1        1.177   2.072  -0.270  0.00  0.00    +0.060 A 
ENDBRANCH   2  14
TORSDOF 1
