REMARK  Name = ZINCrH000004v5nM.0
REMARK                            x       y       z     vdW  Elec       q    Type
REMARK                         _______ _______ _______ _____ _____    ______ ____
ROOT
ATOM      1  C   LIG    1        3.604   5.983  -0.213  0.00  0.00    -0.150 A 
ATOM      2  C   LIG    1        4.823   5.303  -0.222  0.00  0.00    +0.130 A 
ATOM      3  C   LIG    1        6.002   6.008  -0.339  0.00  0.00    +0.030 A 
ATOM      4  C   LIG    1        5.979   7.389  -0.436  0.00  0.00    +0.070 A 
ATOM      5  C   LIG    1        4.773   8.070  -0.422  0.00  0.00    -0.680 A 
ATOM      6 CL   LIG    1        7.468   8.271  -0.576  0.00  0.00    -0.030 Cl
ATOM      7  C   LIG    1        3.587   7.376  -0.312  0.00  0.00    +0.220 A 
ENDROOT
BRANCH   1   9
ATOM      8  O   LIG    1        1.277   5.828  -0.082  0.00  0.00    -0.500 OA
ATOM      9  C   LIG    1        2.337   5.233  -0.094  0.00  0.00    +0.560 C 
ATOM     10  N   LIG    1        2.356   3.888   0.001  0.00  0.00    -0.670 N 
ATOM     11  H   LIG    1        3.202   3.419   0.068  0.00  0.00    +0.410 HD
BRANCH  10  12
ATOM     12  C   LIG    1        1.155   3.170   0.002  0.00  0.00    +0.150 A 
ATOM     13  C   LIG    1        0.071   3.626  -0.737  0.00  0.00    +0.030 A 
ATOM     14  C   LIG    1       -1.113   2.915  -0.735  0.00  0.00    +0.050 A 
ATOM     15  C   LIG    1       -1.221   1.752   0.007  0.00  0.00    -0.050 A 
ATOM     16  C   LIG    1       -0.141   1.292   0.740  0.00  0.00    +0.050 A 
ATOM     17 CL   LIG    1       -2.713   0.864   0.013  0.00  0.00    -0.070 Cl
ATOM     18  C   LIG    1        1.045   2.000   0.741  0.00  0.00    +0.010 A 
ENDBRANCH  10  12
ENDBRANCH   1   9
BRANCH   5  19
ATOM     19  S   LIG    1        4.755   9.828  -0.546  0.00  0.00    +2.690 S 
ATOM     20  O   LIG    1        3.391  10.221  -0.468  0.00  0.00    -0.940 OA
ATOM     21  O   LIG    1        5.599  10.162  -1.639  0.00  0.00    -0.930 OA
BRANCH  19  22
ATOM     22  N   LIG    1        5.491  10.423   0.813  0.00  0.00    -1.100 NA
ATOM     23  H   LIG    1        4.981  10.946   1.451  0.00  0.00    +0.430 HD
BRANCH  22  24
ATOM     24  C   LIG    1        6.912  10.159   1.051  0.00  0.00    +0.270 C 
BRANCH  24  25
ATOM     25  C   LIG    1        7.431  11.101   2.138  0.00  0.00    +0.160 C 
ATOM     26  C   LIG    1        8.954  10.914   2.311  0.00  0.00    +0.020 C 
ATOM     27  C   LIG    1        9.124  11.021   3.853  0.00  0.00    +0.010 C 
ATOM     28  C   LIG    1        7.803  10.375   4.342  0.00  0.00    +0.200 C 
ATOM     29  O   LIG    1        6.809  10.788   3.390  0.00  0.00    -0.370 OA
ENDBRANCH  24  25
ENDBRANCH  22  24
ENDBRANCH  19  22
ENDBRANCH   5  19
TORSDOF 6
