REMARK  Name = ZINCAx0000000bwV.2
REMARK                            x       y       z     vdW  Elec       q    Type
REMARK                         _______ _______ _______ _____ _____    ______ ____
ROOT
ATOM      1  N   LIG    1        1.859  -5.851   3.691  0.00  0.00    -0.520 NA
ATOM      2  C   LIG    1        2.224  -4.939   4.784  0.00  0.00    +0.190 C 
ENDROOT
BRANCH   1   3
ATOM      3  C   LIG    1        0.716  -5.330   2.929  0.00  0.00    +0.210 C 
BRANCH   3   5
ATOM      4  C   LIG    1        2.197  -4.364   1.164  0.00  0.00    +0.050 C 
ATOM      5  C   LIG    1        1.127  -4.043   2.209  0.00  0.00    -0.010 C 
BRANCH   5   6
ATOM      6  C   LIG    1       -0.076  -3.443   1.529  0.00  0.00    +0.530 C 
ATOM      7  N   LIG    1        0.048  -2.298   0.828  0.00  0.00    -0.610 N 
ATOM      8  C   LIG    1       -1.108  -1.686   0.153  0.00  0.00    +0.300 C 
ATOM      9  C   LIG    1       -1.374  -0.329   0.804  0.00  0.00    +0.110 C 
ATOM     10  C   LIG    1       -0.098   0.454   0.944  0.00  0.00    +0.240 A 
ATOM     11  N   LIG    1       -0.181   1.770   1.109  0.00  0.00    -0.570 NA
ATOM     12  C   LIG    1        0.906   2.508   1.262  0.00  0.00    +0.570 A 
ATOM     13  N   LIG    1        2.116   1.969   1.257  0.00  0.00    -0.570 NA
ATOM     14  C   LIG    1        2.270   0.667   1.091  0.00  0.00    +0.380 A 
ATOM     15  C   LIG    1        1.148  -0.135   0.922  0.00  0.00    -0.270 A 
ATOM     16  C   LIG    1        1.341  -1.613   0.710  0.00  0.00    +0.360 C 
ATOM     17  O   LIG    1       -1.155  -3.989   1.611  0.00  0.00    -0.540 OA
BRANCH  12  18
ATOM     18  N   LIG    1        0.776   3.876   1.431  0.00  0.00    -0.820 N 
ATOM     19  H   LIG    1        1.566   4.428   1.544  0.00  0.00    +0.420 HD
ATOM     20  H   LIG    1       -0.104   4.282   1.437  0.00  0.00    +0.420 HD
ENDBRANCH  12  18
ENDBRANCH   5   6
ENDBRANCH   3   5
ENDBRANCH   1   3
BRANCH   1  21
ATOM     21  C   LIG    1        1.581  -7.200   4.201  0.00  0.00    +0.220 C 
BRANCH  21  22
ATOM     22  C   LIG    1        2.847  -7.797   4.759  0.00  0.00    +0.510 C 
ATOM     23  N   LIG    1        2.831  -9.038   5.286  0.00  0.00    -0.670 N 
ATOM     24  H   LIG    1        1.992  -9.516   5.375  0.00  0.00    +0.410 HD
ATOM     25  O   LIG    1        3.880  -7.162   4.734  0.00  0.00    -0.500 OA
BRANCH  23  26
ATOM     26  C   LIG    1        4.027  -9.636   5.703  0.00  0.00    +0.110 A 
ATOM     27  C   LIG    1        5.210  -9.373   5.025  0.00  0.00    +0.060 A 
ATOM     28  C   LIG    1        6.389  -9.958   5.441  0.00  0.00    -0.060 A 
ATOM     29  C   LIG    1        6.391 -10.819   6.529  0.00  0.00    +0.120 A 
ATOM     30  C   LIG    1        5.208 -11.088   7.203  0.00  0.00    +0.000 A 
ATOM     31  C   LIG    1        4.029 -10.498   6.792  0.00  0.00    +0.030 A 
BRANCH  29  32
ATOM     32  O   LIG    1        7.551 -11.401   6.934  0.00  0.00    -0.310 OA
BRANCH  32  33
ATOM     33  C   LIG    1        8.731 -11.079   6.193  0.00  0.00    +0.240 C 
BRANCH  33  34
ATOM     34  C   LIG    1        9.909 -11.811   6.783  0.00  0.00    -0.100 A 
ATOM     35  C   LIG    1       10.660 -11.220   7.782  0.00  0.00    +0.020 A 
ATOM     36  C   LIG    1       11.738 -11.893   8.326  0.00  0.00    +0.010 A 
ATOM     37  C   LIG    1       12.070 -13.153   7.865  0.00  0.00    +0.010 A 
ATOM     38  C   LIG    1       11.322 -13.742   6.862  0.00  0.00    +0.010 A 
ATOM     39  C   LIG    1       10.242 -13.071   6.322  0.00  0.00    +0.020 A 
ENDBRANCH  33  34
ENDBRANCH  32  33
ENDBRANCH  29  32
ENDBRANCH  23  26
ENDBRANCH  21  22
ENDBRANCH   1  21
TORSDOF 10
