REMARK  Name = ZINCtV000002CgyG.0
REMARK                            x       y       z     vdW  Elec       q    Type
REMARK                         _______ _______ _______ _____ _____    ______ ____
ROOT
ATOM      1  C   LIG    1        8.560  -1.002   3.810  0.00  0.00    +0.130 A 
ATOM      2  C   LIG    1        9.946  -1.040   3.709  0.00  0.00    +0.030 A 
ATOM      3  C   LIG    1       10.733  -0.627   4.766  0.00  0.00    +0.020 A 
ATOM      4  C   LIG    1       10.145  -0.183   5.940  0.00  0.00    +0.110 A 
ATOM      5  C   LIG    1        8.749  -0.148   6.051  0.00  0.00    -0.040 A 
ATOM      6  C   LIG    1        7.960  -0.561   4.978  0.00  0.00    +0.100 A 
ENDROOT
BRANCH   5   7
ATOM      7  C   LIG    1        8.116   0.324   7.299  0.00  0.00    +0.150 A 
ATOM      8  N   LIG    1        6.843   0.398   7.498  0.00  0.00    -0.450 NA
ATOM      9  C   LIG    1        6.417   0.846   8.692  0.00  0.00    +0.080 A 
ATOM     10  C   LIG    1        5.093   1.015   9.152  0.00  0.00    +0.070 A 
ATOM     11  C   LIG    1        4.851   1.491  10.404  0.00  0.00    +0.030 A 
ATOM     12  C   LIG    1        5.898   1.820  11.253  0.00  0.00    +0.040 A 
ATOM     13  C   LIG    1        7.200   1.665  10.833  0.00  0.00    +0.060 A 
ATOM     14  C   LIG    1        7.468   1.179   9.555  0.00  0.00    -0.190 A 
ATOM     15  S   LIG    1        8.990   0.870   8.724  0.00  0.00    +0.110 S 
ENDBRANCH   5   7
BRANCH   1  17
ATOM     16  C   LIG    1        6.597  -0.801   2.478  0.00  0.00    +0.510 C 
ATOM     17  N   LIG    1        7.769  -1.417   2.730  0.00  0.00    -0.680 N 
ATOM     18  H   LIG    1        8.064  -2.148   2.165  0.00  0.00    +0.410 HD
ATOM     19  O   LIG    1        6.187   0.056   3.232  0.00  0.00    -0.510 OA
BRANCH  16  20
ATOM     20  C   LIG    1        5.796  -1.176   1.258  0.00  0.00    +0.060 C 
BRANCH  20  21
ATOM     21  C   LIG    1        4.519  -0.334   1.207  0.00  0.00    +0.040 C 
BRANCH  21  23
ATOM     22  C   LIG    1        4.489  -0.340  -1.292  0.00  0.00    +0.030 C 
ATOM     23  C   LIG    1        3.706  -0.715  -0.032  0.00  0.00    +0.030 C 
BRANCH  23  24
ATOM     24  C   LIG    1        2.393   0.024  -0.018  0.00  0.00    -0.080 A 
ATOM     25  C   LIG    1        1.203  -0.680  -0.002  0.00  0.00    +0.000 A 
ATOM     26  C   LIG    1       -0.001  -0.002   0.012  0.00  0.00    +0.000 A 
ATOM     27  C   LIG    1       -0.016   1.380   0.010  0.00  0.00    +0.000 A 
ATOM     28  C   LIG    1        1.173   2.084  -0.005  0.00  0.00    +0.000 A 
ATOM     29  C   LIG    1        2.378   1.406  -0.021  0.00  0.00    +0.010 A 
ENDBRANCH  23  24
ENDBRANCH  21  23
ENDBRANCH  20  21
ENDBRANCH  16  20
ENDBRANCH   1  17
BRANCH   4  30
ATOM     30  O   LIG    1       10.921   0.217   6.980  0.00  0.00    -0.480 OA
ATOM     31  H   LIG    1       11.150  -0.492   7.596  0.00  0.00    +0.390 HD
ENDBRANCH   4  30
TORSDOF 7
