REMARK  Name = ZINCkj00000dDiw0.0
REMARK                            x       y       z     vdW  Elec       q    Type
REMARK                         _______ _______ _______ _____ _____    ______ ____
ROOT
ATOM      1  C   LIG    1       -0.000  -0.730  -1.271  0.00  0.00    +0.280 C 
ATOM      2  N   LIG    1        0.002  -0.004   0.002  0.00  0.00    -0.620 N 
ATOM      3  C   LIG    1        0.022  -0.684   1.165  0.00  0.00    +0.710 C 
ATOM      4  N   LIG    1        0.041  -2.032   1.158  0.00  0.00    -0.730 N 
ATOM      5  H   LIG    1        0.039  -2.512   0.315  0.00  0.00    +0.390 HD
ATOM      6  O   LIG    1        0.024  -0.082   2.222  0.00  0.00    -0.560 OA
ENDROOT
BRANCH   4   7
ATOM      7  C   LIG    1        0.063  -2.771   2.423  0.00  0.00    +0.280 C 
ATOM      8  C   LIG    1        1.016  -3.963   2.528  0.00  0.00    +0.060 C 
ATOM      9  C   LIG    1       -0.489  -4.195   2.417  0.00  0.00    -0.180 C 
ATOM     10  C   LIG    1       -1.034  -4.746   1.095  0.00  0.00    +0.090 C 
ATOM     11  C   LIG    1       -2.549  -4.516   1.058  0.00  0.00    +0.260 C 
ATOM     12  N   LIG    1       -3.168  -5.139   2.233  0.00  0.00    -0.500 N 
ATOM     13  C   LIG    1       -2.735  -4.454   3.457  0.00  0.00    +0.260 C 
ATOM     14  H   LIG    1       -4.172  -5.076   2.152  0.00  0.00    +0.430 HD
ATOM     15  H   LIG    1       -2.896  -6.109   2.280  0.00  0.00    +0.430 HD
ATOM     16  C   LIG    1       -1.233  -4.679   3.666  0.00  0.00    +0.120 C 
ENDBRANCH   4   7
BRANCH   2  17
ATOM     17  C   LIG    1       -0.018   1.461   0.010  0.00  0.00    +0.390 C 
BRANCH  17  18
ATOM     18  C   LIG    1        1.396   1.982  -0.001  0.00  0.00    +0.100 A 
ATOM     19  C   LIG    1        1.991   2.318  -1.202  0.00  0.00    -0.030 A 
ATOM     20  C   LIG    1        3.291   2.802  -1.200  0.00  0.00    +0.060 A 
ATOM     21  C   LIG    1        3.949   2.920   0.014  0.00  0.00    -0.030 A 
ATOM     22  C   LIG    1        3.291   2.560   1.175  0.00  0.00    +0.260 A 
ATOM     23  N   LIG    1        2.053   2.108   1.136  0.00  0.00    -0.460 NA
ENDBRANCH  17  18
ENDBRANCH   2  17
TORSDOF 3
