REMARK  Name = ZINCrD000000Am3k.0
REMARK                            x       y       z     vdW  Elec       q    Type
REMARK                         _______ _______ _______ _____ _____    ______ ____
ROOT
ATOM      1  N   LIG    1       -0.052   7.962   2.105  0.00  0.00    -0.520 NA
ATOM      2  C   LIG    1       -0.252   6.934   3.136  0.00  0.00    +0.170 C 
ATOM      3  C   LIG    1        0.902   5.927   3.080  0.00  0.00    +0.300 C 
ATOM      4  N   LIG    1        1.009   5.416   1.705  0.00  0.00    -0.620 N 
ATOM      5  C   LIG    1        1.082   6.389   0.604  0.00  0.00    +0.280 C 
ATOM      6  C   LIG    1        1.046   4.091   1.460  0.00  0.00    +0.520 C 
ATOM      7  O   LIG    1        0.990   3.303   2.380  0.00  0.00    -0.530 OA
ATOM      8  C   LIG    1       -0.085   7.378   0.757  0.00  0.00    +0.180 C 
ENDROOT
BRANCH   1   9
ATOM      9  C   LIG    1       -1.042   9.039   2.236  0.00  0.00    +0.220 C 
BRANCH   9  11
ATOM     10  O   LIG    1        0.336  10.109   0.646  0.00  0.00    -0.490 OA
ATOM     11  C   LIG    1       -0.661  10.183   1.332  0.00  0.00    +0.520 C 
ATOM     12  N   LIG    1       -1.429  11.290   1.286  0.00  0.00    -0.670 N 
ATOM     13  H   LIG    1       -2.268  11.319   1.773  0.00  0.00    +0.410 HD
BRANCH  12  14
ATOM     14  C   LIG    1       -1.017  12.398   0.537  0.00  0.00    +0.160 A 
ATOM     15  C   LIG    1        0.332  12.597   0.274  0.00  0.00    +0.040 A 
ATOM     16  C   LIG    1        0.736  13.691  -0.466  0.00  0.00    +0.040 A 
ATOM     17  C   LIG    1       -0.201  14.588  -0.945  0.00  0.00    +0.000 A 
ATOM     18  C   LIG    1       -1.545  14.394  -0.684  0.00  0.00    +0.050 A 
ATOM     19  C   LIG    1       -1.957  13.298   0.050  0.00  0.00    -0.070 A 
ATOM     20 CL   LIG    1       -3.645  13.050   0.369  0.00  0.00    -0.070 Cl
ENDBRANCH  12  14
ENDBRANCH   9  11
ENDBRANCH   1   9
BRANCH   6  21
ATOM     21  C   LIG    1        1.157   3.589   0.044  0.00  0.00    +0.110 C 
BRANCH  21  22
ATOM     22  C   LIG    1        1.178   2.082   0.045  0.00  0.00    -0.060 A 
ATOM     23  C   LIG    1        2.384   1.408   0.028  0.00  0.00    +0.030 A 
ATOM     24  C   LIG    1        2.404   0.026   0.029  0.00  0.00    +0.020 A 
ATOM     25  C   LIG    1        1.218  -0.683   0.047  0.00  0.00    +0.020 A 
ATOM     26  C   LIG    1        0.011  -0.010   0.064  0.00  0.00    +0.020 A 
ATOM     27  C   LIG    1       -0.010   1.373   0.063  0.00  0.00    -0.020 A 
ATOM     28 CL   LIG    1       -1.526   2.219   0.077  0.00  0.00    -0.070 Cl
ENDBRANCH  21  22
ENDBRANCH   6  21
TORSDOF 5
