REMARK  Name = ZINCnE000001PMtg.0
REMARK                            x       y       z     vdW  Elec       q    Type
REMARK                         _______ _______ _______ _____ _____    ______ ____
ROOT
ATOM      1  C   LIG    1        3.609   5.889  -0.002  0.00  0.00    -0.010 A 
ATOM      2  N   LIG    1        4.273   6.180  -1.064  0.00  0.00    -0.380 NA
ATOM      3  C   LIG    1        5.485   6.706  -0.866  0.00  0.00    +0.070 A 
ATOM      4  C   LIG    1        5.814   6.835   0.440  0.00  0.00    -0.050 A 
ATOM      5  S   LIG    1        4.516   6.266   1.395  0.00  0.00    +0.180 S 
ENDROOT
BRANCH   3   6
ATOM      6  C   LIG    1        6.380   7.104  -1.965  0.00  0.00    +0.530 C 
ATOM      7  N   LIG    1        5.987   6.947  -3.244  0.00  0.00    -0.640 NA
ATOM      8  O   LIG    1        7.475   7.574  -1.718  0.00  0.00    -0.570 OA
BRANCH   7   9
ATOM      9  C   LIG    1        6.832   7.322  -4.282  0.00  0.00    +0.320 A 
ATOM     10  N   LIG    1        8.020   7.839  -4.157  0.00  0.00    -0.360 NA
ATOM     11  N   LIG    1        8.652   8.117  -5.212  0.00  0.00    -0.240 NA
ATOM     12  C   LIG    1        8.074   7.878  -6.345  0.00  0.00    -0.070 A 
ATOM     13  C   LIG    1        8.655   8.143  -7.710  0.00  0.00    +0.180 C 
ATOM     14  S   LIG    1        6.485   7.189  -6.008  0.00  0.00    -0.050 S 
ENDBRANCH   7   9
ENDBRANCH   3   6
BRANCH   1  15
ATOM     15  C   LIG    1        2.225   5.292   0.009  0.00  0.00    +0.320 C 
BRANCH  15  16
ATOM     16  O   LIG    1        2.322   3.866   0.000  0.00  0.00    -0.310 OA
BRANCH  16  21
ATOM     17  C   LIG    1       -2.513   0.977   0.019  0.00  0.00    +0.080 C 
ATOM     18  C   LIG    1       -1.220   1.750   0.017  0.00  0.00    -0.130 A 
ATOM     19  C   LIG    1       -0.013   1.076   0.008  0.00  0.00    +0.050 A 
ATOM     20  C   LIG    1        1.175   1.782   0.000  0.00  0.00    -0.020 A 
ATOM     21  C   LIG    1        1.155   3.169   0.008  0.00  0.00    +0.130 A 
ATOM     22  C   LIG    1       -0.057   3.844   0.023  0.00  0.00    -0.080 A 
ATOM     23  C   LIG    1       -1.242   3.133   0.031  0.00  0.00    +0.040 A 
ENDBRANCH  16  21
ENDBRANCH  15  16
ENDBRANCH   1  15
TORSDOF 5
