REMARK  Name = ZINCqH0000005jCx.0
REMARK                            x       y       z     vdW  Elec       q    Type
REMARK                         _______ _______ _______ _____ _____    ______ ____
ROOT
ATOM      1  C   LIG    1        3.909   2.066  -0.133  0.00  0.00    +0.270 C 
ATOM      2  N   LIG    1        3.529   0.705   0.254  0.00  0.00    -0.630 N 
ATOM      3  C   LIG    1        2.315   0.224  -0.076  0.00  0.00    +0.710 C 
ATOM      4  N   LIG    1        1.449   0.995  -0.763  0.00  0.00    -0.740 N 
ATOM      5  H   LIG    1        1.700   1.897  -1.020  0.00  0.00    +0.400 HD
ATOM      6  O   LIG    1        2.000  -0.905   0.245  0.00  0.00    -0.570 OA
ENDROOT
BRANCH   4   7
ATOM      7  C   LIG    1        0.128   0.472  -1.122  0.00  0.00    +0.240 C 
ATOM      8  C   LIG    1       -0.824   0.658   0.075  0.00  0.00    +0.010 C 
ATOM      9  C   LIG    1       -2.308   0.549  -0.317  0.00  0.00    +0.010 C 
ATOM     10  C   LIG    1       -2.566  -0.568  -1.291  0.00  0.00    +0.010 C 
ATOM     11  C   LIG    1       -2.525   0.010  -2.721  0.00  0.00    +0.020 C 
ATOM     12  C   LIG    1       -1.166   0.184  -3.210  0.00  0.00    +0.020 C 
ATOM     13  C   LIG    1       -0.357   1.183  -2.357  0.00  0.00    +0.180 C 
ATOM     14  F   LIG    1        0.738   1.650  -3.092  0.00  0.00    -0.210 F 
ENDBRANCH   4   7
BRANCH   2  15
ATOM     15  C   LIG    1        4.471  -0.133   1.001  0.00  0.00    +0.430 C 
BRANCH  15  16
ATOM     16  C   LIG    1        5.359  -0.873   0.035  0.00  0.00    +0.190 A 
ATOM     17  N   LIG    1        5.062  -1.992  -0.567  0.00  0.00    -0.460 NA
ATOM     18  C   LIG    1        6.087  -2.357  -1.353  0.00  0.00    +0.140 A 
ATOM     19  C   LIG    1        7.058  -1.433  -1.226  0.00  0.00    +0.120 A 
ATOM     20  N   LIG    1        6.598  -0.492  -0.346  0.00  0.00    -0.450 N 
BRANCH  20  21
ATOM     21  C   LIG    1        7.314   0.706   0.099  0.00  0.00    +0.340 C 
BRANCH  21  22
ATOM     22  C   LIG    1        8.023   0.414   1.396  0.00  0.00    -0.120 A 
ATOM     23  C   LIG    1        7.429   0.746   2.599  0.00  0.00    +0.020 A 
ATOM     24  C   LIG    1        8.078   0.474   3.789  0.00  0.00    +0.010 A 
ATOM     25  C   LIG    1        9.325  -0.122   3.776  0.00  0.00    +0.020 A 
ATOM     26  C   LIG    1        9.922  -0.449   2.572  0.00  0.00    +0.010 A 
ATOM     27  C   LIG    1        9.271  -0.181   1.383  0.00  0.00    +0.020 A 
ENDBRANCH  21  22
ENDBRANCH  20  21
ENDBRANCH  15  16
ENDBRANCH   2  15
TORSDOF 5
