REMARK  Name = ZINCrH000004vCbt.0
REMARK                            x       y       z     vdW  Elec       q    Type
REMARK                         _______ _______ _______ _____ _____    ______ ____
ROOT
ATOM      1  C   LIG    1        0.991   3.095  -0.342  0.00  0.00    -0.120 A 
ATOM      2  C   LIG    1        0.825   1.710  -0.401  0.00  0.00    +0.050 A 
ATOM      3  C   LIG    1       -0.434   1.160  -0.271  0.00  0.00    +0.030 A 
ATOM      4  C   LIG    1       -1.534   1.976  -0.088  0.00  0.00    +0.060 A 
ATOM      5  C   LIG    1       -1.379   3.356  -0.022  0.00  0.00    +0.120 A 
ATOM      6  C   LIG    1       -0.119   3.918  -0.152  0.00  0.00    +0.080 A 
ENDROOT
BRANCH   1   8
ATOM      7  O   LIG    1        2.505   4.661  -1.190  0.00  0.00    -0.530 OA
ATOM      8  C   LIG    1        2.339   3.687  -0.481  0.00  0.00    +0.570 C 
ATOM      9  N   LIG    1        3.384   3.147   0.177  0.00  0.00    -0.610 N 
ATOM     10  C   LIG    1        4.716   3.766   0.115  0.00  0.00    +0.310 C 
ATOM     11  C   LIG    1        5.087   4.257   1.524  0.00  0.00    +0.110 C 
ATOM     12  C   LIG    1        4.762   3.170   2.526  0.00  0.00    -0.170 A 
ATOM     13  C   LIG    1        3.936   2.131   2.302  0.00  0.00    -0.130 A 
ATOM     14  C   LIG    1        3.798   1.277   3.392  0.00  0.00    +0.020 A 
ATOM     15  C   LIG    1        4.497   1.607   4.473  0.00  0.00    -0.040 A 
ATOM     16  S   LIG    1        5.404   3.079   4.162  0.00  0.00    +0.110 S 
ATOM     17  C   LIG    1        3.222   1.921   0.971  0.00  0.00    +0.360 C 
ENDBRANCH   1   8
BRANCH   5  18
ATOM     18  N   LIG    1       -2.494   4.176   0.168  0.00  0.00    -1.060 N 
ATOM     19  H   LIG    1       -2.863   4.675  -0.577  0.00  0.00    +0.430 HD
BRANCH  18  20
ATOM     20  S   LIG    1       -3.186   4.296   1.668  0.00  0.00    +2.690 S 
ATOM     21  O   LIG    1       -3.394   2.966   2.122  0.00  0.00    -0.940 OA
ATOM     22  O   LIG    1       -4.233   5.250   1.551  0.00  0.00    -0.950 OA
BRANCH  20  23
ATOM     23  C   LIG    1       -1.984   5.007   2.742  0.00  0.00    -0.680 A 
ATOM     24  C   LIG    1       -1.050   4.200   3.365  0.00  0.00    +0.120 A 
ATOM     25  C   LIG    1       -0.103   4.758   4.203  0.00  0.00    -0.010 A 
ATOM     26  C   LIG    1       -0.097   6.122   4.428  0.00  0.00    +0.070 A 
ATOM     27  C   LIG    1       -1.034   6.928   3.809  0.00  0.00    -0.010 A 
ATOM     28  C   LIG    1       -1.977   6.371   2.966  0.00  0.00    +0.120 A 
ENDBRANCH  20  23
ENDBRANCH  18  20
ENDBRANCH   5  18
TORSDOF 4
