REMARK  Name = ZINCrH000004mTGj.0
REMARK                            x       y       z     vdW  Elec       q    Type
REMARK                         _______ _______ _______ _____ _____    ______ ____
ROOT
ATOM      1  N   LIG    1        1.875   3.294   0.322  0.00  0.00    -1.000 NA
ATOM      2  C   LIG    1        3.090   2.679   0.944  0.00  0.00    +0.330 C 
ATOM      3  C   LIG    1        2.115   1.613   1.361  0.00  0.00    +0.000 C 
ATOM      4  C   LIG    1        2.386   0.123   1.331  0.00  0.00    +0.030 C 
ATOM      5  C   LIG    1        1.006  -0.562   1.303  0.00  0.00    +0.020 C 
ATOM      6  C   LIG    1        0.144  -0.095   0.137  0.00  0.00    +0.020 C 
ATOM      7  C   LIG    1        0.016   1.441   0.080  0.00  0.00    +0.050 C 
ATOM      8  C   LIG    1        1.433   1.967  -0.001  0.00  0.00    +0.190 C 
ENDROOT
BRANCH   8   9
ATOM      9  C   LIG    1        2.181   1.393  -1.177  0.00  0.00    -0.080 A 
ATOM     10  C   LIG    1        2.680   2.233  -2.155  0.00  0.00    +0.010 A 
ATOM     11  C   LIG    1        3.370   1.707  -3.231  0.00  0.00    +0.000 A 
ATOM     12  C   LIG    1        3.554   0.341  -3.334  0.00  0.00    +0.000 A 
ATOM     13  C   LIG    1        3.051  -0.499  -2.358  0.00  0.00    +0.000 A 
ATOM     14  C   LIG    1        2.364   0.027  -1.280  0.00  0.00    +0.040 A 
ENDBRANCH   8   9
BRANCH   1  15
ATOM     15  S   LIG    1        1.296   4.830   0.104  0.00  0.00    +2.710 S 
ATOM     16  O   LIG    1        1.904   5.635   1.105  0.00  0.00    -0.940 OA
ATOM     17  O   LIG    1       -0.112   4.710  -0.048  0.00  0.00    -0.950 OA
BRANCH  15  22
ATOM     18  C   LIG    1        1.532   6.123  -3.697  0.00  0.00    +0.080 A 
ATOM     19  C   LIG    1        2.894   6.311  -3.872  0.00  0.00    +0.030 A 
ATOM     20  C   LIG    1        3.766   6.046  -2.833  0.00  0.00    -0.050 A 
ATOM     21  C   LIG    1        3.279   5.594  -1.616  0.00  0.00    +0.190 A 
ATOM     22  C   LIG    1        1.915   5.406  -1.442  0.00  0.00    -0.680 A 
ATOM     23  C   LIG    1        1.044   5.665  -2.482  0.00  0.00    +0.140 A 
BRANCH  18  25
ATOM     24  C   LIG    1        1.245   6.846  -5.944  0.00  0.00    +0.240 C 
ATOM     25  O   LIG    1        0.673   6.383  -4.720  0.00  0.00    -0.310 OA
ENDBRANCH  18  25
BRANCH  21  26
ATOM     26  O   LIG    1        4.137   5.334  -0.594  0.00  0.00    -0.310 OA
ATOM     27  C   LIG    1        5.527   5.550  -0.844  0.00  0.00    +0.260 C 
ENDBRANCH  21  26
ENDBRANCH  15  22
ENDBRANCH   1  15
TORSDOF 5
