REMARK  Name = ZINCpe000000SXIF.0
REMARK                            x       y       z     vdW  Elec       q    Type
REMARK                         _______ _______ _______ _____ _____    ______ ____
ROOT
ATOM      1  C   LIG    1        5.729   5.916  -3.070  0.00  0.00    +0.270 C 
ENDROOT
BRANCH   1   3
ATOM      2  C   LIG    1        7.272   6.851  -4.708  0.00  0.00    +0.520 C 
ATOM      3  N   LIG    1        6.136   6.172  -4.454  0.00  0.00    -0.730 N 
ATOM      4  H   LIG    1        5.587   5.853  -5.188  0.00  0.00    +0.410 HD
ATOM      5  O   LIG    1        7.958   7.249  -3.790  0.00  0.00    -0.520 OA
BRANCH   2   8
ATOM      6  N   LIG    1       10.058   6.769  -6.298  0.00  0.00    -0.610 N 
ATOM      7  C   LIG    1        9.056   7.836  -6.181  0.00  0.00    +0.300 C 
ATOM      8  C   LIG    1        7.691   7.114  -6.131  0.00  0.00    +0.000 C 
ATOM      9  C   LIG    1        8.005   5.792  -6.869  0.00  0.00    +0.070 C 
ATOM     10  C   LIG    1        9.496   5.612  -6.689  0.00  0.00    +0.520 C 
ATOM     11  O   LIG    1       10.097   4.574  -6.870  0.00  0.00    -0.520 OA
BRANCH   6  13
ATOM     12  C   LIG    1       11.909   6.000  -4.896  0.00  0.00    +0.030 C 
ATOM     13  C   LIG    1       11.487   6.943  -6.025  0.00  0.00    +0.240 C 
ATOM     14  C   LIG    1       12.291   6.620  -7.286  0.00  0.00    +0.030 C 
ENDBRANCH   6  13
ENDBRANCH   2   8
ENDBRANCH   1   3
BRANCH   1  15
ATOM     15  C   LIG    1        4.414   5.134  -3.062  0.00  0.00    +0.270 C 
BRANCH  15  16
ATOM     16  N   LIG    1        4.007   4.878  -1.678  0.00  0.00    -0.730 N 
ATOM     17  H   LIG    1        4.555   5.197  -0.944  0.00  0.00    +0.400 HD
ATOM     18  C   LIG    1        2.870   4.199  -1.425  0.00  0.00    +0.520 C 
ATOM     19  O   LIG    1        2.184   3.801  -2.342  0.00  0.00    -0.520 OA
BRANCH  18  20
ATOM     20  C   LIG    1        2.451   3.936  -0.001  0.00  0.00    +0.120 C 
BRANCH  20  21
ATOM     21  C   LIG    1        1.156   3.166   0.007  0.00  0.00    -0.080 A 
ATOM     22  C   LIG    1        1.175   1.783   0.000  0.00  0.00    +0.050 A 
ATOM     23  C   LIG    1       -0.013   1.076   0.008  0.00  0.00    -0.010 A 
ATOM     24  C   LIG    1       -1.221   1.752   0.017  0.00  0.00    +0.100 A 
ATOM     25  C   LIG    1       -1.238   3.136   0.030  0.00  0.00    -0.010 A 
ATOM     26  F   LIG    1       -2.382   1.062   0.019  0.00  0.00    -0.140 F 
ATOM     27  C   LIG    1       -0.050   3.842   0.022  0.00  0.00    +0.050 A 
ENDBRANCH  20  21
ENDBRANCH  18  20
ENDBRANCH  15  16
ENDBRANCH   1  15
TORSDOF 7
