REMARK  Name = ZINCrg00001Jdv5r.0
REMARK                            x       y       z     vdW  Elec       q    Type
REMARK                         _______ _______ _______ _____ _____    ______ ____
ROOT
ATOM      1  C   LIG    1       -0.735  -1.807  -2.655  0.00  0.00    +0.560 C 
ATOM      2  N   LIG    1       -1.081  -0.581  -2.214  0.00  0.00    -0.610 N 
ATOM      3  C   LIG    1       -0.303   0.657  -2.413  0.00  0.00    +0.260 C 
ATOM      4  C   LIG    1       -0.739   1.586  -1.242  0.00  0.00    +0.000 C 
ATOM      5  C   LIG    1       -0.013   1.086   0.008  0.00  0.00    +0.220 C 
ATOM      6  O   LIG    1       -0.667   1.539   1.190  0.00  0.00    -0.370 OA
ATOM      7  C   LIG    1       -1.991   0.999   1.321  0.00  0.00    +0.210 C 
ATOM      8  C   LIG    1       -2.838   1.585   0.191  0.00  0.00    +0.030 C 
ATOM      9  C   LIG    1       -2.244   1.253  -1.160  0.00  0.00    -0.080 C 
ATOM     10  C   LIG    1       -2.299  -0.253  -1.452  0.00  0.00    +0.270 C 
ATOM     11  O   LIG    1       -1.456  -2.759  -2.432  0.00  0.00    -0.520 OA
ENDROOT
BRANCH   1  13
ATOM     12  C   LIG    1        0.865  -3.214  -3.850  0.00  0.00    +0.060 C 
ATOM     13  C   LIG    1        0.520  -1.993  -3.410  0.00  0.00    +0.040 C 
BRANCH  12  14
ATOM     14  C   LIG    1        2.119  -3.400  -4.604  0.00  0.00    +0.490 C 
ATOM     15  O   LIG    1        2.840  -2.448  -4.828  0.00  0.00    -0.500 OA
BRANCH  14  17
ATOM     16  C   LIG    1        3.712  -4.734  -5.780  0.00  0.00    +0.290 C 
ATOM     17  O   LIG    1        2.465  -4.625  -5.045  0.00  0.00    -0.350 OA
ENDBRANCH  14  17
ENDBRANCH  12  14
ENDBRANCH   1  13
BRANCH   9  18
ATOM     18  C   LIG    1       -2.997   2.014  -2.253  0.00  0.00    +0.290 C 
BRANCH  18  19
ATOM     19  N   LIG    1       -4.425   1.696  -2.174  0.00  0.00    -0.730 N 
ATOM     20  H   LIG    1       -4.748   1.083  -1.495  0.00  0.00    +0.400 HD
ATOM     21  C   LIG    1       -5.289   2.255  -3.044  0.00  0.00    +0.560 C 
ATOM     22  O   LIG    1       -4.883   3.023  -3.894  0.00  0.00    -0.530 OA
BRANCH  21  23
ATOM     23  C   LIG    1       -6.730   1.935  -2.964  0.00  0.00    -0.140 A 
ATOM     24  C   LIG    1       -7.198   1.049  -1.992  0.00  0.00    +0.030 A 
ATOM     25  C   LIG    1       -8.545   0.758  -1.919  0.00  0.00    +0.000 A 
ATOM     26  C   LIG    1       -9.429   1.334  -2.814  0.00  0.00    +0.040 A 
ATOM     27  C   LIG    1       -8.971   2.209  -3.783  0.00  0.00    +0.000 A 
ATOM     28  C   LIG    1       -7.628   2.512  -3.863  0.00  0.00    +0.080 A 
ENDBRANCH  21  23
ENDBRANCH  18  19
ENDBRANCH   9  18
TORSDOF 6
