REMARK  Name = ZINCpk00000FaMsK.1
REMARK                            x       y       z     vdW  Elec       q    Type
REMARK                         _______ _______ _______ _____ _____    ______ ____
ROOT
ATOM      1  C   LIG    1        1.473   4.299   0.011  0.00  0.00    +0.270 C 
ATOM      2  C   LIG    1        2.057   4.524  -1.388  0.00  0.00    +0.280 C 
ATOM      3  N   LIG    1        3.013   5.640  -1.318  0.00  0.00    -0.620 N 
ATOM      4  C   LIG    1        4.048   5.600  -0.273  0.00  0.00    +0.250 C 
ATOM      5  C   LIG    1        3.366   5.323   1.072  0.00  0.00    +0.230 C 
ATOM      6  C   LIG    1        2.943   6.669  -2.186  0.00  0.00    +0.520 C 
ATOM      7  O   LIG    1        2.083   6.684  -3.040  0.00  0.00    -0.520 OA
ATOM      8  O   LIG    1        2.540   4.162   0.952  0.00  0.00    -0.370 OA
ENDROOT
BRANCH   1  11
ATOM      9  C   LIG    1       -1.098   1.757   0.016  0.00  0.00    +0.290 A 
ATOM     10  N   LIG    1       -0.694   3.001   0.024  0.00  0.00    -0.530 NA
ATOM     11  C   LIG    1        0.637   3.045   0.011  0.00  0.00    +0.230 A 
ATOM     12  N   LIG    1        1.102   1.823   0.001  0.00  0.00    -0.280 NA
ATOM     13  N   LIG    1       -0.011   0.966   0.007  0.00  0.00    -0.480 N 
ATOM     14  H   LIG    1        0.002  -0.004   0.002  0.00  0.00    +0.440 HD
BRANCH   9  16
ATOM     15  C   LIG    1       -2.971   1.008   1.458  0.00  0.00    +0.050 C 
ATOM     16  C   LIG    1       -2.531   1.291   0.020  0.00  0.00    +0.150 C 
ENDBRANCH   9  16
ENDBRANCH   1  11
BRANCH   6  17
ATOM     17  C   LIG    1        3.934   7.801  -2.093  0.00  0.00    +0.120 C 
BRANCH  17  18
ATOM     18  C   LIG    1        3.639   8.815  -3.169  0.00  0.00    -0.100 A 
ATOM     19  C   LIG    1        4.241   8.705  -4.409  0.00  0.00    +0.060 A 
ATOM     20  C   LIG    1        3.974   9.630  -5.397  0.00  0.00    -0.010 A 
ATOM     21  C   LIG    1        3.105  10.690  -5.150  0.00  0.00    +0.110 A 
ATOM     22  O   LIG    1        2.719  11.710  -5.964  0.00  0.00    -0.310 OA
ATOM     23  C   LIG    1        1.511  12.296  -5.450  0.00  0.00    +0.240 C 
ATOM     24  C   LIG    1        1.612  12.014  -3.932  0.00  0.00    +0.070 C 
ATOM     25  C   LIG    1        2.506  10.789  -3.901  0.00  0.00    -0.170 A 
ATOM     26  C   LIG    1        2.771   9.863  -2.917  0.00  0.00    +0.070 A 
ENDBRANCH  17  18
ENDBRANCH   6  17
TORSDOF 4
