REMARK  Name = ZINCpk00000FaMsK.0
REMARK                            x       y       z     vdW  Elec       q    Type
REMARK                         _______ _______ _______ _____ _____    ______ ____
ROOT
ATOM      1  C   LIG    1       -0.019   1.529   0.010  0.00  0.00    +0.270 C 
ATOM      2  C   LIG    1        0.002  -0.004   0.002  0.00  0.00    +0.300 C 
ATOM      3  N   LIG    1        0.852  -0.451  -1.113  0.00  0.00    -0.620 N 
ATOM      4  C   LIG    1        2.197   0.134  -1.235  0.00  0.00    +0.250 C 
ATOM      5  C   LIG    1        2.069   1.660  -1.167  0.00  0.00    +0.230 C 
ATOM      6  C   LIG    1        0.411  -1.368  -1.997  0.00  0.00    +0.520 C 
ATOM      7  O   LIG    1       -0.701  -1.838  -1.879  0.00  0.00    -0.510 OA
ATOM      8  O   LIG    1        1.325   2.018   0.000  0.00  0.00    -0.380 OA
ENDROOT
BRANCH   1  12
ATOM      9  C   LIG    1       -1.193   3.028   3.106  0.00  0.00    +0.180 A 
ATOM     10  N   LIG    1       -2.205   2.288   2.739  0.00  0.00    -0.280 NA
ATOM     11  N   LIG    1       -1.927   1.692   1.635  0.00  0.00    -0.270 NA
ATOM     12  C   LIG    1       -0.722   2.016   1.251  0.00  0.00    +0.180 A 
ATOM     13  N   LIG    1       -0.224   2.876   2.172  0.00  0.00    -0.560 N 
ATOM     14  H   LIG    1        0.650   3.297   2.164  0.00  0.00    +0.430 HD
BRANCH   9  16
ATOM     15  C   LIG    1       -2.302   4.859   4.357  0.00  0.00    +0.050 C 
ATOM     16  C   LIG    1       -1.118   3.890   4.339  0.00  0.00    +0.140 C 
ENDBRANCH   9  16
ENDBRANCH   1  12
BRANCH   6  17
ATOM     17  C   LIG    1        1.300  -1.809  -3.131  0.00  0.00    +0.120 C 
BRANCH  17  18
ATOM     18  C   LIG    1        0.576  -2.833  -3.968  0.00  0.00    -0.100 A 
ATOM     19  C   LIG    1        0.689  -4.178  -3.670  0.00  0.00    +0.060 A 
ATOM     20  C   LIG    1        0.022  -5.119  -4.427  0.00  0.00    -0.010 A 
ATOM     21  C   LIG    1       -0.764  -4.721  -5.505  0.00  0.00    +0.110 A 
ATOM     22  O   LIG    1       -1.508  -5.468  -6.366  0.00  0.00    -0.300 OA
ATOM     23  C   LIG    1       -1.780  -4.698  -7.549  0.00  0.00    +0.240 C 
ATOM     24  C   LIG    1       -1.751  -3.243  -7.024  0.00  0.00    +0.070 C 
ATOM     25  C   LIG    1       -0.860  -3.367  -5.803  0.00  0.00    -0.170 A 
ATOM     26  C   LIG    1       -0.201  -2.430  -5.040  0.00  0.00    +0.070 A 
ENDBRANCH  17  18
ENDBRANCH   6  17
TORSDOF 4
