REMARK  Name = ZINCpe00000MJMiX.0
REMARK                            x       y       z     vdW  Elec       q    Type
REMARK                         _______ _______ _______ _____ _____    ______ ____
ROOT
ATOM      1  N   LIG    1       -3.254   2.817   5.791  0.00  0.00    -0.630 N 
ATOM      2  C   LIG    1       -2.524   3.762   6.403  0.00  0.00    +0.700 C 
ATOM      3  N   LIG    1       -2.327   4.862   5.655  0.00  0.00    -0.740 N 
ATOM      4  H   LIG    1       -1.867   5.669   5.936  0.00  0.00    +0.430 HD
ATOM      5  C   LIG    1       -2.932   4.630   4.345  0.00  0.00    +0.200 C 
ATOM      6  C   LIG    1       -3.592   5.828   3.752  0.00  0.00    +0.280 C 
ATOM      7  N   LIG    1       -5.040   5.827   3.856  0.00  0.00    -0.600 N 
ATOM      8  C   LIG    1       -5.805   4.596   3.727  0.00  0.00    +0.290 C 
ATOM      9  C   LIG    1       -5.221   3.481   4.550  0.00  0.00    +0.010 C 
ATOM     10  C   LIG    1       -5.688   6.988   4.077  0.00  0.00    +0.570 C 
ATOM     11  O   LIG    1       -6.903   7.012   4.098  0.00  0.00    -0.520 OA
ATOM     12  O   LIG    1       -2.080   3.633   7.527  0.00  0.00    -0.570 OA
ATOM     13  C   LIG    1       -3.717   3.346   4.483  0.00  0.00    +0.240 C 
ENDROOT
BRANCH  10  14
ATOM     14  C   LIG    1       -4.922   8.232   4.293  0.00  0.00    -0.140 A 
ATOM     15  C   LIG    1       -3.849   8.547   3.449  0.00  0.00    +0.060 A 
ATOM     16  C   LIG    1       -3.136   9.696   3.635  0.00  0.00    +0.020 A 
ATOM     17  C   LIG    1       -3.464  10.560   4.674  0.00  0.00    +0.060 A 
ATOM     18  N   LIG    1       -2.951  11.760   5.115  0.00  0.00    -0.600 N 
ATOM     19  H   LIG    1       -2.201  12.241   4.731  0.00  0.00    +0.430 HD
ATOM     20  C   LIG    1       -3.689  12.147   6.192  0.00  0.00    +0.490 A 
ATOM     21  N   LIG    1       -4.616  11.268   6.438  0.00  0.00    -0.490 NA
ATOM     22  C   LIG    1       -4.535  10.257   5.535  0.00  0.00    +0.040 A 
ATOM     23  C   LIG    1       -5.264   9.085   5.338  0.00  0.00    +0.140 A 
ENDBRANCH  10  14
BRANCH   1  24
ATOM     24  C   LIG    1       -3.550   1.487   6.327  0.00  0.00    +0.340 C 
BRANCH  24  25
ATOM     25  C   LIG    1       -2.465   0.505   5.883  0.00  0.00    +0.150 C 
BRANCH  25  27
ATOM     26  C   LIG    1       -0.128   0.021   6.115  0.00  0.00    +0.200 C 
ATOM     27  O   LIG    1       -1.216   0.879   6.468  0.00  0.00    -0.370 OA
ENDBRANCH  25  27
ENDBRANCH  24  25
ENDBRANCH   1  24
TORSDOF 4
