REMARK  Name = ZINCpk00000jUrEL.0
REMARK                            x       y       z     vdW  Elec       q    Type
REMARK                         _______ _______ _______ _____ _____    ______ ____
ROOT
ATOM      1  C   LIG    1       -0.875   5.912   0.043  0.00  0.00    +0.200 C 
ATOM      2  C   LIG    1       -0.702   6.437   1.490  0.00  0.00    +0.180 C 
ATOM      3  N   LIG    1       -0.614   7.909   1.309  0.00  0.00    -0.500 NA
ATOM      4  C   LIG    1       -1.594   8.245   0.255  0.00  0.00    +0.160 C 
ATOM      5  C   LIG    1       -1.780   6.982  -0.612  0.00  0.00    +0.180 C 
ENDROOT
BRANCH   5   6
ATOM      6  O   LIG    1       -1.361   7.231  -1.955  0.00  0.00    -0.550 OA
ATOM      7  H   LIG    1       -1.892   7.894  -2.416  0.00  0.00    +0.380 HD
ENDBRANCH   5   6
BRANCH   1   8
ATOM      8  O   LIG    1       -1.519   4.636   0.042  0.00  0.00    -0.290 OA
BRANCH   8  11
ATOM      9  N   LIG    1       -0.018   1.461   0.010  0.00  0.00    -0.370 N 
ATOM     10  C   LIG    1       -1.127   2.246   0.019  0.00  0.00    +0.200 A 
ATOM     11  C   LIG    1       -0.714   3.537   0.028  0.00  0.00    -0.030 A 
ATOM     12  C   LIG    1        0.687   3.542   0.015  0.00  0.00    +0.190 A 
ATOM     13  N   LIG    1        1.103   2.301   0.004  0.00  0.00    -0.270 NA
BRANCH   9  15
ATOM     14  C   LIG    1        0.826  -0.496  -1.190  0.00  0.00    +0.040 C 
ATOM     15  C   LIG    1        0.002  -0.004   0.002  0.00  0.00    +0.330 C 
ENDBRANCH   9  15
ENDBRANCH   8  11
ENDBRANCH   1   8
BRANCH   3  16
ATOM     16  C   LIG    1       -0.924   8.613   2.561  0.00  0.00    +0.230 C 
BRANCH  16  17
ATOM     17  C   LIG    1       -1.067  10.088   2.286  0.00  0.00    -0.120 A 
ATOM     18  C   LIG    1        0.041  10.915   2.372  0.00  0.00    +0.120 A 
ATOM     19  C   LIG    1       -0.075  12.267   2.116  0.00  0.00    -0.070 A 
ATOM     20  C   LIG    1       -1.307  12.808   1.783  0.00  0.00    +0.180 A 
ATOM     21  C   LIG    1       -2.432  11.975   1.700  0.00  0.00    -0.060 A 
ATOM     22  C   LIG    1       -2.299  10.608   1.955  0.00  0.00    +0.110 A 
BRANCH  21  23
ATOM     23  C   LIG    1       -3.710  12.523   1.356  0.00  0.00    +0.260 C 
ATOM     24  N   LIG    1       -4.723  12.957   1.082  0.00  0.00    -0.410 NA
ENDBRANCH  21  23
BRANCH  20  25
ATOM     25  O   LIG    1       -1.424  14.137   1.537  0.00  0.00    -0.310 OA
ATOM     26  C   LIG    1       -0.234  14.923   1.640  0.00  0.00    +0.250 C 
ENDBRANCH  20  25
ENDBRANCH  16  17
ENDBRANCH   3  16
TORSDOF 8
