REMARK  Name = ZINCqH0000035DME.0
REMARK                            x       y       z     vdW  Elec       q    Type
REMARK                         _______ _______ _______ _____ _____    ______ ____
ROOT
ATOM      1  C   LIG    1        7.775  -3.138  -0.086  0.00  0.00    +0.560 C 
ATOM      2  N   LIG    1        7.365  -1.854  -0.076  0.00  0.00    -0.620 N 
ATOM      3  H   LIG    1        8.018  -1.137  -0.079  0.00  0.00    +0.420 HD
ATOM      4  O   LIG    1        6.956  -4.037  -0.083  0.00  0.00    -0.460 OA
ENDROOT
BRANCH   1   7
ATOM      5  C   LIG    1       11.508  -2.719  -0.122  0.00  0.00    +0.110 A 
ATOM      6  C   LIG    1       10.162  -2.422  -0.111  0.00  0.00    +0.000 A 
ATOM      7  C   LIG    1        9.216  -3.452  -0.101  0.00  0.00    -0.130 A 
ATOM      8  C   LIG    1        9.647  -4.782  -0.112  0.00  0.00    +0.120 A 
ATOM      9  C   LIG    1       10.991  -5.068  -0.128  0.00  0.00    -0.150 A 
ATOM     10  C   LIG    1       11.750  -6.381  -0.131  0.00  0.00    +0.090 C 
ATOM     11  C   LIG    1       13.176  -5.928   0.261  0.00  0.00    +0.160 C 
ATOM     12  C   LIG    1       14.230  -6.752  -0.481  0.00  0.00    +0.070 C 
ATOM     13  O   LIG    1       13.202  -4.556  -0.168  0.00  0.00    -0.290 OA
ATOM     14  C   LIG    1       11.939  -4.051  -0.138  0.00  0.00    +0.120 A 
BRANCH   5  16
ATOM     15  C   LIG    1       11.916  -0.376  -0.109  0.00  0.00    +0.250 C 
ATOM     16  O   LIG    1       12.422  -1.712  -0.125  0.00  0.00    -0.310 OA
ENDBRANCH   5  16
ENDBRANCH   1   7
BRANCH   2  17
ATOM     17  C   LIG    1        6.008  -1.558  -0.062  0.00  0.00    +0.250 A 
ATOM     18  N   LIG    1        5.034  -2.424  -0.058  0.00  0.00    -0.250 NA
ATOM     19  N   LIG    1        3.854  -1.978  -0.045  0.00  0.00    -0.230 NA
ATOM     20  C   LIG    1        3.695  -0.685  -0.036  0.00  0.00    +0.060 A 
ATOM     21  S   LIG    1        5.297   0.057  -0.055  0.00  0.00    +0.080 S 
BRANCH  20  22
ATOM     22  C   LIG    1        2.403   0.034  -0.021  0.00  0.00    -0.030 A 
ATOM     23  C   LIG    1        1.204  -0.681  -0.013  0.00  0.00    +0.070 A 
ATOM     24  C   LIG    1        0.002  -0.004   0.002  0.00  0.00    +0.010 A 
ATOM     25  C   LIG    1       -0.017   1.379   0.010  0.00  0.00    +0.030 A 
ATOM     26  C   LIG    1        1.168   2.093   0.002  0.00  0.00    +0.010 A 
ATOM     27  C   LIG    1        2.377   1.429  -0.013  0.00  0.00    +0.020 A 
ENDBRANCH  20  22
ENDBRANCH   2  17
TORSDOF 4
