REMARK  Name = ZINCrD00000F5Lts.0
REMARK                            x       y       z     vdW  Elec       q    Type
REMARK                         _______ _______ _______ _____ _____    ______ ____
ROOT
ATOM      1  C   LIG    1        2.477   1.365   0.008  0.00  0.00    +0.190 A 
ATOM      2  C   LIG    1        3.252   2.507   0.017  0.00  0.00    +0.090 A 
ATOM      3  N   LIG    1        2.426   3.569   0.051  0.00  0.00    -0.420 NA
ATOM      4  C   LIG    1        1.174   3.147   0.064  0.00  0.00    +0.210 A 
ATOM      5  C   LIG    1       -0.059   3.844   0.098  0.00  0.00    +0.200 A 
ATOM      6  C   LIG    1       -1.225   3.137   0.104  0.00  0.00    -0.080 A 
ATOM      7  C   LIG    1       -1.189   1.732   0.071  0.00  0.00    +0.070 A 
ATOM      8  C   LIG    1       -0.011   1.079   0.044  0.00  0.00    +0.160 A 
ATOM      9  N   LIG    1        1.173   1.772   0.037  0.00  0.00    -0.360 N 
ENDROOT
BRANCH   2  10
ATOM     10  C   LIG    1        4.732   2.555  -0.006  0.00  0.00    +0.120 A 
ATOM     11  N   LIG    1        5.561   1.531  -0.039  0.00  0.00    -0.350 NA
ATOM     12  O   LIG    1        6.720   1.898  -0.051  0.00  0.00    +0.120 OA
ATOM     13  C   LIG    1        6.813   3.224  -0.029  0.00  0.00    -0.030 A 
ATOM     14  C   LIG    1        8.020   4.125  -0.036  0.00  0.00    +0.130 C 
ATOM     15  C   LIG    1        7.543   5.537  -0.418  0.00  0.00    +0.230 C 
ATOM     16  O   LIG    1        6.399   5.888   0.364  0.00  0.00    -0.380 OA
ATOM     17  C   LIG    1        5.205   5.165   0.026  0.00  0.00    +0.330 C 
ATOM     18  C   LIG    1        5.546   3.704  -0.003  0.00  0.00    -0.220 A 
ENDBRANCH   2  10
BRANCH   1  19
ATOM     19  N   LIG    1        2.935   0.050  -0.025  0.00  0.00    -0.560 N 
ATOM     20  H   LIG    1        3.468  -0.126  -0.863  0.00  0.00    +0.370 HD
BRANCH  19  21
ATOM     21  C   LIG    1        1.821  -0.899   0.100  0.00  0.00    +0.220 C 
BRANCH  21  23
ATOM     22  C   LIG    1        2.549  -2.843   1.387  0.00  0.00    +0.050 C 
ATOM     23  C   LIG    1        2.365  -2.300   0.208  0.00  0.00    -0.140 C 
ATOM     24  C   LIG    1        2.698  -3.078  -1.039  0.00  0.00    +0.080 C 
ENDBRANCH  21  23
ENDBRANCH  19  21
ENDBRANCH   1  19
BRANCH   5  25
ATOM     25  O   LIG    1       -0.079   5.203   0.124  0.00  0.00    -0.280 OA
BRANCH  25  26
ATOM     26  C   LIG    1       -1.362   5.832   0.158  0.00  0.00    +0.190 C 
BRANCH  26  27
ATOM     27  C   LIG    1       -1.185   7.351   0.183  0.00  0.00    +0.260 C 
ATOM     28  F   LIG    1       -0.597   7.772  -1.015  0.00  0.00    -0.210 F 
ENDBRANCH  26  27
ENDBRANCH  25  26
ENDBRANCH   5  25
TORSDOF 7
