REMARK  Name = ZINCrg00000OjuEp.0
REMARK                            x       y       z     vdW  Elec       q    Type
REMARK                         _______ _______ _______ _____ _____    ______ ____
ROOT
ATOM      1  C   LIG    1       -3.765   2.036  -0.144  0.00  0.00    +0.520 C 
ATOM      2  N   LIG    1       -4.005   3.204  -0.773  0.00  0.00    -0.720 N 
ATOM      3  H   LIG    1       -3.346   3.571  -1.383  0.00  0.00    +0.400 HD
ATOM      4  O   LIG    1       -4.589   1.578   0.619  0.00  0.00    -0.540 OA
ENDROOT
BRANCH   1  10
ATOM      5  C   LIG    1        2.309   0.045  -0.009  0.00  0.00    +0.560 A 
ATOM      6  N   LIG    1        1.173  -0.632  -0.004  0.00  0.00    -0.570 NA
ATOM      7  C   LIG    1        0.002  -0.004   0.002  0.00  0.00    +0.230 A 
ATOM      8  C   LIG    1       -0.017   1.374   0.010  0.00  0.00    -0.250 A 
ATOM      9  C   LIG    1       -1.292   2.170   0.034  0.00  0.00    +0.110 C 
ATOM     10  C   LIG    1       -2.474   1.299  -0.391  0.00  0.00    -0.010 C 
ATOM     11  C   LIG    1       -2.450   0.010   0.439  0.00  0.00    +0.070 C 
ATOM     12  C   LIG    1        1.195   2.056   0.002  0.00  0.00    +0.370 A 
ATOM     13  C   LIG    1       -1.255  -0.831  -0.006  0.00  0.00    +0.120 C 
ATOM     14  N   LIG    1        2.325   1.371  -0.007  0.00  0.00    -0.570 NA
BRANCH   5  15
ATOM     15  N   LIG    1        3.509  -0.645  -0.016  0.00  0.00    -0.820 N 
ATOM     16  H   LIG    1        4.348  -0.159  -0.019  0.00  0.00    +0.410 HD
ATOM     17  H   LIG    1        3.510  -1.615  -0.017  0.00  0.00    +0.410 HD
ENDBRANCH   5  15
ENDBRANCH   1  10
BRANCH   2  18
ATOM     18  C   LIG    1       -5.260   3.921  -0.534  0.00  0.00    +0.320 C 
BRANCH  18  19
ATOM     19  C   LIG    1       -5.279   5.187  -1.350  0.00  0.00    -0.090 A 
ATOM     20  C   LIG    1       -4.979   6.397  -0.757  0.00  0.00    +0.030 A 
ATOM     21  C   LIG    1       -4.991   7.559  -1.507  0.00  0.00    +0.010 A 
ATOM     22  C   LIG    1       -5.315   7.515  -2.850  0.00  0.00    +0.020 A 
ATOM     23  C   LIG    1       -5.621   6.309  -3.449  0.00  0.00    -0.030 A 
ATOM     24  C   LIG    1       -5.604   5.139  -2.700  0.00  0.00    +0.100 A 
BRANCH  24  25
ATOM     25  N   LIG    1       -5.914   3.918  -3.303  0.00  0.00    -0.490 N 
ATOM     26  C   LIG    1       -7.280   3.933  -3.857  0.00  0.00    +0.200 C 
ATOM     27  C   LIG    1       -7.168   3.595  -5.359  0.00  0.00    -0.020 C 
ATOM     28  C   LIG    1       -5.810   2.850  -5.449  0.00  0.00    +0.170 C 
ATOM     29  C   LIG    1       -4.966   3.610  -4.395  0.00  0.00    +0.210 C 
BRANCH  28  30
ATOM     30  O   LIG    1       -5.240   2.982  -6.752  0.00  0.00    -0.560 OA
ATOM     31  H   LIG    1       -5.782   2.605  -7.459  0.00  0.00    +0.380 HD
ENDBRANCH  28  30
ENDBRANCH  24  25
ENDBRANCH  18  19
ENDBRANCH   2  18
TORSDOF 6
