REMARK  Name = ZINCrH000004jWiw.0
REMARK                            x       y       z     vdW  Elec       q    Type
REMARK                         _______ _______ _______ _____ _____    ______ ____
ROOT
ATOM      1  C   LIG    1        0.491   4.322  -2.052  0.00  0.00    +0.290 C 
ATOM      2  N   LIG    1        1.677   3.790  -1.375  0.00  0.00    -0.630 N 
ATOM      3  C   LIG    1        2.858   3.745  -2.023  0.00  0.00    +0.710 C 
ATOM      4  N   LIG    1        2.948   4.189  -3.292  0.00  0.00    -0.740 N 
ATOM      5  H   LIG    1        2.163   4.541  -3.740  0.00  0.00    +0.400 HD
ATOM      6  O   LIG    1        3.842   3.303  -1.462  0.00  0.00    -0.580 OA
ENDROOT
BRANCH   4   7
ATOM      7  C   LIG    1        4.232   4.139  -3.996  0.00  0.00    +0.340 C 
BRANCH   7   8
ATOM      8  C   LIG    1        4.064   4.690  -5.388  0.00  0.00    -0.050 A 
ATOM      9  C   LIG    1        4.246   6.043  -5.643  0.00  0.00    -0.040 A 
ATOM     10  C   LIG    1        4.085   6.516  -6.930  0.00  0.00    +0.290 A 
ATOM     11  N   LIG    1        3.760   5.700  -7.915  0.00  0.00    -0.510 NA
ATOM     12  C   LIG    1        3.578   4.404  -7.712  0.00  0.00    +0.300 A 
ATOM     13  C   LIG    1        3.730   3.859  -6.442  0.00  0.00    -0.020 A 
BRANCH  12  14
ATOM     14  N   LIG    1        3.236   3.582  -8.779  0.00  0.00    -0.460 N 
ATOM     15  C   LIG    1        1.901   2.966  -8.571  0.00  0.00    +0.180 C 
ATOM     16  C   LIG    1        1.474   2.553 -10.002  0.00  0.00    +0.040 C 
ATOM     17  C   LIG    1        2.012   3.712 -10.872  0.00  0.00    +0.020 C 
ATOM     18  C   LIG    1        3.132   4.357 -10.034  0.00  0.00    +0.200 C 
ENDBRANCH  12  14
ENDBRANCH   7   8
ENDBRANCH   4   7
BRANCH   2  19
ATOM     19  C   LIG    1        1.578   3.308   0.004  0.00  0.00    +0.430 C 
BRANCH  19  20
ATOM     20  C   LIG    1        1.233   1.841   0.000  0.00  0.00    +0.000 A 
ATOM     21  C   LIG    1        2.127   0.843  -0.014  0.00  0.00    -0.010 A 
ATOM     22  C   LIG    1        1.349  -0.403  -0.013  0.00  0.00    -0.130 A 
ATOM     23  C   LIG    1        1.679  -1.757  -0.023  0.00  0.00    +0.060 A 
ATOM     24  C   LIG    1        0.676  -2.701  -0.018  0.00  0.00    -0.010 A 
ATOM     25  C   LIG    1       -0.654  -2.309  -0.003  0.00  0.00    +0.050 A 
ATOM     26  C   LIG    1       -0.994  -0.972   0.007  0.00  0.00    +0.020 A 
ATOM     27  C   LIG    1        0.002  -0.004   0.002  0.00  0.00    +0.060 A 
ATOM     28  O   LIG    1       -0.016   1.344   0.009  0.00  0.00    -0.190 OA
ENDBRANCH  19  20
ENDBRANCH   2  19
TORSDOF 5
