REMARK  Name = ZINCpk00000xQUvJ.1
REMARK                            x       y       z     vdW  Elec       q    Type
REMARK                         _______ _______ _______ _____ _____    ______ ____
ROOT
ATOM      1  N   LIG    1       -0.811  -4.739  -1.304  0.00  0.00    -0.500 N 
ATOM      2  C   LIG    1        0.643  -4.942  -1.344  0.00  0.00    +0.200 C 
ATOM      3  C   LIG    1        1.286  -4.248  -0.138  0.00  0.00    +0.290 C 
ATOM      4  N   LIG    1        0.855  -2.842  -0.124  0.00  0.00    -0.600 N 
ATOM      5  C   LIG    1       -0.585  -2.555  -0.214  0.00  0.00    +0.310 C 
ATOM      6  C   LIG    1        1.754  -1.843  -0.025  0.00  0.00    +0.590 C 
ATOM      7  O   LIG    1        1.376  -0.692   0.077  0.00  0.00    -0.510 OA
ATOM      8  C   LIG    1       -1.153  -3.315  -1.422  0.00  0.00    +0.200 C 
ENDROOT
BRANCH   6   9
ATOM      9  C   LIG    1        3.194  -2.147  -0.040  0.00  0.00    +0.020 A 
ATOM     10  C   LIG    1        3.939  -2.671   0.991  0.00  0.00    -0.220 A 
ATOM     11  C   LIG    1        3.954  -3.176   2.410  0.00  0.00    +0.310 C 
ATOM     12  O   LIG    1        5.333  -3.164   2.822  0.00  0.00    -0.350 OA
ATOM     13  C   LIG    1        6.088  -3.353   1.612  0.00  0.00    +0.340 C 
ATOM     14  C   LIG    1        5.246  -2.777   0.498  0.00  0.00    -0.010 A 
ATOM     15  N   LIG    1        5.240  -2.340  -0.732  0.00  0.00    -0.230 NA
ATOM     16  N   LIG    1        4.062  -1.964  -1.082  0.00  0.00    -0.370 N 
ATOM     17  H   LIG    1        3.824  -1.605  -1.951  0.00  0.00    +0.450 HD
ENDBRANCH   6   9
BRANCH   1  21
ATOM     18  C   LIG    1       -2.713  -6.982  -4.254  0.00  0.00    +0.010 A 
ATOM     19  C   LIG    1       -1.764  -6.019  -4.608  0.00  0.00    +0.070 A 
ATOM     20  C   LIG    1       -1.138  -5.279  -3.630  0.00  0.00    +0.020 A 
ATOM     21  C   LIG    1       -1.447  -5.489  -2.291  0.00  0.00    +0.080 A 
ATOM     22  C   LIG    1       -2.389  -6.452  -1.933  0.00  0.00    +0.130 A 
ATOM     23  F   LIG    1       -2.683  -6.658  -0.630  0.00  0.00    -0.120 F 
ATOM     24  C   LIG    1       -3.024  -7.192  -2.907  0.00  0.00    +0.050 A 
BRANCH  18  26
ATOM     25  N   LIG    1       -3.884  -8.364  -6.075  0.00  0.00    -0.400 NA
ATOM     26  C   LIG    1       -3.366  -7.753  -5.270  0.00  0.00    +0.250 C 
ENDBRANCH  18  26
ENDBRANCH   1  21
TORSDOF 3
