REMARK  Name = ZINCpk00000xQUvJ.0
REMARK                            x       y       z     vdW  Elec       q    Type
REMARK                         _______ _______ _______ _____ _____    ______ ____
ROOT
ATOM      1  N   LIG    1        0.307   1.371  -0.595  0.00  0.00    -0.500 N 
ATOM      2  C   LIG    1        1.619   1.971  -0.318  0.00  0.00    +0.200 C 
ATOM      3  C   LIG    1        2.080   1.559   1.084  0.00  0.00    +0.300 C 
ATOM      4  N   LIG    1        2.036   0.092   1.178  0.00  0.00    -0.600 N 
ATOM      5  C   LIG    1        0.795  -0.594   0.784  0.00  0.00    +0.310 C 
ATOM      6  C   LIG    1        3.103  -0.606   1.613  0.00  0.00    +0.600 C 
ATOM      7  O   LIG    1        4.159  -0.038   1.818  0.00  0.00    -0.520 OA
ATOM      8  C   LIG    1        0.384  -0.096  -0.606  0.00  0.00    +0.190 C 
ENDROOT
BRANCH   6   9
ATOM      9  C   LIG    1        2.991  -2.062   1.841  0.00  0.00    +0.030 A 
ATOM     10  N   LIG    1        1.889  -2.784   1.778  0.00  0.00    -0.250 NA
ATOM     11  N   LIG    1        2.156  -4.017   2.028  0.00  0.00    -0.340 N 
ATOM     12  H   LIG    1        1.504  -4.735   2.037  0.00  0.00    +0.450 HD
ATOM     13  C   LIG    1        3.471  -4.168   2.282  0.00  0.00    -0.040 A 
ATOM     14  C   LIG    1        4.563  -5.147   2.639  0.00  0.00    +0.330 C 
ATOM     15  O   LIG    1        5.803  -4.492   2.315  0.00  0.00    -0.350 OA
ATOM     16  C   LIG    1        5.513  -3.088   2.452  0.00  0.00    +0.320 C 
ATOM     17  C   LIG    1        4.040  -2.942   2.172  0.00  0.00    -0.190 A 
ENDBRANCH   6   9
BRANCH   1  21
ATOM     18  C   LIG    1       -1.269   2.809  -4.173  0.00  0.00    +0.000 A 
ATOM     19  C   LIG    1       -0.093   2.055  -4.178  0.00  0.00    +0.070 A 
ATOM     20  C   LIG    1        0.425   1.581  -2.993  0.00  0.00    +0.020 A 
ATOM     21  C   LIG    1       -0.220   1.852  -1.791  0.00  0.00    +0.080 A 
ATOM     22  C   LIG    1       -1.396   2.599  -1.782  0.00  0.00    +0.130 A 
ATOM     23  F   LIG    1       -2.024   2.857  -0.614  0.00  0.00    -0.120 F 
ATOM     24  C   LIG    1       -1.917   3.081  -2.964  0.00  0.00    +0.050 A 
BRANCH  18  26
ATOM     25  N   LIG    1       -2.239   3.695  -6.380  0.00  0.00    -0.400 NA
ATOM     26  C   LIG    1       -1.810   3.303  -5.403  0.00  0.00    +0.250 C 
ENDBRANCH  18  26
ENDBRANCH   1  21
TORSDOF 3
