REMARK  Name = ZINCrH00000No56M.0
REMARK                            x       y       z     vdW  Elec       q    Type
REMARK                         _______ _______ _______ _____ _____    ______ ____
ROOT
ATOM      1  O   LIG    1       -3.567  -2.302   0.256  0.00  0.00    -0.510 OA
ATOM      2  C   LIG    1       -2.502  -2.878   0.140  0.00  0.00    +0.550 C 
ATOM      3  N   LIG    1       -2.475  -4.205  -0.098  0.00  0.00    -0.600 N 
ENDROOT
BRANCH   3   4
ATOM      4  C   LIG    1       -1.197  -4.920  -0.114  0.00  0.00    +0.270 C 
ATOM      5  C   LIG    1       -0.458  -4.711   1.219  0.00  0.00    +0.060 C 
ATOM      6  C   LIG    1        1.003  -5.175   1.052  0.00  0.00    -0.290 C 
ATOM      7  S   LIG    1        1.378  -4.942  -0.723  0.00  0.00    +2.380 S 
ATOM      8  O   LIG    1        2.321  -3.889  -0.870  0.00  0.00    -0.930 OA
ATOM      9  O   LIG    1        1.625  -6.206  -1.322  0.00  0.00    -0.920 OA
ATOM     10  C   LIG    1       -0.281  -4.346  -1.225  0.00  0.00    -0.330 C 
ENDBRANCH   3   4
BRANCH   2  11
ATOM     11  C   LIG    1       -1.248  -2.131   0.257  0.00  0.00    -0.110 C 
ATOM     12  C   LIG    1       -1.274  -0.789   0.391  0.00  0.00    +0.140 C 
BRANCH  12  13
ATOM     13  C   LIG    1       -0.014  -0.037   0.509  0.00  0.00    -0.080 A 
ATOM     14  C   LIG    1       -0.036   1.354   0.648  0.00  0.00    +0.060 A 
ATOM     15  C   LIG    1        1.147   2.051   0.759  0.00  0.00    +0.030 A 
ATOM     16  C   LIG    1        2.357   1.377   0.732  0.00  0.00    -0.020 A 
ATOM     17  C   LIG    1        2.387  -0.001   0.594  0.00  0.00    +0.030 A 
ATOM     18 CL   LIG    1        3.844   2.264   0.872  0.00  0.00    -0.060 Cl
ATOM     19  C   LIG    1        1.211  -0.711   0.483  0.00  0.00    +0.040 A 
ENDBRANCH  12  13
ENDBRANCH   2  11
BRANCH   3  20
ATOM     20  C   LIG    1       -3.724  -4.931  -0.339  0.00  0.00    +0.360 C 
BRANCH  20  21
ATOM     21  C   LIG    1       -4.030  -4.928  -1.814  0.00  0.00    -0.150 A 
ATOM     22  C   LIG    1       -3.833  -6.072  -2.563  0.00  0.00    +0.050 A 
ATOM     23  C   LIG    1       -4.113  -6.070  -3.917  0.00  0.00    +0.000 A 
ATOM     24  C   LIG    1       -4.590  -4.923  -4.523  0.00  0.00    +0.050 A 
ATOM     25  C   LIG    1       -4.789  -3.777  -3.776  0.00  0.00    -0.030 A 
ATOM     26  C   LIG    1       -4.514  -3.780  -2.420  0.00  0.00    +0.120 A 
ATOM     27  F   LIG    1       -4.713  -2.662  -1.687  0.00  0.00    -0.120 F 
ENDBRANCH  20  21
ENDBRANCH   3  20
TORSDOF 5
