REMARK  Name = ZINCkj00000hdsis.0
REMARK                            x       y       z     vdW  Elec       q    Type
REMARK                         _______ _______ _______ _____ _____    ______ ____
ROOT
ATOM      1  C   LIG    1       -3.774   4.187   3.861  0.00  0.00    +0.310 C 
ENDROOT
BRANCH   1   2
ATOM      2  C   LIG    1       -3.260   4.540   5.258  0.00  0.00    +0.170 C 
ATOM      3  C   LIG    1       -4.443   4.665   6.219  0.00  0.00    +0.070 C 
ATOM      4  C   LIG    1       -3.924   5.019   7.616  0.00  0.00    +0.040 C 
ATOM      5  C   LIG    1       -2.924   3.949   8.064  0.00  0.00    +0.060 C 
ATOM      6  C   LIG    1       -1.796   3.850   7.034  0.00  0.00    +0.270 C 
ATOM      7  N   LIG    1       -2.354   3.484   5.726  0.00  0.00    -0.380 N 
ATOM      8  H   LIG    1       -1.603   3.367   5.062  0.00  0.00    +0.410 HD
BRANCH   7   9
ATOM      9  C   LIG    1       -3.096   2.222   5.848  0.00  0.00    +0.270 C 
BRANCH   9  10
ATOM     10  C   LIG    1       -2.123   1.087   6.172  0.00  0.00    +0.220 C 
BRANCH  10  11
ATOM     11  O   LIG    1       -1.604   1.266   7.491  0.00  0.00    -0.570 OA
ATOM     12  H   LIG    1       -0.979   0.581   7.764  0.00  0.00    +0.410 HD
ENDBRANCH  10  11
ENDBRANCH   9  10
ENDBRANCH   7   9
ENDBRANCH   1   2
BRANCH   1  15
ATOM     13  O   LIG    1       -3.983   3.525   1.256  0.00  0.00    -0.500 OA
ATOM     14  C   LIG    1       -2.850   3.626   1.677  0.00  0.00    +0.530 C 
ATOM     15  N   LIG    1       -2.637   3.953   2.967  0.00  0.00    -0.750 N 
ATOM     16  H   LIG    1       -1.731   4.034   3.303  0.00  0.00    +0.390 HD
BRANCH  14  17
ATOM     17  C   LIG    1       -1.681   3.385   0.757  0.00  0.00    +0.000 C 
ATOM     18  C   LIG    1       -2.168   3.025  -0.668  0.00  0.00    +0.080 C 
ATOM     19  C   LIG    1       -0.991   2.240  -1.284  0.00  0.00    +0.040 C 
ATOM     20  C   LIG    1       -0.185   1.663  -0.107  0.00  0.00    +0.290 C 
ATOM     21  F   LIG    1        1.122   2.160  -0.132  0.00  0.00    -0.190 F 
ATOM     22  F   LIG    1       -0.167   0.266  -0.179  0.00  0.00    -0.190 F 
ATOM     23  C   LIG    1       -0.899   2.116   1.183  0.00  0.00    +0.050 C 
ENDBRANCH  14  17
ENDBRANCH   1  15
TORSDOF 6
