REMARK  Name = ZINCkj00000hdsis.1
REMARK                            x       y       z     vdW  Elec       q    Type
REMARK                         _______ _______ _______ _____ _____    ______ ____
ROOT
ATOM      1  C   LIG    1       -2.834   3.048  -2.428  0.00  0.00    +0.300 C 
ENDROOT
BRANCH   1   2
ATOM      2  C   LIG    1       -1.387   3.543  -2.471  0.00  0.00    +0.170 C 
ATOM      3  C   LIG    1       -1.374   5.065  -2.629  0.00  0.00    +0.070 C 
ATOM      4  C   LIG    1        0.076   5.556  -2.671  0.00  0.00    +0.050 C 
ATOM      5  C   LIG    1        0.797   5.098  -1.400  0.00  0.00    +0.060 C 
ATOM      6  C   LIG    1        0.703   3.575  -1.288  0.00  0.00    +0.250 C 
ATOM      7  N   LIG    1       -0.707   3.171  -1.225  0.00  0.00    -0.380 N 
ATOM      8  H   LIG    1       -1.154   3.635  -0.448  0.00  0.00    +0.420 HD
BRANCH   7   9
ATOM      9  C   LIG    1       -0.790   1.716  -1.039  0.00  0.00    +0.280 C 
BRANCH   9  10
ATOM     10  C   LIG    1       -0.215   1.344   0.330  0.00  0.00    +0.220 C 
BRANCH  10  11
ATOM     11  O   LIG    1       -1.034   1.904   1.359  0.00  0.00    -0.580 OA
ATOM     12  H   LIG    1       -0.728   1.707   2.255  0.00  0.00    +0.410 HD
ENDBRANCH  10  11
ENDBRANCH   9  10
ENDBRANCH   7   9
ENDBRANCH   1   2
BRANCH   1  15
ATOM     13  O   LIG    1       -5.329   2.392  -1.646  0.00  0.00    -0.510 OA
ATOM     14  C   LIG    1       -4.742   3.163  -0.917  0.00  0.00    +0.530 C 
ATOM     15  N   LIG    1       -3.488   3.555  -1.219  0.00  0.00    -0.750 N 
ATOM     16  H   LIG    1       -3.019   4.172  -0.636  0.00  0.00    +0.400 HD
BRANCH  14  17
ATOM     17  C   LIG    1       -5.415   3.684   0.327  0.00  0.00    +0.010 C 
ATOM     18  C   LIG    1       -6.836   3.098   0.458  0.00  0.00    +0.080 C 
ATOM     19  C   LIG    1       -7.726   4.223   1.016  0.00  0.00    +0.030 C 
ATOM     20  C   LIG    1       -6.814   5.453   1.205  0.00  0.00    +0.280 C 
ATOM     21  F   LIG    1       -6.345   5.518   2.521  0.00  0.00    -0.190 F 
ATOM     22  F   LIG    1       -7.500   6.626   0.873  0.00  0.00    -0.190 F 
ATOM     23  C   LIG    1       -5.643   5.213   0.220  0.00  0.00    +0.060 C 
ENDBRANCH  14  17
ENDBRANCH   1  15
TORSDOF 6
