REMARK  Name = ZINCrD0000073N7m.0
REMARK                            x       y       z     vdW  Elec       q    Type
REMARK                         _______ _______ _______ _____ _____    ______ ____
ROOT
ATOM      1  C   LIG    1        2.550   5.647   0.353  0.00  0.00    +0.310 C 
ENDROOT
BRANCH   1   4
ATOM      2  N   LIG    1        4.165   7.518   0.259  0.00  0.00    -0.670 N 
ATOM      3  H   LIG    1        3.414   8.130   0.308  0.00  0.00    +0.420 HD
ATOM      4  C   LIG    1        3.956   6.188   0.322  0.00  0.00    +0.510 C 
ATOM      5  O   LIG    1        4.900   5.427   0.354  0.00  0.00    -0.500 OA
BRANCH   2   9
ATOM      6  C   LIG    1        8.037   9.001  -0.149  0.00  0.00    -0.680 A 
ATOM      7  C   LIG    1        7.693   7.799  -0.739  0.00  0.00    +0.150 A 
ATOM      8  C   LIG    1        6.411   7.304  -0.605  0.00  0.00    +0.000 A 
ATOM      9  C   LIG    1        5.466   8.016   0.122  0.00  0.00    +0.200 A 
ATOM     10  C   LIG    1        5.813   9.226   0.708  0.00  0.00    -0.030 A 
ATOM     11  C   LIG    1        7.098   9.713   0.576  0.00  0.00    +0.150 A 
BRANCH   6  13
ATOM     12  C   LIG    1        9.614  10.643  -1.825  0.00  0.00    -0.260 C 
ATOM     13  S   LIG    1        9.675   9.629  -0.322  0.00  0.00    +2.500 S 
ATOM     14  O   LIG    1       10.473   8.472  -0.532  0.00  0.00    -0.940 OA
ATOM     15  O   LIG    1        9.859  10.447   0.825  0.00  0.00    -0.940 OA
ENDBRANCH   6  13
ENDBRANCH   2   9
ENDBRANCH   1   4
BRANCH   1  16
ATOM     16  N   LIG    1        2.591   4.184   0.421  0.00  0.00    -0.730 N 
ATOM     17  H   LIG    1        3.445   3.723   0.440  0.00  0.00    +0.420 HD
BRANCH  16  18
ATOM     18  C   LIG    1        1.399   3.451   0.460  0.00  0.00    +0.220 A 
ATOM     19  C   LIG    1        0.179   4.102   0.356  0.00  0.00    -0.050 A 
ATOM     20  C   LIG    1       -0.998   3.376   0.394  0.00  0.00    -0.000 A 
ATOM     21  C   LIG    1       -0.962   2.000   0.531  0.00  0.00    -0.010 A 
ATOM     22  C   LIG    1        0.251   1.344   0.641  0.00  0.00    +0.030 A 
ATOM     23 CL   LIG    1       -2.524   4.193   0.264  0.00  0.00    -0.070 Cl
ATOM     24  C   LIG    1        1.435   2.064   0.603  0.00  0.00    +0.040 A 
BRANCH  24  25
ATOM     25  N   LIG    1        2.664   1.401   0.709  0.00  0.00    -0.470 N 
ATOM     26  C   LIG    1        2.466  -0.056   0.924  0.00  0.00    +0.180 C 
ATOM     27  C   LIG    1        3.824  -0.665   0.494  0.00  0.00    +0.040 C 
ATOM     28  C   LIG    1        4.227   0.208  -0.716  0.00  0.00    +0.020 C 
ATOM     29  C   LIG    1        3.440   1.521  -0.545  0.00  0.00    +0.170 C 
ENDBRANCH  24  25
ENDBRANCH  16  18
ENDBRANCH   1  16
TORSDOF 6
