REMARK  Name = ZINCqH00000359od.0
REMARK                            x       y       z     vdW  Elec       q    Type
REMARK                         _______ _______ _______ _____ _____    ______ ____
ROOT
ATOM      1  C   LIG    1        2.628   5.168  -3.507  0.00  0.00    -0.130 A 
ATOM      2  C   LIG    1        3.591   4.248  -3.926  0.00  0.00    +0.080 A 
ATOM      3  C   LIG    1        3.705   3.039  -3.278  0.00  0.00    +0.010 A 
ATOM      4  C   LIG    1        2.871   2.721  -2.211  0.00  0.00    -0.030 A 
ATOM      5  C   LIG    1        3.042   1.366  -1.576  0.00  0.00    +0.090 C 
ATOM      6  C   LIG    1        2.435   1.343  -0.168  0.00  0.00    +0.300 C 
ATOM      7  N   LIG    1        1.091   1.938  -0.253  0.00  0.00    -0.610 N 
ATOM      8  C   LIG    1        1.003   3.354  -0.626  0.00  0.00    +0.350 C 
ATOM      9  C   LIG    1       -0.014   1.212   0.009  0.00  0.00    +0.610 C 
ATOM     10  O   LIG    1        0.076   0.015   0.202  0.00  0.00    -0.510 OA
ATOM     11  C   LIG    1        1.925   3.631  -1.788  0.00  0.00    -0.110 A 
ATOM     12  C   LIG    1        1.798   4.849  -2.434  0.00  0.00    +0.100 A 
ENDROOT
BRANCH   9  13
ATOM     13  C   LIG    1       -1.330   1.867   0.055  0.00  0.00    -0.050 A 
ATOM     14  C   LIG    1       -2.520   1.222   0.157  0.00  0.00    -0.070 A 
ATOM     15  C   LIG    1       -3.546   2.264   0.170  0.00  0.00    -0.140 A 
ATOM     16  C   LIG    1       -4.940   2.258   0.256  0.00  0.00    +0.070 A 
ATOM     17  C   LIG    1       -5.625   3.440   0.235  0.00  0.00    -0.010 A 
ATOM     18  C   LIG    1       -4.946   4.645   0.128  0.00  0.00    +0.060 A 
ATOM     19  C   LIG    1       -3.570   4.673   0.042  0.00  0.00    +0.030 A 
ATOM     20  C   LIG    1       -2.851   3.484   0.061  0.00  0.00    +0.070 A 
ATOM     21  C   LIG    1       -2.740  -0.267   0.243  0.00  0.00    +0.150 C 
ATOM     22  O   LIG    1       -1.536   3.199  -0.004  0.00  0.00    -0.180 OA
ENDBRANCH   9  13
BRANCH   1  23
ATOM     23  C   LIG    1        2.489   6.467  -4.197  0.00  0.00    +0.510 C 
ATOM     24  O   LIG    1        1.648   7.263  -3.828  0.00  0.00    -0.500 OA
BRANCH  23  26
ATOM     25  C   LIG    1        3.100   8.063  -5.863  0.00  0.00    +0.280 C 
ATOM     26  O   LIG    1        3.293   6.769  -5.234  0.00  0.00    -0.350 OA
ENDBRANCH  23  26
ENDBRANCH   1  23
TORSDOF 3
