REMARK  Name = ZINCpe000027pHc2.0
REMARK                            x       y       z     vdW  Elec       q    Type
REMARK                         _______ _______ _______ _____ _____    ______ ____
ROOT
ATOM      1  C   LIG    1        0.018   1.170   0.023  0.00  0.00    +0.400 C 
ENDROOT
BRANCH   1   5
ATOM      2  C   LIG    1       -2.331   2.134   3.458  0.00  0.00    -0.090 A 
ATOM      3  C   LIG    1       -2.431   0.882   2.881  0.00  0.00    +0.050 A 
ATOM      4  C   LIG    1       -1.671   0.570   1.770  0.00  0.00    +0.040 A 
ATOM      5  C   LIG    1       -0.811   1.510   1.235  0.00  0.00    -0.120 A 
ATOM      6  C   LIG    1       -0.707   2.761   1.815  0.00  0.00    +0.030 A 
ATOM      7  C   LIG    1       -1.470   3.075   2.924  0.00  0.00    +0.030 A 
BRANCH   2   8
ATOM      8  C   LIG    1       -3.159   2.474   4.670  0.00  0.00    +0.380 C 
BRANCH   8  11
ATOM      9  C   LIG    1       -1.435   2.253   7.829  0.00  0.00    -0.120 A 
ATOM     10  C   LIG    1       -2.128   2.958   6.905  0.00  0.00    +0.220 A 
ATOM     11  N   LIG    1       -2.417   2.125   5.884  0.00  0.00    -0.370 N 
ATOM     12  N   LIG    1       -1.875   0.869   6.186  0.00  0.00    -0.290 NA
ATOM     13  C   LIG    1       -1.287   0.947   7.352  0.00  0.00    +0.230 A 
ENDBRANCH   8  11
ENDBRANCH   2   8
ENDBRANCH   1   5
BRANCH   1  14
ATOM     14  N   LIG    1       -0.760   1.432  -1.190  0.00  0.00    -0.300 N 
ATOM     15  N   LIG    1       -1.595   0.626  -1.754  0.00  0.00    -0.080 NA
ATOM     16  N   LIG    1       -2.086   1.200  -2.797  0.00  0.00    -0.070 NA
ATOM     17  N   LIG    1       -1.577   2.378  -2.917  0.00  0.00    -0.290 NA
ATOM     18  C   LIG    1       -0.743   2.562  -1.922  0.00  0.00    +0.180 A 
BRANCH  18  19
ATOM     19  C   LIG    1        0.078   3.796  -1.653  0.00  0.00    +0.180 C 
BRANCH  19  20
ATOM     20  C   LIG    1        1.374   3.733  -2.463  0.00  0.00    +0.340 C 
BRANCH  20  21
ATOM     21  N   LIG    1        2.124   4.979  -2.283  0.00  0.00    -0.300 N 
ATOM     22  C   LIG    1        3.403   5.080  -1.854  0.00  0.00    +0.140 A 
ATOM     23  C   LIG    1        3.692   6.402  -1.837  0.00  0.00    +0.140 A 
ATOM     24  N   LIG    1        2.588   7.037  -2.244  0.00  0.00    -0.260 NA
ATOM     25  N   LIG    1        1.677   6.166  -2.500  0.00  0.00    -0.080 NA
ENDBRANCH  20  21
ENDBRANCH  19  20
ENDBRANCH  18  19
ENDBRANCH   1  14
TORSDOF 7
