REMARK  Name = ZINCpk00000xI3Pb.0
REMARK                            x       y       z     vdW  Elec       q    Type
REMARK                         _______ _______ _______ _____ _____    ______ ____
ROOT
ATOM      1  C   LIG    1       -0.219   3.987   0.025  0.00  0.00    +0.270 C 
ENDROOT
BRANCH   1   2
ATOM      2  C   LIG    1       -0.060   5.486   0.031  0.00  0.00    +0.520 C 
ATOM      3  N   LIG    1       -1.150   6.279   0.045  0.00  0.00    -0.720 N 
ATOM      4  H   LIG    1       -2.036   5.885   0.051  0.00  0.00    +0.410 HD
ATOM      5  O   LIG    1        1.048   5.979   0.023  0.00  0.00    -0.510 OA
BRANCH   3   6
ATOM      6  C   LIG    1       -0.996   7.736   0.051  0.00  0.00    +0.270 C 
BRANCH   6   7
ATOM      7  C   LIG    1       -2.377   8.395   0.067  0.00  0.00    +0.300 C 
BRANCH   7   8
ATOM      8  N   LIG    1       -2.223   9.851   0.073  0.00  0.00    -0.570 N 
ATOM      9  C   LIG    1       -2.165  10.502  -1.077  0.00  0.00    +0.530 C 
ATOM     10  C   LIG    1       -2.006  11.999  -0.924  0.00  0.00    +0.180 C 
ATOM     11  S   LIG    1       -1.964  12.225   0.886  0.00  0.00    -0.110 S 
ATOM     12  O   LIG    1       -2.233   9.950  -2.154  0.00  0.00    -0.450 OA
ATOM     13  C   LIG    1       -2.148  10.497   1.239  0.00  0.00    +0.540 C 
ATOM     14  O   LIG    1       -2.196   9.991   2.343  0.00  0.00    -0.420 OA
ENDBRANCH   7   8
ENDBRANCH   6   7
ENDBRANCH   3   6
ENDBRANCH   1   2
BRANCH   1  15
ATOM     15  O   LIG    1        1.071   3.372   0.009  0.00  0.00    -0.270 OA
BRANCH  15  20
ATOM     16  C   LIG    1        6.120   1.200  -0.051  0.00  0.00    +0.150 C 
ATOM     17  C   LIG    1        4.641   0.912  -0.038  0.00  0.00    -0.180 A 
ATOM     18  C   LIG    1        3.703   1.839  -0.024  0.00  0.00    -0.060 A 
ATOM     19  C   LIG    1        2.344   1.331  -0.013  0.00  0.00    -0.180 A 
ATOM     20  C   LIG    1        1.106   2.018   0.002  0.00  0.00    +0.420 A 
ATOM     21  N   LIG    1       -0.016   1.317   0.009  0.00  0.00    -0.580 NA
ATOM     22  C   LIG    1        0.002  -0.004   0.002  0.00  0.00    +0.560 A 
ATOM     23  N   LIG    1        1.123  -0.688  -0.012  0.00  0.00    -0.510 NA
ATOM     24  C   LIG    1        2.308  -0.067  -0.020  0.00  0.00    +0.110 A 
ATOM     25  C   LIG    1        4.019   3.313  -0.019  0.00  0.00    +0.130 C 
ATOM     26  S   LIG    1        3.948  -0.699  -0.040  0.00  0.00    +0.180 S 
ENDBRANCH  15  20
ENDBRANCH   1  15
TORSDOF 6
