REMARK  Name = ZINCnE000008J2T2.0
REMARK                            x       y       z     vdW  Elec       q    Type
REMARK                         _______ _______ _______ _____ _____    ______ ____
ROOT
ATOM      1  C   LIG    1        2.642   9.288   0.599  0.00  0.00    +0.210 A 
ATOM      2  N   LIG    1        2.613   9.213  -0.706  0.00  0.00    -0.380 NA
ATOM      3  O   LIG    1        2.379   8.075  -1.052  0.00  0.00    +0.080 OA
ATOM      4  C   LIG    1        2.223   7.292   0.020  0.00  0.00    +0.220 A 
ATOM      5  N   LIG    1        2.390   8.049   1.076  0.00  0.00    -0.470 NA
ENDROOT
BRANCH   1  10
ATOM      6  C   LIG    1        3.653  14.017   3.729  0.00  0.00    +0.090 C 
ATOM      7  C   LIG    1        3.388  12.780   2.910  0.00  0.00    -0.070 A 
ATOM      8  C   LIG    1        3.390  12.854   1.529  0.00  0.00    +0.010 A 
ATOM      9  C   LIG    1        3.148  11.724   0.774  0.00  0.00    +0.050 A 
ATOM     10  C   LIG    1        2.903  10.507   1.406  0.00  0.00    -0.020 A 
ATOM     11  C   LIG    1        2.897  10.438   2.797  0.00  0.00    +0.070 A 
ATOM     12  C   LIG    1        3.145  11.573   3.542  0.00  0.00    +0.010 A 
ENDBRANCH   1  10
BRANCH   4  13
ATOM     13  C   LIG    1        1.918   5.816   0.015  0.00  0.00    +0.150 C 
BRANCH  13  14
ATOM     14  S   LIG    1        0.125   5.571   0.031  0.00  0.00    +0.120 S 
BRANCH  14  15
ATOM     15  C   LIG    1        0.057   3.810   0.022  0.00  0.00    +0.120 A 
ATOM     16  N   LIG    1        1.180   3.107   0.007  0.00  0.00    -0.510 NA
ATOM     17  C   LIG    1        1.174   1.789   0.001  0.00  0.00    +0.250 A 
ATOM     18  C   LIG    1       -0.013   1.076   0.008  0.00  0.00    -0.070 A 
ATOM     19  C   LIG    1       -1.217   1.756   0.017  0.00  0.00    +0.110 A 
ATOM     20  C   LIG    1       -1.190   3.157   0.031  0.00  0.00    -0.170 A 
BRANCH  20  21
ATOM     21  C   LIG    1       -2.440   3.929   0.048  0.00  0.00    +0.520 C 
ATOM     22  O   LIG    1       -2.404   5.153   0.054  0.00  0.00    -0.650 OA
ATOM     23  O   LIG    1       -3.518   3.350   0.055  0.00  0.00    -0.670 OA
ENDBRANCH  20  21
ENDBRANCH  14  15
ENDBRANCH  13  14
ENDBRANCH   4  13
TORSDOF 5
