REMARK  Name = ZINCvU0000000Cul.0
REMARK                            x       y       z     vdW  Elec       q    Type
REMARK                         _______ _______ _______ _____ _____    ______ ____
ROOT
ATOM      1  N   LIG    1       -3.523   3.156   0.892  0.00  0.00    -0.500 N 
ATOM      2  C   LIG    1       -4.569   2.799   0.119  0.00  0.00    +0.570 C 
ATOM      3  C   LIG    1       -4.354   3.251  -1.265  0.00  0.00    +0.090 A 
ATOM      4  C   LIG    1       -3.147   3.893  -1.325  0.00  0.00    -0.220 A 
ATOM      5  C   LIG    1       -2.647   4.452  -2.585  0.00  0.00    +0.460 A 
ATOM      6  C   LIG    1       -3.447   4.054  -3.770  0.00  0.00    -0.200 A 
ATOM      7  C   LIG    1       -2.990   4.335  -5.057  0.00  0.00    +0.140 A 
ATOM      8  C   LIG    1       -3.743   3.953  -6.146  0.00  0.00    -0.060 A 
ATOM      9  C   LIG    1       -4.950   3.292  -5.960  0.00  0.00    +0.120 A 
ATOM     10  C   LIG    1       -5.412   3.011  -4.694  0.00  0.00    +0.040 A 
ATOM     11 CL   LIG    1       -3.183   4.300  -7.753  0.00  0.00    -0.040 Cl
ATOM     12  C   LIG    1       -4.669   3.389  -3.576  0.00  0.00    +0.150 A 
ATOM     13  O   LIG    1       -1.668   5.174  -2.652  0.00  0.00    -0.410 OA
ATOM     14  O   LIG    1       -5.153   3.106  -2.341  0.00  0.00    -0.170 OA
ATOM     15  O   LIG    1       -5.548   2.193   0.509  0.00  0.00    -0.450 OA
ATOM     16  C   LIG    1       -2.553   3.869   0.045  0.00  0.00    +0.380 C 
ENDROOT
BRANCH   1  21
ATOM     17  C   LIG    1       -3.700   1.804   6.052  0.00  0.00    +0.220 C 
ATOM     18  C   LIG    1       -3.459   2.274   4.640  0.00  0.00    +0.010 A 
ATOM     19  N   LIG    1       -2.420   2.919   4.218  0.00  0.00    -0.240 NA
ATOM     20  N   LIG    1       -2.377   3.238   2.999  0.00  0.00    -0.270 NA
ATOM     21  C   LIG    1       -3.386   2.895   2.249  0.00  0.00    +0.260 A 
ATOM     22  S   LIG    1       -4.549   2.047   3.271  0.00  0.00    +0.140 S 
ENDBRANCH   1  21
BRANCH  16  23
ATOM     23  C   LIG    1       -1.238   3.133   0.029  0.00  0.00    -0.100 A 
ATOM     24  C   LIG    1       -1.219   1.751   0.017  0.00  0.00    +0.010 A 
ATOM     25  C   LIG    1       -0.013   1.076   0.008  0.00  0.00    +0.000 A 
ATOM     26  C   LIG    1        1.175   1.783   0.000  0.00  0.00    -0.060 A 
ATOM     27  C   LIG    1        1.156   3.165   0.008  0.00  0.00    +0.020 A 
ATOM     28  C   LIG    1       -0.050   3.840   0.022  0.00  0.00    +0.060 A 
BRANCH  26  29
ATOM     29  C   LIG    1        2.490   1.048  -0.016  0.00  0.00    +0.020 C 
ATOM     30  C   LIG    1        3.299   1.422   1.228  0.00  0.00    +0.040 C 
ATOM     31  C   LIG    1        3.276   1.434  -1.270  0.00  0.00    +0.040 C 
ENDBRANCH  26  29
ENDBRANCH  16  23
TORSDOF 3
