REMARK  Name = ZINCqH0000004N5A.0
REMARK                            x       y       z     vdW  Elec       q    Type
REMARK                         _______ _______ _______ _____ _____    ______ ____
ROOT
ATOM      1  N   LIG    1       -2.920   1.457   2.595  0.00  0.00    -0.600 N 
ATOM      2  C   LIG    1       -3.388   0.506   3.427  0.00  0.00    +0.600 C 
ATOM      3  O   LIG    1       -2.933  -0.622   3.379  0.00  0.00    -0.530 OA
ATOM      4  C   LIG    1       -3.379   2.841   2.732  0.00  0.00    +0.290 C 
ENDROOT
BRANCH   1   9
ATOM      5  C   LIG    1       -3.813   1.793  -1.868  0.00  0.00    +0.050 A 
ATOM      6  N   LIG    1       -2.597   2.212  -1.893  0.00  0.00    -0.470 NA
ATOM      7  C   LIG    1       -1.860   2.041  -0.804  0.00  0.00    +0.080 A 
ATOM      8  C   LIG    1       -2.526   1.433   0.196  0.00  0.00    -0.240 A 
ATOM      9  C   LIG    1       -1.951   1.106   1.553  0.00  0.00    +0.340 C 
ATOM     10  C   LIG    1       -0.665   1.918   1.747  0.00  0.00    +0.040 C 
ATOM     11  C   LIG    1        0.222   1.748   0.510  0.00  0.00    +0.030 C 
ATOM     12  C   LIG    1       -0.409   2.480  -0.676  0.00  0.00    +0.130 C 
ATOM     13  S   LIG    1       -4.163   1.092  -0.349  0.00  0.00    +0.140 S 
BRANCH   5  15
ATOM     14  C   LIG    1       -4.685   0.658  -3.893  0.00  0.00    +0.040 C 
ATOM     15  C   LIG    1       -4.787   1.905  -3.012  0.00  0.00    +0.140 C 
ENDBRANCH   5  15
ENDBRANCH   1   9
BRANCH   2  16
ATOM     16  C   LIG    1       -4.449   0.831   4.395  0.00  0.00    +0.020 A 
ATOM     17  C   LIG    1       -4.867  -0.045   5.334  0.00  0.00    -0.030 A 
ATOM     18  S   LIG    1       -6.102   0.680   6.268  0.00  0.00    +0.170 S 
ATOM     19  C   LIG    1       -5.980   2.156   5.316  0.00  0.00    +0.150 A 
ATOM     20  N   LIG    1       -5.060   2.010   4.411  0.00  0.00    -0.440 NA
BRANCH  19  21
ATOM     21  C   LIG    1       -6.793   3.375   5.520  0.00  0.00    -0.190 A 
ATOM     22  C   LIG    1       -7.765   3.549   6.465  0.00  0.00    +0.270 A 
ATOM     23  N   LIG    1       -8.258   4.794   6.317  0.00  0.00    -0.360 N 
ATOM     24  N   LIG    1       -7.588   5.408   5.252  0.00  0.00    -0.290 NA
ATOM     25  C   LIG    1       -9.317   5.400   7.128  0.00  0.00    +0.370 C 
ATOM     26  C   LIG    1       -6.712   4.567   4.771  0.00  0.00    +0.290 A 
ENDBRANCH  19  21
ENDBRANCH   2  16
TORSDOF 4
