REMARK  Name = ZINCqH0000008w3Q.0
REMARK                            x       y       z     vdW  Elec       q    Type
REMARK                         _______ _______ _______ _____ _____    ______ ____
ROOT
ATOM      1  C   LIG    1       -2.417   4.244   1.356  0.00  0.00    +0.090 C 
ATOM      2  C   LIG    1       -3.184   3.999   0.055  0.00  0.00    +0.000 C 
ENDROOT
BRANCH   2   3
ATOM      3  C   LIG    1       -4.319   4.984  -0.052  0.00  0.00    +0.450 C 
ATOM      4  O   LIG    1       -5.431   4.672   0.322  0.00  0.00    -0.450 OA
BRANCH   3   5
ATOM      5  C   LIG    1       -4.089   6.275  -0.590  0.00  0.00    -0.270 A 
ATOM      6  C   LIG    1       -2.892   6.776  -1.056  0.00  0.00    +0.340 A 
ATOM      7  N   LIG    1       -3.069   8.039  -1.490  0.00  0.00    -0.560 N 
ATOM      8  H   LIG    1       -2.369   8.597  -1.863  0.00  0.00    +0.420 HD
ATOM      9  C   LIG    1       -4.383   8.429  -1.332  0.00  0.00    +0.070 A 
ATOM     10  C   LIG    1       -5.064   9.608  -1.619  0.00  0.00    +0.000 A 
ATOM     11  C   LIG    1       -6.411   9.709  -1.345  0.00  0.00    +0.030 A 
ATOM     12  C   LIG    1       -7.100   8.643  -0.784  0.00  0.00    +0.000 A 
ATOM     13  C   LIG    1       -6.442   7.467  -0.493  0.00  0.00    +0.060 A 
ATOM     14  C   LIG    1       -5.084   7.350  -0.770  0.00  0.00    -0.060 A 
ENDBRANCH   3   5
ENDBRANCH   2   3
BRANCH   2  15
ATOM     15  S   LIG    1       -3.845   2.314   0.053  0.00  0.00    +0.060 S 
BRANCH  15  16
ATOM     16  C   LIG    1       -2.342   1.395   0.033  0.00  0.00    +0.360 A 
ATOM     17  N   LIG    1       -1.208   2.052   0.030  0.00  0.00    -0.530 NA
ATOM     18  C   LIG    1       -0.017   1.409   0.010  0.00  0.00    +0.170 A 
ATOM     19  C   LIG    1        1.192   2.111   0.002  0.00  0.00    +0.020 A 
ATOM     20  C   LIG    1        2.381   1.418  -0.013  0.00  0.00    +0.060 A 
ATOM     21  C   LIG    1        2.396   0.029  -0.021  0.00  0.00    -0.010 A 
ATOM     22  C   LIG    1        1.218  -0.685  -0.013  0.00  0.00    +0.100 A 
ATOM     23  C   LIG    1        0.002  -0.004   0.002  0.00  0.00    -0.200 A 
ATOM     24  C   LIG    1       -1.284  -0.715   0.011  0.00  0.00    +0.550 A 
ATOM     25  O   LIG    1       -1.332  -1.931   0.005  0.00  0.00    -0.510 OA
ATOM     26  N   LIG    1       -2.412   0.031   0.026  0.00  0.00    -0.530 N 
ATOM     27  C   LIG    1       -3.720  -0.629   0.036  0.00  0.00    +0.340 C 
ENDBRANCH  15  16
ENDBRANCH   2  15
TORSDOF 4
