REMARK  Name = ZINCtV000002FZfn.0
REMARK                            x       y       z     vdW  Elec       q    Type
REMARK                         _______ _______ _______ _____ _____    ______ ____
ROOT
ATOM      1  C   LIG    1        1.454  -1.888   0.580  0.00  0.00    +0.070 C 
ENDROOT
BRANCH   1   2
ATOM      2  C   LIG    1        1.806  -0.672  -0.279  0.00  0.00    +0.070 C 
BRANCH   2   5
ATOM      3  N   LIG    1        0.770   1.486  -0.904  0.00  0.00    -0.680 N 
ATOM      4  H   LIG    1        1.587   1.707  -1.378  0.00  0.00    +0.410 HD
ATOM      5  C   LIG    1        0.680   0.329  -0.220  0.00  0.00    +0.510 C 
ATOM      6  O   LIG    1       -0.307   0.092   0.444  0.00  0.00    -0.510 OA
BRANCH   3  11
ATOM      7  C   LIG    1       -3.638   5.054  -1.034  0.00  0.00    +0.090 C 
ATOM      8  C   LIG    1       -2.467   4.106  -1.000  0.00  0.00    -0.080 A 
ATOM      9  C   LIG    1       -1.213   4.572  -0.649  0.00  0.00    +0.010 A 
ATOM     10  C   LIG    1       -0.138   3.705  -0.617  0.00  0.00    -0.090 A 
ATOM     11  C   LIG    1       -0.317   2.366  -0.937  0.00  0.00    +0.130 A 
ATOM     12  C   LIG    1       -1.577   1.903  -1.294  0.00  0.00    -0.070 A 
ATOM     13  C   LIG    1       -1.775   0.452  -1.648  0.00  0.00    +0.090 C 
ATOM     14  C   LIG    1        1.229   4.213  -0.234  0.00  0.00    +0.090 C 
ATOM     15  C   LIG    1       -2.649   2.773  -1.318  0.00  0.00    +0.010 A 
ENDBRANCH   3  11
ENDBRANCH   2   5
ENDBRANCH   1   2
BRANCH   1  16
ATOM     16  C   LIG    1        2.596  -2.903   0.519  0.00  0.00    +0.090 C 
BRANCH  16  17
ATOM     17  S   LIG    1        2.179  -4.345   1.537  0.00  0.00    -0.230 S 
BRANCH  17  18
ATOM     18  C   LIG    1        3.629  -5.417   1.342  0.00  0.00    +0.090 C 
BRANCH  18  19
ATOM     19  C   LIG    1        3.429  -6.698   2.154  0.00  0.00    +0.220 C 
BRANCH  19  20
ATOM     20  O   LIG    1        4.572  -7.543   1.999  0.00  0.00    -0.310 OA
BRANCH  20  21
ATOM     21  C   LIG    1        4.556  -8.730   2.660  0.00  0.00    +0.130 A 
ATOM     22  C   LIG    1        3.462  -9.075   3.442  0.00  0.00    -0.080 A 
ATOM     23  C   LIG    1        3.448 -10.283   4.113  0.00  0.00    +0.050 A 
ATOM     24  C   LIG    1        4.522 -11.146   4.007  0.00  0.00    -0.110 A 
ATOM     25  C   LIG    1        5.613 -10.805   3.229  0.00  0.00    -0.040 A 
ATOM     26  C   LIG    1        6.782 -11.749   3.116  0.00  0.00    +0.090 C 
ATOM     27  C   LIG    1        5.630  -9.601   2.551  0.00  0.00    -0.020 A 
BRANCH  24  28
ATOM     28  C   LIG    1        4.504 -12.463   4.740  0.00  0.00    +0.020 C 
ATOM     29  C   LIG    1        3.362 -13.329   4.205  0.00  0.00    +0.040 C 
ATOM     30  C   LIG    1        4.296 -12.211   6.235  0.00  0.00    +0.030 C 
ENDBRANCH  24  28
ENDBRANCH  20  21
ENDBRANCH  19  20
ENDBRANCH  18  19
ENDBRANCH  17  18
ENDBRANCH  16  17
ENDBRANCH   1  16
TORSDOF 10
