REMARK  Name = ZINCpk00000xI6bI.0
REMARK                            x       y       z     vdW  Elec       q    Type
REMARK                         _______ _______ _______ _____ _____    ______ ____
ROOT
ATOM      1  N   LIG    1       -3.891   3.926  -1.363  0.00  0.00    -0.390 N 
ATOM      2  C   LIG    1       -3.057   3.268  -2.192  0.00  0.00    +0.300 A 
ATOM      3  N   LIG    1       -3.658   2.210  -2.675  0.00  0.00    -0.490 NA
ATOM      4  C   LIG    1       -4.895   2.127  -2.179  0.00  0.00    +0.320 A 
ATOM      5  N   LIG    1       -5.938   1.230  -2.344  0.00  0.00    -0.510 N 
ATOM      6  C   LIG    1       -5.774   0.072  -3.226  0.00  0.00    +0.350 C 
ATOM      7  C   LIG    1       -7.103   1.421  -1.695  0.00  0.00    +0.710 A 
ATOM      8  O   LIG    1       -8.007   0.624  -1.853  0.00  0.00    -0.540 OA
ATOM      9  N   LIG    1       -7.290   2.471  -0.877  0.00  0.00    -0.550 N 
ATOM     10  C   LIG    1       -8.576   2.633  -0.195  0.00  0.00    +0.360 C 
ATOM     11  C   LIG    1       -6.312   3.378  -0.675  0.00  0.00    +0.590 A 
ATOM     12  O   LIG    1       -6.494   4.326   0.068  0.00  0.00    -0.500 OA
ATOM     13  C   LIG    1       -5.075   3.217  -1.336  0.00  0.00    -0.150 A 
ENDROOT
BRANCH   1  15
ATOM     14  C   LIG    1       -4.581   6.251  -1.053  0.00  0.00    +0.050 C 
ATOM     15  C   LIG    1       -3.597   5.160  -0.630  0.00  0.00    +0.240 C 
ATOM     16  C   LIG    1       -3.733   4.905   0.872  0.00  0.00    +0.050 C 
ENDBRANCH   1  15
BRANCH   2  17
ATOM     17  C   LIG    1       -1.648   3.690  -2.520  0.00  0.00    +0.310 C 
BRANCH  17  18
ATOM     18  N   LIG    1       -0.734   3.192  -1.483  0.00  0.00    -0.530 NA
ATOM     19  C   LIG    1       -0.676   1.725  -1.493  0.00  0.00    +0.180 C 
ATOM     20  C   LIG    1        0.167   1.239  -0.312  0.00  0.00    -0.020 C 
ATOM     21  C   LIG    1        1.577   1.825  -0.423  0.00  0.00    +0.020 C 
ATOM     22  C   LIG    1        1.485   3.353  -0.460  0.00  0.00    -0.010 C 
ATOM     23  C   LIG    1        2.886   3.945  -0.630  0.00  0.00    +0.020 C 
ATOM     24  C   LIG    1       -0.475   1.698   0.998  0.00  0.00    +0.030 C 
ATOM     25  C   LIG    1        0.604   3.778  -1.636  0.00  0.00    +0.180 C 
ENDBRANCH  17  18
ENDBRANCH   2  17
TORSDOF 3
