REMARK  Name = ZINCpe00000y7ofz.0
REMARK                            x       y       z     vdW  Elec       q    Type
REMARK                         _______ _______ _______ _____ _____    ______ ____
ROOT
ATOM      1  C   LIG    1       -0.006   3.264  -2.312  0.00  0.00    +0.520 C 
ATOM      2  N   LIG    1        0.199   2.498  -3.401  0.00  0.00    -0.620 N 
ATOM      3  C   LIG    1        1.457   1.757  -3.568  0.00  0.00    +0.270 C 
ATOM      4  C   LIG    1        1.128   0.273  -3.778  0.00  0.00    +0.260 C 
ATOM      5  N   LIG    1        0.098   0.164  -4.820  0.00  0.00    -0.600 N 
ATOM      6  C   LIG    1       -1.160   0.904  -4.653  0.00  0.00    +0.210 C 
ATOM      7  C   LIG    1       -2.024   0.738  -5.905  0.00  0.00    +0.060 C 
ATOM      8  C   LIG    1        0.303  -0.604  -5.909  0.00  0.00    +0.560 C 
ATOM      9  O   LIG    1       -0.553  -0.681  -6.767  0.00  0.00    -0.510 OA
ATOM     10  C   LIG    1       -0.834   2.383  -4.441  0.00  0.00    +0.280 C 
ATOM     11  O   LIG    1       -1.049   3.871  -2.185  0.00  0.00    -0.520 OA
ENDROOT
BRANCH   8  12
ATOM     12  C   LIG    1        1.573  -1.352  -6.060  0.00  0.00    -0.040 A 
ATOM     13  C   LIG    1        2.268  -1.821  -4.939  0.00  0.00    -0.080 A 
ATOM     14  C   LIG    1        3.445  -2.519  -5.120  0.00  0.00    +0.310 A 
ATOM     15  N   LIG    1        3.925  -2.738  -6.329  0.00  0.00    -0.530 NA
ATOM     16  C   LIG    1        3.306  -2.308  -7.417  0.00  0.00    +0.410 A 
ATOM     17  C   LIG    1        2.112  -1.602  -7.322  0.00  0.00    -0.040 A 
BRANCH  16  18
ATOM     18  N   LIG    1        3.855  -2.567  -8.668  0.00  0.00    -0.850 N 
ATOM     19  H   LIG    1        4.688  -3.059  -8.739  0.00  0.00    +0.410 HD
ATOM     20  H   LIG    1        3.406  -2.255  -9.468  0.00  0.00    +0.410 HD
ENDBRANCH  16  18
ENDBRANCH   8  12
BRANCH   1  21
ATOM     21  C   LIG    1        1.059   3.367  -1.251  0.00  0.00    +0.080 C 
BRANCH  21  26
ATOM     22  C   LIG    1        1.234   4.849   3.619  0.00  0.00    +0.170 C 
ATOM     23  C   LIG    1        0.773   4.432   2.246  0.00  0.00    +0.080 C 
ATOM     24  N   LIG    1       -0.405   4.049   1.938  0.00  0.00    -0.290 NA
ATOM     25  O   LIG    1       -0.542   3.713   0.572  0.00  0.00    -0.180 OA
ATOM     26  C   LIG    1        0.577   4.292  -0.132  0.00  0.00    +0.150 C 
ATOM     27  C   LIG    1        1.632   4.395   0.996  0.00  0.00    +0.060 C 
ENDBRANCH  21  26
ENDBRANCH   1  21
TORSDOF 4
