REMARK  Name = ZINCnE000001Ia0W.1
REMARK                            x       y       z     vdW  Elec       q    Type
REMARK                         _______ _______ _______ _____ _____    ______ ____
ROOT
ATOM      1  N   LIG    1        1.142   2.033   0.002  0.00  0.00    -0.710 NA
ATOM      2  C   LIG    1       -0.016   1.344   0.009  0.00  0.00    +0.660 C 
ATOM      3  N   LIG    1        0.002  -0.004   0.002  0.00  0.00    -0.740 N 
ATOM      4  H   LIG    1        0.849  -0.478  -0.009  0.00  0.00    +0.390 HD
ATOM      5  O   LIG    1       -1.077   1.937   0.018  0.00  0.00    -0.620 OA
ENDROOT
BRANCH   1   9
ATOM      6  C   LIG    1        1.491   5.858   0.021  0.00  0.00    -0.330 A 
ATOM      7  C   LIG    1        0.217   5.461   0.030  0.00  0.00    +0.230 A 
ATOM      8  N   LIG    1        0.050   4.151   0.024  0.00  0.00    -0.570 NA
ATOM      9  C   LIG    1        1.123   3.423   0.010  0.00  0.00    +0.360 A 
ATOM     10  S   LIG    1        2.511   4.421   0.009  0.00  0.00    +0.010 S 
BRANCH   6  12
ATOM     11  C   LIG    1        2.150   7.760   1.468  0.00  0.00    +0.010 C 
ATOM     12  C   LIG    1        1.973   7.285   0.024  0.00  0.00    +0.100 C 
ENDBRANCH   6  12
ENDBRANCH   1   9
BRANCH   3  13
ATOM     13  C   LIG    1       -1.256  -0.754   0.010  0.00  0.00    +0.390 C 
BRANCH  13  14
ATOM     14  C   LIG    1       -1.035  -2.114  -0.600  0.00  0.00    +0.200 A 
ATOM     15  N   LIG    1       -1.805  -2.711  -1.477  0.00  0.00    -0.470 NA
ATOM     16  C   LIG    1       -1.217  -3.894  -1.730  0.00  0.00    +0.200 A 
ATOM     17  N   LIG    1       -0.139  -3.954  -1.006  0.00  0.00    -0.390 NA
ATOM     18  O   LIG    1       -0.013  -2.939  -0.354  0.00  0.00    +0.080 OA
BRANCH  16  19
ATOM     19  C   LIG    1       -1.716  -4.955  -2.677  0.00  0.00    +0.050 C 
ATOM     20  C   LIG    1       -1.002  -6.307  -2.663  0.00  0.00    +0.050 C 
ATOM     21  C   LIG    1       -0.803  -5.350  -3.839  0.00  0.00    +0.050 C 
ENDBRANCH  16  19
ENDBRANCH  13  14
BRANCH  13  22
ATOM     22  C   LIG    1       -1.745  -0.914   1.451  0.00  0.00    -0.010 C 
ATOM     23  C   LIG    1       -0.695  -1.673   2.264  0.00  0.00    +0.030 C 
ATOM     24  C   LIG    1       -3.060  -1.697   1.459  0.00  0.00    +0.030 C 
ENDBRANCH  13  22
ENDBRANCH   3  13
TORSDOF 6
