REMARK  Name = ZINCkj000005hpBv.1
REMARK                            x       y       z     vdW  Elec       q    Type
REMARK                         _______ _______ _______ _____ _____    ______ ____
ROOT
ATOM      1  N   LIG    1        0.011   1.139  -2.423  0.00  0.00    -0.650 N 
ATOM      2  C   LIG    1        1.352   1.714  -2.618  0.00  0.00    +0.280 C 
ATOM      3  C   LIG    1        2.264   1.277  -1.468  0.00  0.00    +0.020 C 
ATOM      4  C   LIG    1        1.610   1.619  -0.125  0.00  0.00    +0.060 C 
ATOM      5  C   LIG    1        0.278   0.881  -0.020  0.00  0.00    -0.030 C 
ATOM      6  C   LIG    1       -0.400   1.143   1.323  0.00  0.00    +0.260 C 
ATOM      7  N   LIG    1       -1.652   0.392   1.390  0.00  0.00    -0.380 N 
ATOM      8  C   LIG    1       -2.576   0.852   0.349  0.00  0.00    +0.270 C 
ATOM      9  C   LIG    1       -1.973   0.610  -1.039  0.00  0.00    +0.050 C 
ATOM     10  C   LIG    1       -2.269   0.592   2.708  0.00  0.00    +0.330 C 
ATOM     11  H   LIG    1       -1.461  -0.590   1.257  0.00  0.00    +0.430 HD
ATOM     12  C   LIG    1       -0.652   1.372  -1.136  0.00  0.00    +0.250 C 
ENDROOT
BRANCH   1  17
ATOM     13  C   LIG    1       -2.509  -1.788  -6.461  0.00  0.00    +0.370 C 
ATOM     14  N   LIG    1       -1.835  -1.036  -5.400  0.00  0.00    -0.410 N 
ATOM     15  N   LIG    1       -2.338   0.208  -5.005  0.00  0.00    -0.190 NA
ATOM     16  C   LIG    1       -1.758   0.899  -4.064  0.00  0.00    +0.260 A 
ATOM     17  C   LIG    1       -0.604   0.403  -3.421  0.00  0.00    +0.210 A 
ATOM     18  C   LIG    1       -0.088  -0.823  -3.802  0.00  0.00    -0.130 A 
ATOM     19 CL   LIG    1        1.335  -1.457  -3.035  0.00  0.00    -0.000 Cl
ATOM     20  C   LIG    1       -0.735  -1.549  -4.813  0.00  0.00    +0.510 A 
ATOM     21  O   LIG    1       -0.302  -2.636  -5.163  0.00  0.00    -0.510 OA
ENDBRANCH   1  17
TORSDOF 1
