REMARK  Name = ZINCkj000005hpBv.0
REMARK                            x       y       z     vdW  Elec       q    Type
REMARK                         _______ _______ _______ _____ _____    ______ ____
ROOT
ATOM      1  N   LIG    1       -0.105   1.073   2.477  0.00  0.00    -0.650 N 
ATOM      2  C   LIG    1       -0.621   1.586   3.757  0.00  0.00    +0.280 C 
ATOM      3  C   LIG    1       -2.072   1.134   3.937  0.00  0.00    +0.020 C 
ATOM      4  C   LIG    1       -2.899   1.529   2.708  0.00  0.00    +0.050 C 
ATOM      5  C   LIG    1       -2.309   0.850   1.475  0.00  0.00    -0.030 C 
ATOM      6  C   LIG    1       -3.129   1.158   0.224  0.00  0.00    +0.270 C 
ATOM      7  N   LIG    1       -2.535   0.454  -0.922  0.00  0.00    -0.380 N 
ATOM      8  C   LIG    1       -1.170   0.931  -1.167  0.00  0.00    +0.280 C 
ATOM      9  C   LIG    1       -0.282   0.647   0.050  0.00  0.00    +0.050 C 
ATOM     10  C   LIG    1       -2.501  -0.988  -0.640  0.00  0.00    +0.320 C 
ATOM     11  H   LIG    1       -3.098   0.620  -1.742  0.00  0.00    +0.430 HD
ATOM     12  C   LIG    1       -0.873   1.359   1.266  0.00  0.00    +0.260 C 
ENDROOT
BRANCH   1  17
ATOM     13  C   LIG    1        4.668  -1.822   2.219  0.00  0.00    +0.370 C 
ATOM     14  N   LIG    1        3.408  -1.079   2.297  0.00  0.00    -0.410 N 
ATOM     15  N   LIG    1        3.316   0.192   1.720  0.00  0.00    -0.190 NA
ATOM     16  C   LIG    1        2.206   0.874   1.770  0.00  0.00    +0.260 A 
ATOM     17  C   LIG    1        1.071   0.345   2.421  0.00  0.00    +0.210 A 
ATOM     18  C   LIG    1        1.143  -0.910   2.998  0.00  0.00    -0.130 A 
ATOM     19 CL   LIG    1       -0.237  -1.591   3.800  0.00  0.00    -0.000 Cl
ATOM     20  C   LIG    1        2.348  -1.625   2.925  0.00  0.00    +0.510 A 
ATOM     21  O   LIG    1        2.436  -2.735   3.427  0.00  0.00    -0.510 OA
ENDBRANCH   1  17
TORSDOF 1
