REMARK  Name = ZINCpk00000ebOp8.0
REMARK                            x       y       z     vdW  Elec       q    Type
REMARK                         _______ _______ _______ _____ _____    ______ ____
ROOT
ATOM      1  O   LIG    1       -1.336   6.474  -1.380  0.00  0.00    -0.530 OA
ATOM      2  C   LIG    1       -0.269   6.487  -1.972  0.00  0.00    +0.530 A 
ATOM      3  C   LIG    1       -0.205   6.955  -3.295  0.00  0.00    -0.080 A 
ATOM      4  C   LIG    1        0.995   6.964  -3.943  0.00  0.00    +0.180 A 
ATOM      5  C   LIG    1        2.139   6.505  -3.275  0.00  0.00    -0.780 A 
ATOM      6  C   LIG    1        2.044   6.065  -1.998  0.00  0.00    +0.440 A 
ATOM      7  N   LIG    1        0.847   6.052  -1.357  0.00  0.00    -0.490 N 
ENDROOT
BRANCH   5   8
ATOM      8  S   LIG    1        3.699   6.507  -4.093  0.00  0.00    +2.730 S 
ATOM      9  O   LIG    1        4.654   6.070  -3.136  0.00  0.00    -0.950 OA
ATOM     10  O   LIG    1        3.794   7.751  -4.773  0.00  0.00    -0.940 OA
BRANCH   8  11
ATOM     11  N   LIG    1        3.640   5.337  -5.263  0.00  0.00    -1.010 NA
ATOM     12  C   LIG    1        4.027   3.930  -5.088  0.00  0.00    +0.270 C 
ATOM     13  C   LIG    1        3.829   3.227  -6.448  0.00  0.00    +0.030 C 
ATOM     14  C   LIG    1        3.888   4.405  -7.457  0.00  0.00    +0.040 C 
ATOM     15  C   LIG    1        3.197   5.536  -6.655  0.00  0.00    +0.270 C 
ENDBRANCH   8  11
ENDBRANCH   5   8
BRANCH   7  16
ATOM     16  C   LIG    1        0.771   5.565   0.023  0.00  0.00    +0.360 C 
BRANCH  16  17
ATOM     17  C   LIG    1        0.496   4.083   0.018  0.00  0.00    -0.120 A 
ATOM     18  C   LIG    1       -0.808   3.624   0.028  0.00  0.00    +0.080 A 
ATOM     19  C   LIG    1       -1.065   2.265   0.019  0.00  0.00    +0.040 A 
ATOM     20  C   LIG    1       -0.016   1.361   0.009  0.00  0.00    +0.050 A 
ATOM     21  O   LIG    1        0.002  -0.004   0.002  0.00  0.00    -0.310 OA
ATOM     22  C   LIG    1        1.336  -0.373   0.399  0.00  0.00    +0.440 C 
ATOM     23  O   LIG    1        2.139   0.749  -0.014  0.00  0.00    -0.310 OA
ATOM     24  C   LIG    1        1.297   1.824  -0.001  0.00  0.00    +0.030 A 
ATOM     25  C   LIG    1        1.548   3.186   0.004  0.00  0.00    +0.050 A 
ENDBRANCH  16  17
ENDBRANCH   7  16
TORSDOF 4
