REMARK  Name = ZINCqH00000098tJ.0
REMARK                            x       y       z     vdW  Elec       q    Type
REMARK                         _______ _______ _______ _____ _____    ______ ____
ROOT
ATOM      1  N   LIG    1       -2.246  -0.119   0.908  0.00  0.00    -0.730 N 
ATOM      2  H   LIG    1       -2.162   0.829   1.097  0.00  0.00    +0.400 HD
ATOM      3  C   LIG    1       -3.241  -0.832   1.472  0.00  0.00    +0.510 C 
ATOM      4  O   LIG    1       -3.347  -2.017   1.235  0.00  0.00    -0.540 OA
ENDROOT
BRANCH   1   6
ATOM      5  C   LIG    1       -1.871  -0.811  -1.408  0.00  0.00    +0.040 C 
ATOM      6  C   LIG    1       -1.293  -0.774   0.008  0.00  0.00    +0.290 C 
BRANCH   6   7
ATOM      7  C   LIG    1        0.002  -0.004   0.002  0.00  0.00    -0.090 A 
ATOM      8  C   LIG    1       -0.017   1.378   0.010  0.00  0.00    +0.020 A 
ATOM      9  C   LIG    1        1.170   2.088   0.002  0.00  0.00    +0.030 A 
ATOM     10  C   LIG    1        2.382   1.415  -0.013  0.00  0.00    +0.050 A 
ATOM     11  O   LIG    1        3.541   2.127  -0.024  0.00  0.00    -0.310 OA
ATOM     12  C   LIG    1        4.733   1.422   0.342  0.00  0.00    +0.220 C 
ATOM     13  C   LIG    1        4.746   0.081  -0.405  0.00  0.00    +0.220 C 
ATOM     14  O   LIG    1        3.579  -0.656  -0.025  0.00  0.00    -0.310 OA
ATOM     15  C   LIG    1        2.401   0.025  -0.018  0.00  0.00    +0.060 A 
ATOM     16  C   LIG    1        1.207  -0.681  -0.012  0.00  0.00    +0.040 A 
ENDBRANCH   6   7
ENDBRANCH   1   6
BRANCH   3  17
ATOM     17  C   LIG    1       -4.221  -0.158   2.397  0.00  0.00    +0.050 C 
BRANCH  17  18
ATOM     18  C   LIG    1       -5.240  -1.185   2.895  0.00  0.00    +0.130 C 
BRANCH  18  19
ATOM     19  C   LIG    1       -6.221  -0.510   3.820  0.00  0.00    -0.170 A 
ATOM     20  C   LIG    1       -6.149  -0.459   5.160  0.00  0.00    +0.230 A 
ATOM     21  N   LIG    1       -7.216   0.239   5.658  0.00  0.00    -0.600 N 
ATOM     22  H   LIG    1       -7.380   0.408   6.598  0.00  0.00    +0.420 HD
ATOM     23  C   LIG    1       -8.020   0.664   4.624  0.00  0.00    +0.090 A 
ATOM     24  C   LIG    1       -9.203   1.395   4.570  0.00  0.00    -0.010 A 
ATOM     25  C   LIG    1       -9.783   1.668   3.350  0.00  0.00    +0.020 A 
ATOM     26  C   LIG    1       -9.199   1.221   2.173  0.00  0.00    -0.030 A 
ATOM     27  C   LIG    1       -8.037   0.501   2.203  0.00  0.00    +0.050 A 
ATOM     28  C   LIG    1       -7.429   0.218   3.428  0.00  0.00    -0.100 A 
ENDBRANCH  18  19
ENDBRANCH  17  18
ENDBRANCH   3  17
TORSDOF 5
