REMARK  Name = ZINCrg00000fSwAo.0
REMARK                            x       y       z     vdW  Elec       q    Type
REMARK                         _______ _______ _______ _____ _____    ______ ____
ROOT
ATOM      1  N   LIG    1       -3.749   2.927   0.035  0.00  0.00    -0.490 N 
ATOM      2  C   LIG    1       -4.370   3.422   1.272  0.00  0.00    +0.200 C 
ATOM      3  C   LIG    1       -4.342   4.952   1.276  0.00  0.00    +0.190 C 
ATOM      4  N   LIG    1       -5.055   5.456   0.094  0.00  0.00    -0.540 NA
ATOM      5  C   LIG    1       -4.434   4.961  -1.142  0.00  0.00    +0.200 C 
ATOM      6  C   LIG    1       -4.462   3.431  -1.147  0.00  0.00    +0.200 C 
ENDROOT
BRANCH   1  12
ATOM      7  C   LIG    1       -2.454   0.869   0.018  0.00  0.00    -0.180 A 
ATOM      8  C   LIG    1       -2.451  -0.526   0.005  0.00  0.00    +0.300 A 
ATOM      9  N   LIG    1       -3.582  -1.199   0.012  0.00  0.00    -0.490 NA
ATOM     10  C   LIG    1       -4.758  -0.597   0.021  0.00  0.00    +0.290 A 
ATOM     11  C   LIG    1       -4.857   0.777   0.029  0.00  0.00    -0.070 A 
ATOM     12  C   LIG    1       -3.692   1.544   0.028  0.00  0.00    +0.200 A 
BRANCH   7  16
ATOM     13  N   LIG    1       -0.011   0.966   0.007  0.00  0.00    -0.860 N 
ATOM     14  H   LIG    1        0.822   1.462   0.002  0.00  0.00    +0.410 HD
ATOM     15  H   LIG    1        0.002  -0.004   0.002  0.00  0.00    +0.400 HD
ATOM     16  C   LIG    1       -1.187   1.624   0.017  0.00  0.00    +0.560 C 
ATOM     17  O   LIG    1       -1.204   2.840   0.023  0.00  0.00    -0.500 OA
ENDBRANCH   7  16
ENDBRANCH   1  12
BRANCH   4  18
ATOM     18  C   LIG    1       -5.115   6.924   0.102  0.00  0.00    +0.240 C 
BRANCH  18  19
ATOM     19  C   LIG    1       -5.969   7.385   1.255  0.00  0.00    -0.140 A 
ATOM     20  C   LIG    1       -5.397   7.636   2.494  0.00  0.00    +0.100 A 
ATOM     21  C   LIG    1       -6.217   8.059   3.526  0.00  0.00    -0.040 A 
ATOM     22  C   LIG    1       -7.577   8.217   3.288  0.00  0.00    +0.350 A 
ATOM     23  N   LIG    1       -8.085   7.968   2.092  0.00  0.00    -0.500 NA
ATOM     24  C   LIG    1       -7.328   7.568   1.088  0.00  0.00    +0.330 A 
BRANCH  22  25
ATOM     25  N   LIG    1       -8.416   8.643   4.322  0.00  0.00    -0.410 N 
ATOM     26  C   LIG    1       -9.782   8.758   4.269  0.00  0.00    +0.150 A 
ATOM     27  C   LIG    1      -10.183   9.197   5.476  0.00  0.00    +0.150 A 
ATOM     28  N   LIG    1       -9.097   9.356   6.247  0.00  0.00    -0.480 NA
ATOM     29  C   LIG    1       -8.033   9.028   5.568  0.00  0.00    +0.400 A 
ENDBRANCH  22  25
ENDBRANCH  18  19
ENDBRANCH   4  18
TORSDOF 5
