REMARK  Name = ZINCrH000004pDpn.0
REMARK                            x       y       z     vdW  Elec       q    Type
REMARK                         _______ _______ _______ _____ _____    ______ ____
ROOT
ATOM      1  N   LIG    1        6.691   0.614  -1.096  0.00  0.00    -0.520 NA
ATOM      2  C   LIG    1        6.436  -0.805  -0.818  0.00  0.00    +0.190 C 
ATOM      3  C   LIG    1        6.920  -1.653  -1.996  0.00  0.00    +0.030 C 
ATOM      4  C   LIG    1        8.419  -1.417  -2.206  0.00  0.00    +0.230 C 
ATOM      5  C   LIG    1        8.664   0.076  -2.446  0.00  0.00    +0.040 C 
ATOM      6  C   LIG    1        8.128   0.873  -1.254  0.00  0.00    +0.170 C 
ENDROOT
BRANCH   4   7
ATOM      7  N   LIG    1        8.877  -2.180  -3.370  0.00  0.00    -0.720 N 
ATOM      8  H   LIG    1        8.919  -1.757  -4.242  0.00  0.00    +0.400 HD
ATOM      9  C   LIG    1        9.238  -3.471  -3.229  0.00  0.00    +0.560 C 
ATOM     10  O   LIG    1        9.184  -4.001  -2.136  0.00  0.00    -0.530 OA
BRANCH   9  11
ATOM     11  C   LIG    1        9.700  -4.242  -4.403  0.00  0.00    -0.140 A 
ATOM     12  C   LIG    1        9.757  -3.638  -5.660  0.00  0.00    +0.040 A 
ATOM     13  C   LIG    1       10.194  -4.361  -6.750  0.00  0.00    +0.000 A 
ATOM     14  C   LIG    1       10.565  -5.686  -6.602  0.00  0.00    +0.040 A 
ATOM     15  C   LIG    1       10.505  -6.293  -5.359  0.00  0.00    +0.000 A 
ATOM     16  C   LIG    1       10.075  -5.579  -4.260  0.00  0.00    +0.080 A 
ENDBRANCH   9  11
ENDBRANCH   4   7
BRANCH   1  18
ATOM     17  C   LIG    1        4.598   1.268  -0.006  0.00  0.00    +0.080 C 
ATOM     18  C   LIG    1        6.115   1.467  -0.049  0.00  0.00    +0.260 C 
BRANCH  18  19
ATOM     19  C   LIG    1        6.423   2.911  -0.351  0.00  0.00    +0.170 A 
ATOM     20  N   LIG    1        6.284   3.502  -1.504  0.00  0.00    -0.250 NA
ATOM     21  N   LIG    1        6.640   4.734  -1.403  0.00  0.00    -0.270 NA
ATOM     22  C   LIG    1        7.023   4.974  -0.168  0.00  0.00    +0.240 A 
ATOM     23  O   LIG    1        6.898   3.821   0.520  0.00  0.00    -0.220 OA
BRANCH  22  24
ATOM     24  C   LIG    1        7.504   6.259   0.363  0.00  0.00    -0.150 A 
ATOM     25  C   LIG    1        7.627   7.410  -0.354  0.00  0.00    +0.100 A 
ATOM     26  C   LIG    1        8.106   8.482   0.367  0.00  0.00    +0.020 A 
ATOM     27  C   LIG    1        8.366   8.231   1.655  0.00  0.00    -0.010 A 
ATOM     28  S   LIG    1        8.011   6.548   2.022  0.00  0.00    +0.170 S 
ENDBRANCH  22  24
ENDBRANCH  18  19
ENDBRANCH   1  18
TORSDOF 5
