REMARK  Name = ZINCtV000002q4a5.0
REMARK                            x       y       z     vdW  Elec       q    Type
REMARK                         _______ _______ _______ _____ _____    ______ ____
ROOT
ATOM      1  C   LIG    1       -1.193  -0.736   0.089  0.00  0.00    +0.270 A 
ATOM      2  N   LIG    1       -2.373  -0.200   0.113  0.00  0.00    -0.460 NA
ATOM      3  C   LIG    1       -3.401  -1.023   0.201  0.00  0.00    +0.100 A 
ATOM      4  C   LIG    1       -3.073  -2.316   0.253  0.00  0.00    -0.060 A 
ATOM      5  S   LIG    1       -1.318  -2.439   0.174  0.00  0.00    +0.170 S 
ENDROOT
BRANCH   1   8
ATOM      6  C   LIG    1        1.290   2.083   0.063  0.00  0.00    +0.130 C 
ATOM      7  C   LIG    1       -0.009   1.319   0.032  0.00  0.00    +0.510 C 
ATOM      8  N   LIG    1        0.002  -0.028  -0.000  0.00  0.00    -0.480 N 
ATOM      9  O   LIG    1       -1.064   1.917   0.031  0.00  0.00    -0.460 OA
BRANCH   8  10
ATOM     10  C   LIG    1        1.216  -0.716  -0.123  0.00  0.00    +0.120 A 
ATOM     11  C   LIG    1        1.677  -1.505   0.922  0.00  0.00    +0.030 A 
ATOM     12  C   LIG    1        2.875  -2.183   0.798  0.00  0.00    +0.060 A 
ATOM     13  C   LIG    1        3.615  -2.075  -0.364  0.00  0.00    +0.060 A 
ATOM     14  C   LIG    1        3.159  -1.288  -1.408  0.00  0.00    -0.020 A 
ATOM     15 CL   LIG    1        4.091  -1.156  -2.866  0.00  0.00    -0.050 Cl
ATOM     16  C   LIG    1        1.958  -0.613  -1.292  0.00  0.00    +0.040 A 
ENDBRANCH   8  10
ENDBRANCH   1   8
BRANCH   3  17
ATOM     17  C   LIG    1       -4.828  -0.542   0.239  0.00  0.00    +0.200 C 
BRANCH  17  18
ATOM     18  S   LIG    1       -5.475  -0.438  -1.449  0.00  0.00    +0.090 S 
BRANCH  18  19
ATOM     19  C   LIG    1       -7.109   0.132  -1.116  0.00  0.00    +0.130 A 
ATOM     20  N   LIG    1       -7.619   0.382   0.066  0.00  0.00    -0.290 NA
ATOM     21  N   LIG    1       -8.835   0.780  -0.071  0.00  0.00    -0.270 NA
ATOM     22  C   LIG    1       -9.147   0.800  -1.334  0.00  0.00    +0.170 A 
ATOM     23  O   LIG    1       -8.063   0.397  -2.027  0.00  0.00    -0.210 OA
BRANCH  22  24
ATOM     24  C   LIG    1      -10.476   1.207  -1.917  0.00  0.00    +0.110 C 
ATOM     25  C   LIG    1      -10.781   2.655  -1.529  0.00  0.00    +0.040 C 
ATOM     26  C   LIG    1      -12.130   3.068  -2.121  0.00  0.00    +0.020 C 
ATOM     27  C   LIG    1      -13.227   2.152  -1.576  0.00  0.00    +0.020 C 
ATOM     28  C   LIG    1      -12.922   0.704  -1.963  0.00  0.00    +0.020 C 
ATOM     29  C   LIG    1      -11.573   0.291  -1.372  0.00  0.00    +0.040 C 
ENDBRANCH  22  24
ENDBRANCH  18  19
ENDBRANCH  17  18
ENDBRANCH   3  17
TORSDOF 6
