REMARK  Name = ZINC9u0000000C5m.0
REMARK                            x       y       z     vdW  Elec       q    Type
REMARK                         _______ _______ _______ _____ _____    ______ ____
ROOT
ATOM      1  C   LIG    1        0.640   3.193   0.012  0.00  0.00    +0.020 A 
ATOM      2  C   LIG    1        1.111   1.934   0.002  0.00  0.00    -0.060 A 
ATOM      3  C   LIG    1       -0.013   1.076   0.008  0.00  0.00    -0.060 A 
ATOM      4  C   LIG    1       -1.103   1.863   0.017  0.00  0.00    +0.150 A 
ATOM      5  O   LIG    1       -0.702   3.144   0.024  0.00  0.00    -0.170 OA
ENDROOT
BRANCH   1   9
ATOM      6  C   LIG    1        0.273   5.042  -2.234  0.00  0.00    +0.050 C 
ATOM      7  C   LIG    1        1.291   5.418  -1.157  0.00  0.00    -0.030 C 
ATOM      8  C   LIG    1        0.753   5.778   0.231  0.00  0.00    +0.030 C 
ATOM      9  C   LIG    1        1.476   4.447   0.011  0.00  0.00    +0.040 C 
ENDBRANCH   1   9
TORSDOF 1
