REMARK  Name = ZINCrH000004mwQr.0
REMARK                            x       y       z     vdW  Elec       q    Type
REMARK                         _______ _______ _______ _____ _____    ______ ____
ROOT
ATOM      1  C   LIG    1       -2.570   4.147   0.252  0.00  0.00    +0.230 C 
ENDROOT
BRANCH   1   2
ATOM      2  N   LIG    1       -2.323   5.592   0.340  0.00  0.00    -0.500 NA
ATOM      3  C   LIG    1       -1.489   6.053  -0.779  0.00  0.00    +0.160 C 
ATOM      4  C   LIG    1       -1.307   7.570  -0.682  0.00  0.00    +0.160 C 
ATOM      5  O   LIG    1       -0.737   7.896   0.589  0.00  0.00    -0.370 OA
ATOM      6  C   LIG    1       -1.524   7.463   1.701  0.00  0.00    +0.190 C 
ATOM      7  C   LIG    1       -2.892   8.146   1.657  0.00  0.00    +0.010 C 
ATOM      8  C   LIG    1       -0.374   8.046  -1.798  0.00  0.00    +0.060 C 
ATOM      9  C   LIG    1       -1.708   5.944   1.628  0.00  0.00    +0.160 C 
ENDBRANCH   1   2
BRANCH   1  10
ATOM     10  C   LIG    1       -3.266   3.834  -1.048  0.00  0.00    -0.090 A 
ATOM     11  C   LIG    1       -2.528   3.451  -2.152  0.00  0.00    +0.010 A 
ATOM     12  C   LIG    1       -3.167   3.159  -3.343  0.00  0.00    +0.000 A 
ATOM     13  C   LIG    1       -4.543   3.261  -3.432  0.00  0.00    +0.010 A 
ATOM     14  C   LIG    1       -5.280   3.650  -2.329  0.00  0.00    +0.010 A 
ATOM     15  C   LIG    1       -4.642   3.936  -1.137  0.00  0.00    +0.040 A 
ENDBRANCH   1  10
BRANCH   1  18
ATOM     16  N   LIG    1       -1.238   2.063   0.245  0.00  0.00    -0.660 N 
ATOM     17  H   LIG    1       -2.059   1.573   0.083  0.00  0.00    +0.420 HD
ATOM     18  C   LIG    1       -1.257   3.409   0.309  0.00  0.00    +0.490 C 
ATOM     19  O   LIG    1       -0.218   4.026   0.413  0.00  0.00    -0.510 OA
BRANCH  16  26
ATOM     20  C   LIG    1        0.127   0.099  -0.135  0.00  0.00    +0.090 A 
ATOM     21  C   LIG    1        1.324  -0.578   0.028  0.00  0.00    -0.050 A 
ATOM     22  C   LIG    1        2.360   0.009   0.733  0.00  0.00    +0.030 A 
ATOM     23  C   LIG    1        2.204   1.271   1.275  0.00  0.00    -0.100 A 
ATOM     24  C   LIG    1        1.012   1.953   1.117  0.00  0.00    +0.050 A 
ATOM     25  C   LIG    1        3.337   1.905   2.041  0.00  0.00    +0.100 C 
ATOM     26  C   LIG    1       -0.031   1.371   0.412  0.00  0.00    +0.120 A 
BRANCH  20  28
ATOM     27  C   LIG    1       -0.659  -1.782  -1.359  0.00  0.00    +0.250 C 
ATOM     28  O   LIG    1       -0.892  -0.476  -0.827  0.00  0.00    -0.320 OA
ENDBRANCH  20  28
ENDBRANCH  16  26
ENDBRANCH   1  18
TORSDOF 5
