REMARK  Name = ZINCkj00000GeRAV.0
REMARK                            x       y       z     vdW  Elec       q    Type
REMARK                         _______ _______ _______ _____ _____    ______ ____
ROOT
ATOM      1  C   LIG    1       -4.284   1.280   0.048  0.00  0.00    +0.240 C 
ATOM      2  C   LIG    1       -4.458  -0.239   0.116  0.00  0.00    +0.250 C 
ATOM      3  N   LIG    1       -3.830  -0.751   1.341  0.00  0.00    -0.510 N 
ATOM      4  C   LIG    1       -4.508  -0.196   2.518  0.00  0.00    +0.280 C 
ATOM      5  C   LIG    1       -4.335   1.324   2.541  0.00  0.00    +0.020 C 
ATOM      6  H   LIG    1       -3.901  -1.758   1.357  0.00  0.00    +0.430 HD
ATOM      7  H   LIG    1       -2.857  -0.483   1.356  0.00  0.00    +0.420 HD
ATOM      8  C   LIG    1       -4.947   1.921   1.270  0.00  0.00    +0.190 C 
ENDROOT
BRANCH   1  14
ATOM      9  C   LIG    1        0.195  -0.088  -1.458  0.00  0.00    +0.030 C 
ATOM     10  C   LIG    1       -0.617   1.009  -0.767  0.00  0.00    +0.000 C 
ATOM     11  C   LIG    1       -0.048   1.262   0.632  0.00  0.00    +0.020 C 
ATOM     12  C   LIG    1       -0.901   2.318   1.340  0.00  0.00    +0.020 C 
ATOM     13  C   LIG    1       -2.354   1.836   1.399  0.00  0.00    +0.160 C 
ATOM     14  N   LIG    1       -2.852   1.610   0.036  0.00  0.00    -0.490 NA
ATOM     15  C   LIG    1       -2.077   0.566  -0.646  0.00  0.00    +0.160 C 
ENDBRANCH   1  14
BRANCH   8  16
ATOM     16  C   LIG    1       -4.712   3.409   1.249  0.00  0.00    +0.080 A 
ATOM     17  C   LIG    1       -5.223   4.196   2.263  0.00  0.00    -0.040 A 
ATOM     18  C   LIG    1       -5.001   5.565   2.233  0.00  0.00    +0.070 A 
ATOM     19  C   LIG    1       -4.270   6.092   1.181  0.00  0.00    -0.020 A 
ATOM     20  C   LIG    1       -3.789   5.243   0.202  0.00  0.00    +0.270 A 
ATOM     21  N   LIG    1       -4.015   3.945   0.265  0.00  0.00    -0.430 NA
ENDBRANCH   8  16
BRANCH   8  22
ATOM     22  O   LIG    1       -6.351   1.659   1.245  0.00  0.00    -0.540 OA
ATOM     23  H   LIG    1       -6.835   2.036   1.992  0.00  0.00    +0.390 HD
ENDBRANCH   8  22
TORSDOF 3
