REMARK  Name = ZINC9p0000002DdM.0
REMARK                            x       y       z     vdW  Elec       q    Type
REMARK                         _______ _______ _______ _____ _____    ______ ____
ROOT
ATOM      1  C   LIG    1       -0.729   1.579   1.267  0.00  0.00    +0.030 C 
ENDROOT
BRANCH   1   2
ATOM      2  C   LIG    1       -0.013   1.086   0.008  0.00  0.00    +0.000 C 
ATOM      3  C   LIG    1       -0.753   1.593  -1.232  0.00  0.00    +0.010 C 
ATOM      4  C   LIG    1       -0.037   1.099  -2.490  0.00  0.00    +0.010 C 
ATOM      5  C   LIG    1        1.399   1.629  -2.501  0.00  0.00    +0.000 C 
ATOM      6  C   LIG    1        2.139   1.122  -1.262  0.00  0.00    +0.010 C 
ATOM      7  C   LIG    1        1.423   1.615  -0.003  0.00  0.00    +0.020 C 
ENDBRANCH   1   2
BRANCH   1   8
ATOM      8  C   LIG    1       -2.121   0.950   1.341  0.00  0.00    +0.250 C 
BRANCH   8   9
ATOM      9  N   LIG    1       -2.809   1.424   2.550  0.00  0.00    -0.640 N 
ATOM     10  H   LIG    1       -2.895   2.428   2.516  0.00  0.00    +0.440 HD
ATOM     11  H   LIG    1       -2.276   1.159   3.365  0.00  0.00    +0.440 HD
ATOM     12  H   LIG    1       -3.727   1.008   2.599  0.00  0.00    +0.440 HD
ENDBRANCH   8   9
ENDBRANCH   1   8
TORSDOF 3
