REMARK  Name = ZINCpk000000njT7.0
REMARK                            x       y       z     vdW  Elec       q    Type
REMARK                         _______ _______ _______ _____ _____    ______ ____
ROOT
ATOM      1  C   LIG    1        1.485   1.745   2.503  0.00  0.00    -0.010 A 
ATOM      2  C   LIG    1        1.033   1.013   3.548  0.00  0.00    +0.140 A 
ATOM      3  N   LIG    1        0.487   1.894   4.418  0.00  0.00    -0.290 N 
ATOM      4  N   LIG    1        0.606   3.076   3.923  0.00  0.00    -0.080 NA
ATOM      5  N   LIG    1        1.202   3.022   2.784  0.00  0.00    -0.260 NA
ENDROOT
BRANCH   1   6
ATOM      6  C   LIG    1        2.176   1.224   1.270  0.00  0.00    +0.120 C 
BRANCH   6   7
ATOM      7  C   LIG    1        1.425   1.701   0.025  0.00  0.00    +0.230 C 
BRANCH   7   9
ATOM      8  C   LIG    1        1.444   1.755  -2.473  0.00  0.00    +0.030 C 
ATOM      9  C   LIG    1        2.195   1.278  -1.228  0.00  0.00    -0.100 C 
ATOM     10  C   LIG    1        2.319  -0.246  -1.260  0.00  0.00    +0.030 C 
ATOM     11  C   LIG    1        3.591   1.904  -1.204  0.00  0.00    +0.030 C 
ENDBRANCH   7   9
BRANCH   7  12
ATOM     12  O   LIG    1        0.121   1.117   0.002  0.00  0.00    -0.550 OA
ATOM     13  H   LIG    1        0.123   0.150  -0.019  0.00  0.00    +0.370 HD
ENDBRANCH   7  12
ENDBRANCH   6   7
ENDBRANCH   1   6
BRANCH   3  14
ATOM     14  C   LIG    1       -0.134   1.560   5.702  0.00  0.00    +0.350 C 
BRANCH  14  15
ATOM     15  C   LIG    1        0.538   2.364   6.817  0.00  0.00    +0.180 C 
BRANCH  15  16
ATOM     16  C   LIG    1       -0.173   2.106   8.121  0.00  0.00    +0.250 A 
ATOM     17  N   LIG    1       -1.241   2.720   8.556  0.00  0.00    -0.310 NA
ATOM     18  N   LIG    1       -1.594   2.259   9.702  0.00  0.00    -0.030 NA
ATOM     19  N   LIG    1       -0.779   1.333  10.079  0.00  0.00    -0.070 NA
ATOM     20  N   LIG    1        0.179   1.200   9.059  0.00  0.00    -0.330 N 
BRANCH  20  21
ATOM     21  C   LIG    1        1.267   0.316   9.023  0.00  0.00    +0.120 A 
ATOM     22  C   LIG    1        1.103  -1.006   9.414  0.00  0.00    +0.050 A 
ATOM     23  C   LIG    1        2.175  -1.876   9.373  0.00  0.00    +0.040 A 
ATOM     24  C   LIG    1        3.414  -1.428   8.953  0.00  0.00    +0.040 A 
ATOM     25  C   LIG    1        3.583  -0.111   8.568  0.00  0.00    +0.040 A 
ATOM     26  C   LIG    1        2.513   0.762   8.602  0.00  0.00    +0.020 A 
ENDBRANCH  20  21
ENDBRANCH  15  16
ENDBRANCH  14  15
ENDBRANCH   3  14
TORSDOF 8
