REMARK  Name = ZINCrH00000No4VY.0
REMARK                            x       y       z     vdW  Elec       q    Type
REMARK                         _______ _______ _______ _____ _____    ______ ____
ROOT
ATOM      1  C   LIG    1       -0.383   2.213  -1.256  0.00  0.00    +0.550 C 
ATOM      2  N   LIG    1       -1.685   2.443  -1.516  0.00  0.00    -0.640 N 
ATOM      3  H   LIG    1       -2.365   2.140  -0.894  0.00  0.00    +0.420 HD
ATOM      4  O   LIG    1        0.467   2.592  -2.033  0.00  0.00    -0.450 OA
ENDROOT
BRANCH   2   5
ATOM      5  C   LIG    1       -2.052   3.113  -2.671  0.00  0.00    +0.520 A 
ATOM      6  N   LIG    1       -1.220   3.569  -3.572  0.00  0.00    -0.470 NA
ATOM      7  C   LIG    1       -1.916   4.168  -4.574  0.00  0.00    +0.070 A 
ATOM      8  C   LIG    1       -1.537   4.804  -5.759  0.00  0.00    +0.130 A 
ATOM      9  C   LIG    1       -2.499   5.332  -6.590  0.00  0.00    -0.090 A 
ATOM     10  C   LIG    1       -3.845   5.235  -6.261  0.00  0.00    -0.010 A 
ATOM     11  C   LIG    1       -4.235   4.609  -5.094  0.00  0.00    +0.050 A 
ATOM     12 CL   LIG    1       -5.044   5.907  -7.322  0.00  0.00    -0.040 Cl
ATOM     13 BR   LIG    1       -1.986   6.195  -8.193  0.00  0.00    -0.020 Br
ATOM     14  C   LIG    1       -3.278   4.072  -4.246  0.00  0.00    +0.070 A 
ATOM     15  N   LIG    1       -3.336   3.400  -3.037  0.00  0.00    -0.500 N 
ATOM     16  C   LIG    1       -4.549   3.061  -2.288  0.00  0.00    +0.330 C 
ENDBRANCH   2   5
BRANCH   1  24
ATOM     17  C   LIG    1       -0.933  -3.969  -0.136  0.00  0.00    +0.540 C 
ATOM     18  N   LIG    1       -0.232  -2.818  -0.107  0.00  0.00    -0.610 N 
ATOM     19  C   LIG    1        0.154  -2.216   1.176  0.00  0.00    +0.280 C 
ATOM     20  C   LIG    1       -0.399  -0.787   1.237  0.00  0.00    +0.060 C 
ATOM     21  C   LIG    1        0.013  -0.043  -0.037  0.00  0.00    -0.100 C 
ATOM     22  C   LIG    1        1.340   0.716  -0.018  0.00  0.00    +0.090 C 
ATOM     23  C   LIG    1       -0.399  -0.722  -1.347  0.00  0.00    +0.050 C 
ATOM     24  C   LIG    1        0.017   1.484   0.001  0.00  0.00    -0.040 C 
ATOM     25  C   LIG    1        0.154  -2.152  -1.357  0.00  0.00    +0.290 C 
ATOM     26  O   LIG    1       -1.166  -4.513  -1.198  0.00  0.00    -0.540 OA
BRANCH  17  28
ATOM     27  C   LIG    1       -2.017  -5.753   1.101  0.00  0.00    +0.140 C 
ATOM     28  C   LIG    1       -1.416  -4.567   1.118  0.00  0.00    -0.090 C 
ENDBRANCH  17  28
ENDBRANCH   1  24
TORSDOF 3
