REMARK  Name = ZINCpk00000FlaxB.0
REMARK                            x       y       z     vdW  Elec       q    Type
REMARK                         _______ _______ _______ _____ _____    ______ ____
ROOT
ATOM      1  C   LIG    1        2.461   0.995   0.043  0.00  0.00    +0.340 C 
ENDROOT
BRANCH   1   8
ATOM      2  C   LIG    1        4.921  -0.294  -0.756  0.00  0.00    +0.090 C 
ATOM      3  C   LIG    1        4.930   1.155  -0.343  0.00  0.00    -0.070 A 
ATOM      4  C   LIG    1        6.113   1.868  -0.351  0.00  0.00    -0.010 A 
ATOM      5  C   LIG    1        6.122   3.196   0.034  0.00  0.00    +0.010 A 
ATOM      6  C   LIG    1        4.947   3.812   0.421  0.00  0.00    -0.010 A 
ATOM      7  C   LIG    1        3.762   3.099   0.424  0.00  0.00    +0.050 A 
ATOM      8  C   LIG    1        3.753   1.772   0.039  0.00  0.00    -0.100 A 
ENDBRANCH   1   8
BRANCH   1   9
ATOM      9  N   LIG    1        2.438   0.092   1.196  0.00  0.00    -0.730 N 
ATOM     10  H   LIG    1        2.297  -0.859   1.065  0.00  0.00    +0.400 HD
ATOM     11  C   LIG    1        2.612   0.582   2.439  0.00  0.00    +0.710 C 
ATOM     12  O   LIG    1        2.696   1.782   2.613  0.00  0.00    -0.590 OA
ATOM     13  N   LIG    1        2.692  -0.259   3.490  0.00  0.00    -0.870 N 
ATOM     14  H   LIG    1        2.817   0.094   4.385  0.00  0.00    +0.410 HD
ATOM     15  H   LIG    1        2.624  -1.216   3.351  0.00  0.00    +0.400 HD
ENDBRANCH   1   9
BRANCH   1  16
ATOM     16  C   LIG    1        1.282   1.966   0.131  0.00  0.00    +0.060 C 
BRANCH  16  17
ATOM     17  C   LIG    1       -0.010   1.200   0.011  0.00  0.00    +0.530 C 
ATOM     18  N   LIG    1       -1.187   1.854   0.057  0.00  0.00    -0.620 N 
ATOM     19  C   LIG    1       -2.466   1.134  -0.064  0.00  0.00    +0.300 C 
ATOM     20  C   LIG    1       -3.226   1.296   1.252  0.00  0.00    +0.100 C 
ATOM     21  C   LIG    1       -3.217   2.731   1.699  0.00  0.00    -0.180 A 
ATOM     22  C   LIG    1       -4.175   3.149   2.616  0.00  0.00    +0.320 A 
ATOM     23  N   LIG    1       -4.174   4.405   3.026  0.00  0.00    -0.520 NA
ATOM     24  C   LIG    1       -3.277   5.259   2.576  0.00  0.00    +0.500 A 
ATOM     25  N   LIG    1       -2.358   4.900   1.705  0.00  0.00    -0.510 NA
ATOM     26  C   LIG    1       -2.302   3.656   1.244  0.00  0.00    +0.160 A 
ATOM     27  C   LIG    1       -1.245   3.309   0.234  0.00  0.00    +0.370 C 
ATOM     28  O   LIG    1        0.011  -0.004  -0.131  0.00  0.00    -0.530 OA
ENDBRANCH  16  17
ENDBRANCH   1  16
TORSDOF 4
