REMARK  Name = ZINCvU00000005HO.0
REMARK                            x       y       z     vdW  Elec       q    Type
REMARK                         _______ _______ _______ _____ _____    ______ ____
ROOT
ATOM      1  N   LIG    1       -1.812   1.237  -2.401  0.00  0.00    -0.530 N 
ATOM      2  C   LIG    1       -2.179   0.550  -3.469  0.00  0.00    +0.540 C 
ATOM      3  C   LIG    1       -3.676   0.447  -3.656  0.00  0.00    +0.060 C 
ATOM      4  S   LIG    1       -4.346   1.385  -2.243  0.00  0.00    -0.080 S 
ATOM      5  O   LIG    1       -1.385   0.043  -4.232  0.00  0.00    -0.480 OA
ATOM      6  C   LIG    1       -2.754   1.792  -1.579  0.00  0.00    +0.370 C 
ATOM      7  N   LIG    1       -2.521   2.496  -0.496  0.00  0.00    -0.390 NA
ENDROOT
BRANCH   7   8
ATOM      8  C   LIG    1       -3.563   2.894   0.299  0.00  0.00    +0.090 A 
ATOM      9  C   LIG    1       -4.518   1.967   0.720  0.00  0.00    -0.010 A 
ATOM     10  C   LIG    1       -5.565   2.375   1.521  0.00  0.00    +0.010 A 
ATOM     11  C   LIG    1       -5.670   3.699   1.907  0.00  0.00    -0.090 A 
ATOM     12  C   LIG    1       -4.727   4.623   1.493  0.00  0.00    +0.020 A 
ATOM     13  C   LIG    1       -6.816   4.137   2.782  0.00  0.00    +0.090 C 
ATOM     14  C   LIG    1       -3.672   4.228   0.697  0.00  0.00    -0.060 A 
ATOM     15  C   LIG    1       -2.642   5.235   0.253  0.00  0.00    +0.100 C 
ENDBRANCH   7   8
BRANCH   1  16
ATOM     16  C   LIG    1       -0.389   1.410  -2.100  0.00  0.00    +0.250 C 
ATOM     17  C   LIG    1       -0.046   2.901  -2.094  0.00  0.00    +0.050 C 
BRANCH  16  18
ATOM     18  C   LIG    1       -0.082   0.811  -0.726  0.00  0.00    +0.160 C 
BRANCH  18  20
ATOM     19  C   LIG    1       -0.554   1.070   1.609  0.00  0.00    +0.180 C 
ATOM     20  O   LIG    1       -0.774   1.550   0.282  0.00  0.00    -0.330 OA
ENDBRANCH  18  20
ENDBRANCH  16  18
ENDBRANCH   1  16
BRANCH   3  21
ATOM     21  C   LIG    1       -4.134  -1.011  -3.602  0.00  0.00    +0.120 C 
BRANCH  21  22
ATOM     22  C   LIG    1       -5.626  -1.077  -3.808  0.00  0.00    +0.520 C 
ATOM     23  N   LIG    1       -6.255  -2.268  -3.800  0.00  0.00    -0.670 N 
ATOM     24  H   LIG    1       -5.763  -3.076  -3.586  0.00  0.00    +0.420 HD
ATOM     25  O   LIG    1       -6.259  -0.057  -3.982  0.00  0.00    -0.500 OA
BRANCH  23  26
ATOM     26  C   LIG    1       -7.620  -2.341  -4.101  0.00  0.00    +0.180 A 
ATOM     27  C   LIG    1       -8.235  -1.307  -4.795  0.00  0.00    +0.030 A 
ATOM     28  C   LIG    1       -9.583  -1.382  -5.090  0.00  0.00    +0.050 A 
ATOM     29  C   LIG    1      -10.319  -2.483  -4.696  0.00  0.00    +0.000 A 
ATOM     30  C   LIG    1       -9.710  -3.515  -4.005  0.00  0.00    +0.070 A 
ATOM     31  C   LIG    1       -8.361  -3.450  -3.712  0.00  0.00    -0.130 A 
ATOM     32 BR   LIG    1       -7.527  -4.864  -2.774  0.00  0.00    -0.050 Br
ENDBRANCH  23  26
ENDBRANCH  21  22
ENDBRANCH   3  21
TORSDOF 7
