REMARK  Name = ZINCrD0000075jL5.0
REMARK                            x       y       z     vdW  Elec       q    Type
REMARK                         _______ _______ _______ _____ _____    ______ ____
ROOT
ATOM      1  C   LIG    1        5.923   3.028   0.424  0.00  0.00    -0.140 A 
ATOM      2  C   LIG    1        4.612   2.667   0.150  0.00  0.00    +0.160 A 
ATOM      3  C   LIG    1        4.159   1.406   0.535  0.00  0.00    -0.180 A 
ATOM      4  C   LIG    1        2.973   0.672   0.467  0.00  0.00    +0.060 A 
ATOM      5  O   LIG    1        3.238  -0.504   1.057  0.00  0.00    +0.150 OA
ATOM      6  N   LIG    1        4.373  -0.595   1.468  0.00  0.00    -0.360 NA
ATOM      7  C   LIG    1        5.080   0.486   1.236  0.00  0.00    +0.050 A 
ATOM      8  C   LIG    1        6.403   0.914   1.487  0.00  0.00    +0.050 A 
ATOM      9  C   LIG    1        6.799   2.144   1.089  0.00  0.00    +0.070 A 
ENDROOT
BRANCH   1  16
ATOM     10  C   LIG    1        8.228   5.857  -0.648  0.00  0.00    +0.250 C 
ATOM     11  C   LIG    1        9.492   6.068   0.191  0.00  0.00    +0.020 C 
ATOM     12  C   LIG    1       10.476   4.927  -0.081  0.00  0.00    +0.020 C 
ATOM     13  C   LIG    1        9.842   3.596   0.327  0.00  0.00    +0.010 C 
ATOM     14  C   LIG    1        8.583   3.358  -0.505  0.00  0.00    +0.260 C 
ATOM     15  N   LIG    1        7.692   4.518  -0.367  0.00  0.00    -0.590 N 
ATOM     16  C   LIG    1        6.409   4.358   0.014  0.00  0.00    +0.570 C 
ATOM     17  O   LIG    1        5.653   5.310   0.020  0.00  0.00    -0.530 OA
BRANCH  10  18
ATOM     18  C   LIG    1        7.185   6.915  -0.278  0.00  0.00    +0.060 C 
BRANCH  18  22
ATOM     19  N   LIG    1        5.168   7.925  -1.292  0.00  0.00    -0.860 N 
ATOM     20  H   LIG    1        4.524   8.009  -2.013  0.00  0.00    +0.400 HD
ATOM     21  H   LIG    1        5.080   8.472  -0.496  0.00  0.00    +0.400 HD
ATOM     22  C   LIG    1        6.185   7.046  -1.397  0.00  0.00    +0.550 C 
ATOM     23  O   LIG    1        6.295   6.362  -2.393  0.00  0.00    -0.560 OA
ENDBRANCH  18  22
ENDBRANCH  10  18
ENDBRANCH   1  16
BRANCH   4  24
ATOM     24  C   LIG    1        1.696   1.098  -0.134  0.00  0.00    -0.040 A 
ATOM     25  C   LIG    1        1.679   1.693  -1.399  0.00  0.00    +0.050 A 
ATOM     26  C   LIG    1        0.481   2.094  -1.952  0.00  0.00    +0.010 A 
ATOM     27  C   LIG    1       -0.703   1.897  -1.263  0.00  0.00    +0.030 A 
ATOM     28  C   LIG    1       -0.694   1.309  -0.010  0.00  0.00    +0.010 A 
ATOM     29  C   LIG    1        0.496   0.908   0.558  0.00  0.00    +0.050 A 
ENDBRANCH   4  24
TORSDOF 4
