REMARK  Name = ZINCvU0000000BC9.0
REMARK                            x       y       z     vdW  Elec       q    Type
REMARK                         _______ _______ _______ _____ _____    ______ ____
ROOT
ATOM      1  N   LIG    1        1.268   1.585   0.590  0.00  0.00    -0.360 N 
ATOM      2  N   LIG    1        0.066   1.407  -0.108  0.00  0.00    -0.260 NA
ATOM      3  C   LIG    1        0.095   0.230  -0.667  0.00  0.00    +0.330 A 
ATOM      4  N   LIG    1        1.296  -0.377  -0.352  0.00  0.00    -0.450 N 
ATOM      5  C   LIG    1        2.006   0.469   0.421  0.00  0.00    +0.480 A 
ATOM      6  S   LIG    1        3.563   0.178   1.071  0.00  0.00    -0.560 S 
ENDROOT
BRANCH   4   7
ATOM      7  C   LIG    1        1.706  -1.652  -0.765  0.00  0.00    +0.120 A 
ATOM      8  C   LIG    1        1.513  -2.748   0.066  0.00  0.00    +0.070 A 
ATOM      9  C   LIG    1        1.914  -4.003  -0.345  0.00  0.00    +0.050 A 
ATOM     10  C   LIG    1        2.516  -4.169  -1.581  0.00  0.00    -0.010 A 
ATOM     11  C   LIG    1        2.713  -3.078  -2.409  0.00  0.00    +0.050 A 
ATOM     12 CL   LIG    1        3.025  -5.748  -2.092  0.00  0.00    -0.050 Cl
ATOM     13  C   LIG    1        2.309  -1.821  -2.004  0.00  0.00    +0.060 A 
ENDBRANCH   4   7
BRANCH   3  14
ATOM     14  C   LIG    1       -0.979  -0.358  -1.499  0.00  0.00    -0.050 A 
ATOM     15  C   LIG    1       -0.885  -1.682  -1.930  0.00  0.00    +0.040 A 
ATOM     16  C   LIG    1       -1.892  -2.226  -2.701  0.00  0.00    +0.010 A 
ATOM     17  C   LIG    1       -2.987  -1.459  -3.055  0.00  0.00    +0.040 A 
ATOM     18  C   LIG    1       -3.083  -0.144  -2.636  0.00  0.00    +0.020 A 
ATOM     19  C   LIG    1       -2.085   0.410  -1.860  0.00  0.00    +0.070 A 
ENDBRANCH   3  14
BRANCH   1  20
ATOM     20  C   LIG    1        1.654   2.769   1.362  0.00  0.00    +0.530 C 
BRANCH  20  21
ATOM     21  N   LIG    1        0.915   2.788   2.632  0.00  0.00    -0.550 NA
ATOM     22  C   LIG    1       -0.441   3.320   2.444  0.00  0.00    +0.210 C 
BRANCH  21  23
ATOM     23  C   LIG    1        1.643   3.551   3.654  0.00  0.00    +0.250 C 
BRANCH  23  27
ATOM     24  C   LIG    1       -0.213   2.971   7.459  0.00  0.00    +0.130 A 
ATOM     25  C   LIG    1        0.799   2.118   7.042  0.00  0.00    -0.020 A 
ATOM     26  C   LIG    1        1.397   2.308   5.811  0.00  0.00    +0.080 A 
ATOM     27  C   LIG    1        0.989   3.346   4.996  0.00  0.00    -0.120 A 
ATOM     28  C   LIG    1       -0.016   4.201   5.411  0.00  0.00    +0.050 A 
ATOM     29  C   LIG    1       -0.621   4.012   6.638  0.00  0.00    -0.080 A 
BRANCH  24  31
ATOM     30  C   LIG    1       -1.838   3.703   9.033  0.00  0.00    +0.250 C 
ATOM     31  O   LIG    1       -0.803   2.787   8.669  0.00  0.00    -0.320 OA
ENDBRANCH  24  31
ENDBRANCH  23  27
ENDBRANCH  21  23
ENDBRANCH  20  21
ENDBRANCH   1  20
TORSDOF 7
