REMARK  Name = ZINCrD000000Aklp.0
REMARK                            x       y       z     vdW  Elec       q    Type
REMARK                         _______ _______ _______ _____ _____    ______ ____
ROOT
ATOM      1  O   LIG    1       -1.249   2.805  -0.067  0.00  0.00    -0.520 OA
ATOM      2  C   LIG    1       -1.202   1.596   0.017  0.00  0.00    +0.520 C 
ATOM      3  N   LIG    1       -0.011   0.966   0.007  0.00  0.00    -0.670 N 
ATOM      4  H   LIG    1        0.025  -0.004   0.007  0.00  0.00    +0.420 HD
ENDROOT
BRANCH   3   5
ATOM      5  C   LIG    1        1.176   1.711  -0.008  0.00  0.00    +0.120 A 
ATOM      6  C   LIG    1        1.235   2.908  -0.708  0.00  0.00    +0.070 A 
ATOM      7  C   LIG    1        2.404   3.644  -0.719  0.00  0.00    -0.030 A 
ATOM      8  C   LIG    1        3.521   3.182  -0.038  0.00  0.00    +0.090 A 
ATOM      9  C   LIG    1        3.463   1.984   0.658  0.00  0.00    +0.050 A 
ATOM     10  C   LIG    1        2.294   1.249   0.673  0.00  0.00    +0.040 A 
BRANCH   8  11
ATOM     11  O   LIG    1        4.672   3.905  -0.053  0.00  0.00    -0.310 OA
BRANCH  11  12
ATOM     12  C   LIG    1        4.660   5.129  -0.790  0.00  0.00    +0.600 C 
ATOM     13  F   LIG    1        4.365   4.864  -2.131  0.00  0.00    -0.160 F 
ATOM     14  F   LIG    1        5.916   5.739  -0.700  0.00  0.00    -0.130 F 
ATOM     15  F   LIG    1        3.688   5.983  -0.259  0.00  0.00    -0.160 F 
ENDBRANCH  11  12
ENDBRANCH   8  11
ENDBRANCH   3   5
BRANCH   2  16
ATOM     16  C   LIG    1       -2.476   0.799   0.133  0.00  0.00    +0.060 C 
BRANCH  16  17
ATOM     17  C   LIG    1       -3.675   1.749   0.120  0.00  0.00    +0.360 C 
BRANCH  17  18
ATOM     18  N   LIG    1       -4.913   0.974   0.232  0.00  0.00    -0.340 N 
ATOM     19  N   LIG    1       -5.487   0.567  -0.840  0.00  0.00    -0.180 NA
ATOM     20  C   LIG    1       -6.586  -0.127  -0.870  0.00  0.00    +0.160 A 
ATOM     21  C   LIG    1       -7.241  -0.488   0.339  0.00  0.00    +0.390 A 
ATOM     22  C   LIG    1       -6.608  -0.036   1.590  0.00  0.00    -0.210 A 
ATOM     23  C   LIG    1       -7.146  -0.322   2.843  0.00  0.00    +0.120 A 
ATOM     24  C   LIG    1       -6.509   0.128   3.967  0.00  0.00    -0.010 A 
ATOM     25  C   LIG    1       -5.335   0.863   3.867  0.00  0.00    +0.090 A 
ATOM     26  C   LIG    1       -4.787   1.156   2.638  0.00  0.00    -0.030 A 
ATOM     27  O   LIG    1       -8.273  -1.139   0.340  0.00  0.00    -0.470 OA
ATOM     28  C   LIG    1       -5.414   0.705   1.481  0.00  0.00    +0.150 A 
ENDBRANCH  17  18
ENDBRANCH  16  17
ENDBRANCH   2  16
TORSDOF 6
