REMARK  Name = ZINCrD000000g5w8.0
REMARK                            x       y       z     vdW  Elec       q    Type
REMARK                         _______ _______ _______ _____ _____    ______ ____
ROOT
ATOM      1  C   LIG    1        3.550   1.796  -0.124  0.00  0.00    +0.520 C 
ATOM      2  N   LIG    1        2.397   1.107  -0.015  0.00  0.00    -0.670 N 
ATOM      3  H   LIG    1        2.414   0.139   0.047  0.00  0.00    +0.410 HD
ATOM      4  O   LIG    1        3.535   3.009  -0.117  0.00  0.00    -0.510 OA
ENDROOT
BRANCH   2   5
ATOM      5  C   LIG    1        1.173   1.789   0.009  0.00  0.00    +0.120 A 
ATOM      6  C   LIG    1        0.050   1.221  -0.589  0.00  0.00    +0.050 A 
ATOM      7  C   LIG    1       -1.161   1.879  -0.574  0.00  0.00    +0.040 A 
ATOM      8  C   LIG    1       -1.271   3.120   0.041  0.00  0.00    +0.130 A 
ATOM      9  O   LIG    1       -2.452   3.775   0.063  0.00  0.00    -0.270 OA
ATOM     10  C   LIG    1       -2.578   4.974   0.652  0.00  0.00    +0.510 A 
ATOM     11  C   LIG    1       -1.485   5.611   1.278  0.00  0.00    -0.070 A 
ATOM     12  C   LIG    1       -0.270   5.007   1.292  0.00  0.00    +0.160 A 
ATOM     13  O   LIG    1       -3.663   5.526   0.646  0.00  0.00    -0.460 OA
ATOM     14  C   LIG    1       -0.142   3.694   0.651  0.00  0.00    -0.140 A 
ATOM     15  C   LIG    1        1.084   3.023   0.626  0.00  0.00    +0.100 A 
ENDBRANCH   2   5
BRANCH   1  20
ATOM     16  C   LIG    1        8.576   0.358   1.346  0.00  0.00    +0.650 C 
ATOM     17  N   LIG    1        7.470   0.359   0.576  0.00  0.00    -0.600 N 
ATOM     18  C   LIG    1        7.327   1.317  -0.528  0.00  0.00    +0.310 C 
ATOM     19  C   LIG    1        6.003   2.069  -0.362  0.00  0.00    +0.050 C 
ATOM     20  C   LIG    1        4.858   1.059  -0.254  0.00  0.00    +0.000 C 
ATOM     21  C   LIG    1        5.070   0.175   0.977  0.00  0.00    +0.030 C 
ATOM     22  C   LIG    1        6.383  -0.599   0.825  0.00  0.00    +0.290 C 
ATOM     23  O   LIG    1        9.467   1.155   1.130  0.00  0.00    -0.560 OA
BRANCH  16  24
ATOM     24  O   LIG    1        8.693  -0.526   2.355  0.00  0.00    -0.360 OA
BRANCH  24  26
ATOM     25  C   LIG    1       10.037   0.912   3.790  0.00  0.00    +0.040 C 
ATOM     26  C   LIG    1        9.911  -0.469   3.143  0.00  0.00    +0.140 C 
ATOM     27  C   LIG    1       11.117  -0.720   2.236  0.00  0.00    +0.040 C 
ATOM     28  C   LIG    1        9.863  -1.541   4.234  0.00  0.00    +0.080 C 
ENDBRANCH  24  26
ENDBRANCH  16  24
ENDBRANCH   1  20
TORSDOF 4
