REMARK  Name = ZINCvU0000000BsR.0
REMARK                            x       y       z     vdW  Elec       q    Type
REMARK                         _______ _______ _______ _____ _____    ______ ____
ROOT
ATOM      1  N   LIG    1        1.237  -2.081  -0.021  0.00  0.00    -0.440 N 
ATOM      2  C   LIG    1        1.260  -2.877   1.066  0.00  0.00    +0.480 A 
ATOM      3  N   LIG    1        1.276  -4.156   0.637  0.00  0.00    -0.370 N 
ATOM      4  N   LIG    1        1.263  -4.131  -0.764  0.00  0.00    -0.240 NA
ATOM      5  S   LIG    1        1.266  -2.359   2.698  0.00  0.00    -0.550 S 
ATOM      6  C   LIG    1        1.234  -2.885  -1.146  0.00  0.00    +0.310 A 
ENDROOT
BRANCH   6   7
ATOM      7  C   LIG    1        1.207  -2.411  -2.547  0.00  0.00    -0.030 A 
ATOM      8  C   LIG    1        1.176  -1.044  -2.823  0.00  0.00    +0.090 A 
ATOM      9  C   LIG    1        1.157  -0.607  -4.132  0.00  0.00    +0.050 A 
ATOM     10  C   LIG    1        1.157  -1.522  -5.171  0.00  0.00    +0.000 A 
ATOM     11  C   LIG    1        1.181  -2.881  -4.904  0.00  0.00    +0.060 A 
ATOM     12 CL   LIG    1        1.126  -0.965  -6.814  0.00  0.00    -0.040 Cl
ATOM     13  C   LIG    1        1.207  -3.330  -3.599  0.00  0.00    +0.010 A 
ATOM     14 CL   LIG    1        1.238  -5.033  -3.265  0.00  0.00    -0.010 Cl
ENDBRANCH   6   7
BRANCH   1  20
ATOM     15  C   LIG    1        0.002  -0.004   0.002  0.00  0.00    -0.040 A 
ATOM     16  C   LIG    1       -0.017   1.377   0.010  0.00  0.00    +0.030 A 
ATOM     17  C   LIG    1        1.171   2.086   0.002  0.00  0.00    +0.050 A 
ATOM     18  C   LIG    1        2.380   1.415  -0.013  0.00  0.00    +0.030 A 
ATOM     19  C   LIG    1        2.405   0.034  -0.021  0.00  0.00    +0.040 A 
ATOM     20  C   LIG    1        1.215  -0.681  -0.013  0.00  0.00    +0.110 A 
BRANCH  15  22
ATOM     21  C   LIG    1       -2.087  -0.425   1.270  0.00  0.00    +0.050 C 
ATOM     22  C   LIG    1       -1.292  -0.776   0.011  0.00  0.00    +0.010 C 
ATOM     23  C   LIG    1       -2.112  -0.411  -1.228  0.00  0.00    +0.030 C 
ENDBRANCH  15  22
ENDBRANCH   1  20
BRANCH   3  24
ATOM     24  C   LIG    1        1.303  -5.352   1.482  0.00  0.00    +0.530 C 
BRANCH  24  25
ATOM     25  N   LIG    1       -0.025  -5.980   1.484  0.00  0.00    -0.550 NA
ATOM     26  C   LIG    1       -0.221  -6.801   0.282  0.00  0.00    +0.180 C 
ATOM     27  C   LIG    1       -1.661  -7.320   0.246  0.00  0.00    +0.030 C 
ATOM     28  C   LIG    1       -1.930  -8.150   1.504  0.00  0.00    -0.020 C 
ATOM     29  C   LIG    1       -1.673  -7.286   2.741  0.00  0.00    +0.180 C 
ATOM     30  C   LIG    1       -0.233  -6.769   2.705  0.00  0.00    +0.210 C 
BRANCH  29  31
ATOM     31  O   LIG    1       -1.868  -8.070   3.920  0.00  0.00    -0.570 OA
ATOM     32  H   LIG    1       -2.760  -8.434   4.007  0.00  0.00    +0.380 HD
ENDBRANCH  29  31
ENDBRANCH  24  25
ENDBRANCH   3  24
TORSDOF 6
