REMARK  Name = ZINCrg000000oJOf.0
REMARK                            x       y       z     vdW  Elec       q    Type
REMARK                         _______ _______ _______ _____ _____    ______ ____
ROOT
ATOM      1  C   LIG    1        1.290  -2.581  -3.993  0.00  0.00    +0.120 A 
ATOM      2  C   LIG    1        1.540  -1.510  -4.840  0.00  0.00    +0.090 A 
ATOM      3  C   LIG    1        1.154  -0.235  -4.474  0.00  0.00    +0.000 A 
ATOM      4  C   LIG    1        0.512  -0.026  -3.265  0.00  0.00    +0.180 A 
ATOM      5  C   LIG    1        0.266  -1.093  -2.416  0.00  0.00    -0.700 A 
ATOM      6  F   LIG    1        0.130   1.220  -2.910  0.00  0.00    -0.120 F 
ATOM      7  C   LIG    1        0.651  -2.368  -2.779  0.00  0.00    +0.170 A 
ENDROOT
BRANCH   1   9
ATOM      8  C   LIG    1        0.942  -4.935  -3.986  0.00  0.00    +0.510 C 
ATOM      9  N   LIG    1        1.682  -3.873  -4.363  0.00  0.00    -0.680 N 
ATOM     10  H   LIG    1        2.485  -4.005  -4.890  0.00  0.00    +0.420 HD
ATOM     11  O   LIG    1       -0.113  -4.766  -3.411  0.00  0.00    -0.500 OA
BRANCH   8  12
ATOM     12  C   LIG    1        1.424  -6.332  -4.281  0.00  0.00    +0.060 C 
BRANCH  12  13
ATOM     13  C   LIG    1        0.406  -7.345  -3.752  0.00  0.00    +0.070 C 
BRANCH  13  14
ATOM     14  C   LIG    1        0.896  -8.763  -4.051  0.00  0.00    +0.060 C 
BRANCH  14  17
ATOM     15  C   LIG    1       -0.859 -12.051  -3.177  0.00  0.00    +0.290 C 
ATOM     16  N   LIG    1        0.116 -11.082  -3.683  0.00  0.00    -0.630 N 
ATOM     17  C   LIG    1       -0.106  -9.761  -3.531  0.00  0.00    +0.510 C 
ATOM     18  O   LIG    1       -1.113  -9.375  -2.976  0.00  0.00    -0.530 OA
ATOM     19  C   LIG    1        1.332 -11.547  -4.353  0.00  0.00    +0.280 C 
ENDBRANCH  14  17
ENDBRANCH  13  14
ENDBRANCH  12  13
ENDBRANCH   8  12
ENDBRANCH   1   9
BRANCH   5  20
ATOM     20  S   LIG    1       -0.544  -0.822  -0.875  0.00  0.00    +2.690 S 
ATOM     21  O   LIG    1       -1.685  -0.023  -1.157  0.00  0.00    -0.940 OA
ATOM     22  O   LIG    1       -0.622  -2.088  -0.235  0.00  0.00    -0.940 OA
BRANCH  20  23
ATOM     23  N   LIG    1        0.462   0.110   0.052  0.00  0.00    -1.000 NA
ATOM     24  C   LIG    1        0.386   1.579   0.011  0.00  0.00    +0.280 C 
ATOM     25  C   LIG    1        1.798   2.130  -0.217  0.00  0.00    +0.210 C 
ATOM     26  O   LIG    1        2.686   1.567   0.752  0.00  0.00    -0.370 OA
ATOM     27  C   LIG    1        2.820   0.146   0.668  0.00  0.00    +0.210 C 
ATOM     28  C   LIG    1        1.460  -0.506   0.941  0.00  0.00    +0.270 C 
ENDBRANCH  20  23
ENDBRANCH   5  20
TORSDOF 7
