REMARK  Name = ZINCpk000005e97a.0
REMARK                            x       y       z     vdW  Elec       q    Type
REMARK                         _______ _______ _______ _____ _____    ______ ____
ROOT
ATOM      1  C   LIG    1       -1.202   2.216   0.020  0.00  0.00    +0.630 C 
ATOM      2  N   LIG    1       -1.066   3.557   0.027  0.00  0.00    -0.610 N 
ATOM      3  C   LIG    1        0.214   4.291   0.031  0.00  0.00    +0.260 C 
ATOM      4  C   LIG    1       -0.123   5.683  -0.573  0.00  0.00    +0.040 C 
ATOM      5  C   LIG    1       -1.534   5.924  -0.007  0.00  0.00    -0.100 C 
ATOM      6  C   LIG    1       -1.603   6.741   1.279  0.00  0.00    +0.050 C 
ATOM      7  C   LIG    1       -1.797   7.976   0.379  0.00  0.00    +0.230 C 
ATOM      8  C   LIG    1       -2.346   7.017  -0.695  0.00  0.00    +0.060 C 
ATOM      9  C   LIG    1       -2.170   4.532   0.037  0.00  0.00    +0.290 C 
ATOM     10  O   LIG    1       -2.313   1.717   0.023  0.00  0.00    -0.520 OA
ENDROOT
BRANCH   1  14
ATOM     11  C   LIG    1        2.050   0.677  -0.014  0.00  0.00    +0.480 A 
ATOM     12  N   LIG    1        1.279  -0.391  -0.012  0.00  0.00    -0.540 NA
ATOM     13  C   LIG    1        0.002  -0.004   0.002  0.00  0.00    +0.310 A 
ATOM     14  C   LIG    1       -0.016   1.361   0.009  0.00  0.00    -0.160 A 
ATOM     15  O   LIG    1        1.277   1.772  -0.001  0.00  0.00    -0.210 OA
BRANCH  11  17
ATOM     16  C   LIG    1        4.149  -0.603  -0.042  0.00  0.00    +0.340 C 
ATOM     17  N   LIG    1        3.423   0.670  -0.028  0.00  0.00    -0.680 N 
ATOM     18  H   LIG    1        3.912   1.507  -0.028  0.00  0.00    +0.420 HD
ENDBRANCH  11  17
ENDBRANCH   1  14
BRANCH   7  19
ATOM     19  N   LIG    1       -0.541   8.626  -0.003  0.00  0.00    -0.720 N 
ATOM     20  H   LIG    1        0.046   8.204  -0.650  0.00  0.00    +0.390 HD
ATOM     21  C   LIG    1       -0.202   9.810   0.544  0.00  0.00    +0.590 C 
ATOM     22  O   LIG    1       -0.939  10.339   1.355  0.00  0.00    -0.520 OA
BRANCH  21  23
ATOM     23  C   LIG    1        1.055  10.461   0.161  0.00  0.00    -0.060 A 
ATOM     24  C   LIG    1        1.524  11.669   0.633  0.00  0.00    +0.050 A 
ATOM     25  C   LIG    1        2.753  11.905   0.009  0.00  0.00    -0.060 A 
ATOM     26  C   LIG    1        3.003  10.864  -0.822  0.00  0.00    +0.200 A 
ATOM     27  N   LIG    1        1.980   9.980  -0.739  0.00  0.00    -0.540 N 
ATOM     28  H   LIG    1        1.910   9.148  -1.231  0.00  0.00    +0.410 HD
ENDBRANCH  21  23
ENDBRANCH   7  19
TORSDOF 4
