REMARK  Name = ZINCrD000000CBgJ.0
REMARK                            x       y       z     vdW  Elec       q    Type
REMARK                         _______ _______ _______ _____ _____    ______ ____
ROOT
ATOM      1  C   LIG    1       -3.145  -2.371  -1.477  0.00  0.00    +0.140 C 
ENDROOT
BRANCH   1   5
ATOM      2  C   LIG    1       -4.667  -3.471  -5.318  0.00  0.00    -0.120 A 
ATOM      3  C   LIG    1       -3.732  -4.285  -4.675  0.00  0.00    +0.080 A 
ATOM      4  C   LIG    1       -3.245  -3.924  -3.436  0.00  0.00    +0.040 A 
ATOM      5  C   LIG    1       -3.682  -2.759  -2.830  0.00  0.00    -0.060 A 
ATOM      6  C   LIG    1       -4.612  -1.951  -3.460  0.00  0.00    +0.020 A 
ATOM      7  C   LIG    1       -5.102  -2.297  -4.702  0.00  0.00    +0.040 A 
BRANCH   2   9
ATOM      8  O   LIG    1       -4.709  -4.793  -7.245  0.00  0.00    -0.530 OA
ATOM      9  C   LIG    1       -5.193  -3.852  -6.647  0.00  0.00    +0.570 C 
ATOM     10  N   LIG    1       -6.208  -3.155  -7.194  0.00  0.00    -0.620 N 
ATOM     11  C   LIG    1       -6.816  -1.941  -6.631  0.00  0.00    +0.250 C 
ATOM     12  C   LIG    1       -7.951  -1.512  -7.584  0.00  0.00    +0.030 C 
ATOM     13  C   LIG    1       -8.295  -2.830  -8.327  0.00  0.00    +0.040 C 
ATOM     14  C   LIG    1       -6.899  -3.489  -8.454  0.00  0.00    +0.250 C 
ENDBRANCH   2   9
ENDBRANCH   1   5
BRANCH   1  15
ATOM     15  S   LIG    1       -1.660  -1.350  -1.684  0.00  0.00    -0.190 S 
BRANCH  15  16
ATOM     16  C   LIG    1       -1.171  -0.989   0.025  0.00  0.00    +0.220 C 
BRANCH  16  17
ATOM     17  C   LIG    1        0.070  -0.134   0.023  0.00  0.00    +0.260 A 
ATOM     18  N   LIG    1        1.306  -0.561   0.034  0.00  0.00    -0.310 NA
ATOM     19  N   LIG    1        2.126   0.427   0.028  0.00  0.00    -0.030 NA
ATOM     20  N   LIG    1        1.479   1.543   0.013  0.00  0.00    -0.070 NA
ATOM     21  N   LIG    1        0.112   1.216   0.009  0.00  0.00    -0.320 N 
BRANCH  21  22
ATOM     22  C   LIG    1       -0.976   2.102  -0.011  0.00  0.00    +0.110 A 
ATOM     23  C   LIG    1       -2.127   1.774  -0.713  0.00  0.00    +0.020 A 
ATOM     24  C   LIG    1       -3.199   2.645  -0.726  0.00  0.00    +0.040 A 
ATOM     25  C   LIG    1       -3.121   3.849  -0.050  0.00  0.00    +0.040 A 
ATOM     26  C   LIG    1       -1.973   4.181   0.645  0.00  0.00    +0.040 A 
ATOM     27  C   LIG    1       -0.900   3.311   0.667  0.00  0.00    +0.050 A 
ENDBRANCH  21  22
ENDBRANCH  16  17
ENDBRANCH  15  16
ENDBRANCH   1  15
TORSDOF 6
