REMARK  Name = ZINCvU0000000Ckp.0
REMARK                            x       y       z     vdW  Elec       q    Type
REMARK                         _______ _______ _______ _____ _____    ______ ____
ROOT
ATOM      1  C   LIG    1       -4.867  -0.720   0.017  0.00  0.00    +0.600 C 
ATOM      2  N   LIG    1       -6.088  -0.999   0.515  0.00  0.00    -0.610 N 
ATOM      3  C   LIG    1       -6.550  -0.411   1.781  0.00  0.00    +0.320 C 
ATOM      4  C   LIG    1       -7.239  -1.470   2.594  0.00  0.00    -0.030 C 
ATOM      5  C   LIG    1       -7.563  -2.634   2.130  0.00  0.00    -0.030 C 
ATOM      6  C   LIG    1       -7.286  -3.101   0.732  0.00  0.00    +0.270 C 
ATOM      7  C   LIG    1       -7.016  -1.901  -0.189  0.00  0.00    +0.310 C 
ATOM      8  O   LIG    1       -4.529  -1.179  -1.059  0.00  0.00    -0.510 OA
ENDROOT
BRANCH   1  12
ATOM      9  C   LIG    1       -1.963   0.945   1.584  0.00  0.00    +0.140 A 
ATOM     10  C   LIG    1       -2.789   1.814   2.188  0.00  0.00    -0.290 A 
ATOM     11  S   LIG    1       -4.415   1.490   1.786  0.00  0.00    +0.300 S 
ATOM     12  C   LIG    1       -3.946   0.134   0.769  0.00  0.00    -0.230 A 
ATOM     13 BR   LIG    1       -2.225   3.211   3.330  0.00  0.00    +0.030 Br
ATOM     14  C   LIG    1       -2.584   0.009   0.789  0.00  0.00    +0.050 A 
BRANCH   9  16
ATOM     15  C   LIG    1        0.157   0.008   1.043  0.00  0.00    +0.250 C 
ATOM     16  O   LIG    1       -0.611   0.990   1.741  0.00  0.00    -0.290 OA
ENDBRANCH   9  16
ENDBRANCH   1  12
BRANCH   6  17
ATOM     17  N   LIG    1       -8.445  -3.843   0.229  0.00  0.00    -0.720 N 
ATOM     18  H   LIG    1       -9.118  -3.390  -0.302  0.00  0.00    +0.400 HD
ATOM     19  C   LIG    1       -8.575  -5.156   0.505  0.00  0.00    +0.590 C 
ATOM     20  O   LIG    1       -7.731  -5.725   1.172  0.00  0.00    -0.510 OA
BRANCH  19  21
ATOM     21  C   LIG    1       -9.733  -5.897   0.004  0.00  0.00    -0.270 A 
ATOM     22  C   LIG    1       -9.979  -7.237   0.217  0.00  0.00    +0.030 A 
ATOM     23  C   LIG    1      -11.154  -7.668  -0.378  0.00  0.00    +0.010 A 
ATOM     24  C   LIG    1      -11.830  -6.729  -1.041  0.00  0.00    -0.050 A 
ATOM     25  S   LIG    1      -11.037  -5.221  -0.961  0.00  0.00    +0.210 S 
BRANCH  22  26
ATOM     26  C   LIG    1       -9.083  -8.120   0.998  0.00  0.00    -0.060 A 
ATOM     27  C   LIG    1       -7.716  -8.153   0.720  0.00  0.00    +0.110 A 
ATOM     28  C   LIG    1       -6.885  -8.974   1.454  0.00  0.00    -0.020 A 
ATOM     29  C   LIG    1       -7.407  -9.773   2.458  0.00  0.00    +0.110 A 
ATOM     30  C   LIG    1       -8.765  -9.748   2.734  0.00  0.00    -0.020 A 
ATOM     31  F   LIG    1       -6.590 -10.579   3.171  0.00  0.00    -0.140 F 
ATOM     32  C   LIG    1       -9.603  -8.927   2.010  0.00  0.00    +0.060 A 
ENDBRANCH  22  26
ENDBRANCH  19  21
ENDBRANCH   6  17
TORSDOF 5
