REMARK  Name = ZINCtV00000L6jqg.0
REMARK                            x       y       z     vdW  Elec       q    Type
REMARK                         _______ _______ _______ _____ _____    ______ ____
ROOT
ATOM      1  C   LIG    1        2.219   0.481  -0.149  0.00  0.00    +0.310 A 
ATOM      2  N   LIG    1        1.575  -0.321   0.640  0.00  0.00    -0.460 NA
ATOM      3  C   LIG    1        0.724   0.230   1.494  0.00  0.00    +0.140 A 
ATOM      4  C   LIG    1        0.634   1.571   1.435  0.00  0.00    -0.090 A 
ATOM      5  S   LIG    1        1.733   2.141   0.181  0.00  0.00    +0.100 S 
ENDROOT
BRANCH   3   6
ATOM      6  C   LIG    1       -0.073  -0.577   2.450  0.00  0.00    -0.030 A 
ATOM      7  C   LIG    1       -0.950   0.051   3.333  0.00  0.00    +0.020 A 
ATOM      8  C   LIG    1       -1.694  -0.705   4.217  0.00  0.00    +0.000 A 
ATOM      9  C   LIG    1       -1.562  -2.082   4.235  0.00  0.00    -0.070 A 
ATOM     10  C   LIG    1       -0.688  -2.709   3.365  0.00  0.00    +0.000 A 
ATOM     11  C   LIG    1        0.056  -1.964   2.473  0.00  0.00    +0.060 A 
BRANCH   9  12
ATOM     12  C   LIG    1       -2.372  -2.901   5.206  0.00  0.00    +0.030 C 
ATOM     13  C   LIG    1       -3.862  -2.674   4.945  0.00  0.00    +0.010 C 
ATOM     14  C   LIG    1       -4.686  -3.506   5.931  0.00  0.00    +0.000 C 
ATOM     15  C   LIG    1       -4.348  -3.082   7.361  0.00  0.00    +0.000 C 
ATOM     16  C   LIG    1       -2.858  -3.309   7.622  0.00  0.00    +0.000 C 
ATOM     17  C   LIG    1       -2.035  -2.477   6.637  0.00  0.00    +0.010 C 
ENDBRANCH   9  12
ENDBRANCH   3   6
BRANCH   1  18
ATOM     18  N   LIG    1        3.147   0.092  -1.106  0.00  0.00    -0.520 N 
ATOM     19  C   LIG    1        3.438  -1.214  -1.270  0.00  0.00    +0.560 C 
ATOM     20  O   LIG    1        2.961  -2.042  -0.519  0.00  0.00    -0.460 OA
BRANCH  19  21
ATOM     21  C   LIG    1        4.339  -1.638  -2.362  0.00  0.00    -0.130 A 
ATOM     22  C   LIG    1        5.544  -0.968  -2.578  0.00  0.00    +0.040 A 
ATOM     23  C   LIG    1        6.383  -1.373  -3.596  0.00  0.00    +0.010 A 
ATOM     24  C   LIG    1        6.026  -2.434  -4.409  0.00  0.00    +0.040 A 
ATOM     25  C   LIG    1        4.830  -3.099  -4.205  0.00  0.00    +0.010 A 
ATOM     26  C   LIG    1        3.985  -2.708  -3.187  0.00  0.00    +0.070 A 
ENDBRANCH  19  21
BRANCH  18  27
ATOM     27  C   LIG    1        3.808   1.100  -1.938  0.00  0.00    +0.320 C 
BRANCH  27  29
ATOM     28  C   LIG    1        5.557   2.643  -1.215  0.00  0.00    +0.060 C 
ATOM     29  C   LIG    1        4.330   2.210  -1.063  0.00  0.00    -0.080 C 
ENDBRANCH  27  29
ENDBRANCH  18  27
ENDBRANCH   1  18
TORSDOF 6
