REMARK  Name = ZINCnE00000hdaZm.0
REMARK                            x       y       z     vdW  Elec       q    Type
REMARK                         _______ _______ _______ _____ _____    ______ ____
ROOT
ATOM      1  C   LIG    1       -0.525  -1.004   0.143  0.00  0.00    +0.090 C 
ATOM      2  C   LIG    1       -1.117  -0.540   1.476  0.00  0.00    +0.030 C 
ATOM      3  C   LIG    1       -2.609  -0.250   1.299  0.00  0.00    +0.020 C 
ATOM      4  C   LIG    1       -2.789   0.874   0.274  0.00  0.00    +0.280 C 
ATOM      5  N   LIG    1       -2.096   0.497  -0.967  0.00  0.00    -0.610 N 
ATOM      6  C   LIG    1       -2.748   0.504  -2.146  0.00  0.00    +0.610 C 
ATOM      7  O   LIG    1       -3.946   0.712  -2.178  0.00  0.00    -0.530 OA
ATOM      8  C   LIG    1       -0.680   0.111  -0.896  0.00  0.00    +0.290 C 
ENDROOT
BRANCH   1  12
ATOM      9  C   LIG    1        2.772  -2.580   0.319  0.00  0.00    +0.070 A 
ATOM     10  C   LIG    1        3.361  -1.455   0.735  0.00  0.00    -0.080 A 
ATOM     11  S   LIG    1        2.124  -0.204   0.843  0.00  0.00    +0.120 S 
ATOM     12  C   LIG    1        0.937  -1.321   0.326  0.00  0.00    +0.060 A 
ATOM     13  N   LIG    1        1.476  -2.474   0.109  0.00  0.00    -0.460 NA
BRANCH   9  15
ATOM     14  C   LIG    1        3.642  -4.617   1.433  0.00  0.00    +0.030 C 
ATOM     15  C   LIG    1        3.530  -3.865   0.105  0.00  0.00    +0.110 C 
ENDBRANCH   9  15
ENDBRANCH   1  12
BRANCH   6  16
ATOM     16  C   LIG    1       -2.009   0.261  -3.397  0.00  0.00    -0.310 A 
ATOM     17  C   LIG    1       -2.529  -0.328  -4.516  0.00  0.00    +0.090 A 
ATOM     18  C   LIG    1       -1.653  -0.449  -5.559  0.00  0.00    +0.000 A 
ATOM     19  C   LIG    1       -0.399   0.040  -5.312  0.00  0.00    -0.180 A 
ATOM     20  S   LIG    1       -0.328   0.691  -3.680  0.00  0.00    +0.180 S 
BRANCH  19  21
ATOM     21  C   LIG    1        0.716   0.028  -6.266  0.00  0.00    +0.540 C 
ATOM     22  O   LIG    1        1.802   0.491  -5.944  0.00  0.00    -0.680 OA
ATOM     23  O   LIG    1        0.560  -0.447  -7.384  0.00  0.00    -0.660 OA
ENDBRANCH  19  21
ENDBRANCH   6  16
TORSDOF 4
