REMARK  Name = ZINCpe00000gNa6h.0
REMARK                            x       y       z     vdW  Elec       q    Type
REMARK                         _______ _______ _______ _____ _____    ______ ____
ROOT
ATOM      1  O   LIG    1        2.458   5.134   0.007  0.00  0.00    -0.490 OA
ATOM      2  C   LIG    1        2.429   3.919   0.000  0.00  0.00    +0.570 A 
ATOM      3  N   LIG    1        3.571   3.198  -0.014  0.00  0.00    -0.660 N 
ATOM      4  H   LIG    1        4.425   3.660  -0.019  0.00  0.00    +0.430 HD
ATOM      5  C   LIG    1        3.549   1.856  -0.021  0.00  0.00    +0.700 A 
ATOM      6  N   LIG    1        2.407   1.147  -0.014  0.00  0.00    -0.540 N 
ATOM      7  C   LIG    1        1.177   1.788   0.000  0.00  0.00    +0.200 A 
ATOM      8  C   LIG    1       -0.013   1.076   0.008  0.00  0.00    -0.030 A 
ATOM      9  C   LIG    1       -1.216   1.753   0.017  0.00  0.00    +0.100 A 
ATOM     10  C   LIG    1       -1.248   3.138   0.031  0.00  0.00    -0.010 A 
ATOM     11  C   LIG    1       -0.074   3.864   0.024  0.00  0.00    +0.140 A 
ATOM     12  O   LIG    1        4.606   1.257  -0.034  0.00  0.00    -0.540 OA
ATOM     13  C   LIG    1        1.146   3.193   0.008  0.00  0.00    -0.200 A 
ENDROOT
BRANCH   6  14
ATOM     14  C   LIG    1        2.463  -0.317  -0.023  0.00  0.00    +0.350 C 
BRANCH  14  15
ATOM     15  C   LIG    1        2.469  -0.819  -1.468  0.00  0.00    +0.040 C 
BRANCH  15  16
ATOM     16  C   LIG    1        2.526  -2.325  -1.477  0.00  0.00    +0.520 C 
ATOM     17  N   LIG    1        2.541  -2.992  -2.648  0.00  0.00    -0.600 N 
ATOM     18  C   LIG    1        2.500  -2.204  -3.873  0.00  0.00    +0.240 C 
ATOM     19  C   LIG    1        3.108  -3.019  -5.020  0.00  0.00    +0.220 C 
ATOM     20  O   LIG    1        2.450  -4.291  -5.036  0.00  0.00    -0.370 OA
ATOM     21  C   LIG    1        2.786  -5.128  -3.935  0.00  0.00    +0.160 C 
ATOM     22  C   LIG    1        1.869  -6.364  -3.945  0.00  0.00    +0.040 C 
ATOM     23  C   LIG    1        1.186  -6.426  -2.569  0.00  0.00    +0.020 C 
ATOM     24  C   LIG    1        1.317  -5.013  -1.970  0.00  0.00    +0.020 C 
ATOM     25  C   LIG    1        2.602  -4.433  -2.595  0.00  0.00    +0.200 C 
ATOM     26  O   LIG    1        2.559  -2.936  -0.430  0.00  0.00    -0.530 OA
ENDBRANCH  15  16
ENDBRANCH  14  15
ENDBRANCH   6  14
TORSDOF 3
