REMARK  Name = ZINCrg00001JduVP.0
REMARK                            x       y       z     vdW  Elec       q    Type
REMARK                         _______ _______ _______ _____ _____    ______ ____
ROOT
ATOM      1  C   LIG    1        0.394   1.244   2.591  0.00  0.00    +0.540 C 
ATOM      2  N   LIG    1        0.272   1.706   3.851  0.00  0.00    -0.600 N 
ATOM      3  C   LIG    1       -0.808   2.578   4.346  0.00  0.00    +0.230 C 
ATOM      4  C   LIG    1       -0.203   3.302   5.574  0.00  0.00    +0.180 C 
ATOM      5  C   LIG    1        0.669   2.180   6.198  0.00  0.00    +0.070 C 
ATOM      6  C   LIG    1        1.192   1.418   4.962  0.00  0.00    +0.230 C 
ATOM      7  O   LIG    1        1.295   0.483   2.309  0.00  0.00    -0.520 OA
ENDROOT
BRANCH   6   8
ATOM      8  C   LIG    1        1.212  -0.063   5.240  0.00  0.00    +0.520 C 
ATOM      9  N   LIG    1        1.991  -0.553   6.224  0.00  0.00    -0.620 N 
ATOM     10  C   LIG    1        2.872   0.239   7.095  0.00  0.00    +0.230 C 
ATOM     11  C   LIG    1        3.540  -0.740   8.084  0.00  0.00    +0.040 C 
ATOM     12  C   LIG    1        2.575  -1.954   8.079  0.00  0.00    +0.020 C 
ATOM     13  C   LIG    1        2.106  -1.974   6.602  0.00  0.00    +0.260 C 
ATOM     14  O   LIG    1        0.526  -0.814   4.579  0.00  0.00    -0.510 OA
BRANCH  12  15
ATOM     15  C   LIG    1        3.315  -3.245   8.436  0.00  0.00    +0.070 C 
BRANCH  15  16
ATOM     16  C   LIG    1        3.646  -3.243   9.906  0.00  0.00    +0.510 C 
ATOM     17  N   LIG    1        4.303  -4.287  10.450  0.00  0.00    -0.740 N 
ATOM     18  H   LIG    1        4.562  -5.039   9.896  0.00  0.00    +0.400 HD
ATOM     19  C   LIG    1        4.625  -4.285  11.879  0.00  0.00    +0.290 C 
ATOM     20  O   LIG    1        3.322  -2.303  10.600  0.00  0.00    -0.530 OA
ENDBRANCH  15  16
ENDBRANCH  12  15
ENDBRANCH   6   8
BRANCH   4  21
ATOM     21  O   LIG    1        0.601   4.412   5.170  0.00  0.00    -0.550 OA
ATOM     22  H   LIG    1        0.115   5.095   4.688  0.00  0.00    +0.380 HD
ENDBRANCH   4  21
BRANCH   1  23
ATOM     23  C   LIG    1       -0.589   1.673   1.533  0.00  0.00    +0.000 C 
BRANCH  23  25
ATOM     24  C   LIG    1       -1.510   3.633   0.286  0.00  0.00    +0.030 C 
ATOM     25  C   LIG    1       -0.432   3.172   1.269  0.00  0.00    +0.020 C 
ENDBRANCH  23  25
BRANCH  23  26
ATOM     26  C   LIG    1       -0.320   0.897   0.242  0.00  0.00    +0.040 C 
BRANCH  26  27
ATOM     27  C   LIG    1       -0.628  -0.585   0.464  0.00  0.00    -0.010 C 
ATOM     28  C   LIG    1       -0.220  -1.382  -0.776  0.00  0.00    +0.010 C 
ATOM     29  C   LIG    1       -2.128  -0.762   0.713  0.00  0.00    +0.000 C 
ENDBRANCH  26  27
ENDBRANCH  23  26
ENDBRANCH   1  23
TORSDOF 8
