REMARK  Name = ZINCAx0000000jc3.0
REMARK                            x       y       z     vdW  Elec       q    Type
REMARK                         _______ _______ _______ _____ _____    ______ ____
ROOT
ATOM      1  C   LIG    1       -0.754  -1.097   0.180  0.00  0.00    +0.250 C 
ENDROOT
BRANCH   1   2
ATOM      2  C   LIG    1       -0.780  -2.079  -0.994  0.00  0.00    +0.000 C 
ATOM      3  C   LIG    1       -0.778  -1.301  -2.313  0.00  0.00    +0.000 C 
ATOM      4  C   LIG    1       -0.886  -2.288  -3.478  0.00  0.00    +0.200 C 
ATOM      5  O   LIG    1       -2.070  -3.073  -3.330  0.00  0.00    -0.380 OA
ATOM      6  C   LIG    1       -2.104  -3.859  -2.137  0.00  0.00    +0.210 C 
ATOM      7  C   LIG    1       -2.047  -2.935  -0.917  0.00  0.00    -0.020 C 
ENDBRANCH   1   2
BRANCH   1   8
ATOM      8  C   LIG    1        0.426  -0.172   0.034  0.00  0.00    +0.000 A 
ATOM      9  C   LIG    1        0.397   1.182   0.020  0.00  0.00    +0.150 A 
ATOM     10  N   LIG    1        1.680   1.585  -0.131  0.00  0.00    -0.290 N 
ATOM     11  N   LIG    1        2.426   0.538  -0.201  0.00  0.00    -0.080 NA
ATOM     12  N   LIG    1        1.709  -0.525  -0.106  0.00  0.00    -0.230 NA
BRANCH  10  13
ATOM     13  C   LIG    1        2.141   2.974  -0.202  0.00  0.00    +0.270 C 
BRANCH  13  14
ATOM     14  C   LIG    1        1.110   3.809  -0.917  0.00  0.00    +0.520 C 
ATOM     15  O   LIG    1        0.160   4.253  -0.307  0.00  0.00    -0.510 OA
ATOM     16  N   LIG    1        1.244   4.062  -2.234  0.00  0.00    -0.840 N 
ATOM     17  H   LIG    1        0.620   4.656  -2.679  0.00  0.00    +0.410 HD
ATOM     18  H   LIG    1        1.964   3.651  -2.736  0.00  0.00    +0.410 HD
ENDBRANCH  13  14
BRANCH  13  19
ATOM     19  C   LIG    1        2.344   3.517   1.214  0.00  0.00    +0.120 C 
BRANCH  19  20
ATOM     20  C   LIG    1        2.952   4.893   1.142  0.00  0.00    -0.100 A 
ATOM     21  C   LIG    1        4.321   5.038   1.011  0.00  0.00    +0.010 A 
ATOM     22  C   LIG    1        4.878   6.301   0.940  0.00  0.00    +0.010 A 
ATOM     23  C   LIG    1        4.069   7.419   1.010  0.00  0.00    +0.010 A 
ATOM     24  C   LIG    1        2.701   7.274   1.145  0.00  0.00    +0.000 A 
ATOM     25  C   LIG    1        2.143   6.011   1.211  0.00  0.00    +0.030 A 
ENDBRANCH  19  20
ENDBRANCH  13  19
ENDBRANCH  10  13
ENDBRANCH   1   8
BRANCH   1  26
ATOM     26  N   LIG    1       -0.639  -1.843   1.440  0.00  0.00    -0.670 NA
ATOM     27  H   LIG    1       -1.079  -2.748   1.366  0.00  0.00    +0.350 HD
BRANCH  26  28
ATOM     28  C   LIG    1       -1.200  -1.075   2.560  0.00  0.00    +0.250 C 
BRANCH  28  31
ATOM     29  C   LIG    1        0.434  -2.256   5.756  0.00  0.00    +0.140 A 
ATOM     30  C   LIG    1        0.205  -1.576   4.568  0.00  0.00    +0.080 A 
ATOM     31  C   LIG    1       -0.951  -1.813   3.850  0.00  0.00    -0.040 A 
ATOM     32  C   LIG    1       -1.882  -2.723   4.316  0.00  0.00    +0.060 A 
ATOM     33  C   LIG    1       -1.654  -3.405   5.497  0.00  0.00    -0.000 A 
ATOM     34  C   LIG    1       -0.500  -3.172   6.219  0.00  0.00    +0.010 A 
BRANCH  33  35
ATOM     35  N   LIG    1       -2.650  -4.383   5.990  0.00  0.00    +0.030 N 
ATOM     36  O   LIG    1       -3.668  -4.589   5.353  0.00  0.00    -0.150 OA
ATOM     37  O   LIG    1       -2.451  -4.981   7.032  0.00  0.00    -0.160 OA
ENDBRANCH  33  35
BRANCH  29  39
ATOM     38  C   LIG    1        1.739  -2.760   7.678  0.00  0.00    +0.250 C 
ATOM     39  O   LIG    1        1.570  -2.025   6.465  0.00  0.00    -0.300 OA
ENDBRANCH  29  39
ENDBRANCH  28  31
ENDBRANCH  26  28
ENDBRANCH   1  26
TORSDOF 11
