REMARK  Name = ZINCpk00000ealvL.0
REMARK                            x       y       z     vdW  Elec       q    Type
REMARK                         _______ _______ _______ _____ _____    ______ ____
ROOT
ATOM      1  C   LIG    1       -0.019   1.527   0.010  0.00  0.00    +0.260 C 
ATOM      2  C   LIG    1        1.421   2.049  -0.001  0.00  0.00    +0.050 C 
ATOM      3  C   LIG    1        2.147   1.502  -1.231  0.00  0.00    +0.210 C 
ATOM      4  N   LIG    1        2.141   0.034  -1.192  0.00  0.00    -0.480 N 
ATOM      5  C   LIG    1        0.770  -0.492  -1.228  0.00  0.00    +0.220 C 
ATOM      6  C   LIG    1        0.002  -0.004   0.002  0.00  0.00    +0.040 C 
ENDROOT
BRANCH   1  11
ATOM      7  C   LIG    1       -3.351   1.904   4.422  0.00  0.00    +0.160 C 
ATOM      8  C   LIG    1       -3.528   2.611   3.058  0.00  0.00    +0.090 C 
ATOM      9  C   LIG    1       -2.110   3.053   2.664  0.00  0.00    +0.190 C 
ATOM     10  C   LIG    1       -1.813   2.771   1.211  0.00  0.00    +0.530 C 
ATOM     11  N   LIG    1       -0.702   2.001   1.216  0.00  0.00    -0.580 N 
ATOM     12  C   LIG    1       -0.302   1.730   2.470  0.00  0.00    +0.740 C 
ATOM     13  O   LIG    1        0.767   1.225   2.753  0.00  0.00    -0.520 OA
ATOM     14  O   LIG    1       -2.439   3.152   0.245  0.00  0.00    -0.460 OA
ATOM     15  N   LIG    1       -1.224   2.084   3.366  0.00  0.00    -0.640 N 
ATOM     16  C   LIG    1       -1.829   1.955   4.699  0.00  0.00    +0.320 C 
BRANCH   7  18
ATOM     17  C   LIG    1       -4.475   1.776   6.535  0.00  0.00    +0.220 C 
ATOM     18  O   LIG    1       -4.067   2.602   5.443  0.00  0.00    -0.370 OA
ENDBRANCH   7  18
ENDBRANCH   1  11
BRANCH   4  19
ATOM     19  C   LIG    1        2.905  -0.496  -2.225  0.00  0.00    +0.320 A 
ATOM     20  C   LIG    1        4.237  -0.118  -2.361  0.00  0.00    -0.050 A 
ATOM     21  C   LIG    1        4.986  -0.653  -3.393  0.00  0.00    +0.090 A 
ATOM     22  C   LIG    1        4.375  -1.551  -4.259  0.00  0.00    -0.070 A 
ATOM     23  C   LIG    1        3.049  -1.881  -4.066  0.00  0.00    +0.150 A 
ATOM     24  C   LIG    1        2.381  -2.855  -5.002  0.00  0.00    +0.130 C 
ATOM     25  N   LIG    1        2.360  -1.359  -3.069  0.00  0.00    -0.520 NA
ENDBRANCH   4  19
TORSDOF 3
