REMARK  Name = ZINCpe00000YQJI9.2
REMARK                            x       y       z     vdW  Elec       q    Type
REMARK                         _______ _______ _______ _____ _____    ______ ____
ROOT
ATOM      1  C   LIG    1       -2.816   1.315   2.393  0.00  0.00    +0.670 C 
ATOM      2  N   LIG    1       -4.054   0.796   2.519  0.00  0.00    -0.600 N 
ATOM      3  C   LIG    1       -4.691  -0.137   1.578  0.00  0.00    +0.240 C 
ATOM      4  C   LIG    1       -6.085  -0.478   2.146  0.00  0.00    +0.180 C 
ATOM      5  C   LIG    1       -5.936  -0.155   3.656  0.00  0.00    +0.140 C 
ATOM      6  C   LIG    1       -4.994   1.074   3.620  0.00  0.00    +0.310 C 
ATOM      7  O   LIG    1       -2.392   2.084   3.233  0.00  0.00    -0.570 OA
ENDROOT
BRANCH   5   8
ATOM      8  N   LIG    1       -7.234   0.194   4.250  0.00  0.00    -0.500 NA
ATOM      9  C   LIG    1       -7.075   0.624   5.648  0.00  0.00    +0.160 C 
ATOM     10  C   LIG    1       -8.366   1.313   6.093  0.00  0.00    +0.090 C 
ATOM     11  C   LIG    1       -9.552   0.444   5.766  0.00  0.00    -0.070 A 
ATOM     12  C   LIG    1      -10.761   0.712   6.390  0.00  0.00    +0.000 A 
ATOM     13  C   LIG    1      -11.874  -0.058   6.116  0.00  0.00    +0.000 A 
ATOM     14  C   LIG    1      -11.783  -1.101   5.213  0.00  0.00    +0.000 A 
ATOM     15  C   LIG    1      -10.579  -1.370   4.593  0.00  0.00    +0.000 A 
ATOM     16  C   LIG    1       -9.460  -0.599   4.868  0.00  0.00    -0.080 A 
ATOM     17  C   LIG    1       -8.169  -0.933   4.168  0.00  0.00    +0.230 C 
ENDBRANCH   5   8
BRANCH   4  18
ATOM     18  O   LIG    1       -7.086   0.348   1.548  0.00  0.00    -0.530 OA
ATOM     19  H   LIG    1       -7.218   0.186   0.604  0.00  0.00    +0.380 HD
ENDBRANCH   4  18
BRANCH   1  20
ATOM     20  O   LIG    1       -2.050   0.982   1.337  0.00  0.00    -0.360 OA
BRANCH  20  21
ATOM     21  C   LIG    1       -0.729   1.579   1.267  0.00  0.00    +0.260 C 
BRANCH  21  22
ATOM     22  C   LIG    1       -0.013   1.086   0.008  0.00  0.00    +0.210 C 
BRANCH  22  23
ATOM     23  O   LIG    1       -0.704   1.559  -1.150  0.00  0.00    -0.380 OA
BRANCH  23  24
ATOM     24  C   LIG    1       -0.114   1.152  -2.386  0.00  0.00    +0.330 C 
BRANCH  24  26
ATOM     25  C   LIG    1       -1.529   2.122  -4.400  0.00  0.00    +0.050 C 
ATOM     26  C   LIG    1       -0.901   1.692  -3.506  0.00  0.00    -0.200 C 
ENDBRANCH  24  26
ENDBRANCH  23  24
ENDBRANCH  22  23
ENDBRANCH  21  22
ENDBRANCH  20  21
ENDBRANCH   1  20
TORSDOF 8
