REMARK  Name = ZINCrg000000tR9c.0
REMARK                            x       y       z     vdW  Elec       q    Type
REMARK                         _______ _______ _______ _____ _____    ______ ____
ROOT
ATOM      1  C   LIG    1       -3.520   4.947   0.556  0.00  0.00    -0.680 A 
ATOM      2  C   LIG    1       -3.316   6.103  -0.176  0.00  0.00    +0.150 A 
ATOM      3  C   LIG    1       -4.264   6.526  -1.090  0.00  0.00    +0.000 A 
ATOM      4  C   LIG    1       -5.425   5.803  -1.270  0.00  0.00    +0.100 A 
ATOM      5  C   LIG    1       -5.639   4.638  -0.530  0.00  0.00    -0.150 A 
ATOM      6  C   LIG    1       -4.676   4.214   0.386  0.00  0.00    +0.180 A 
ENDROOT
BRANCH   5   7
ATOM      7  C   LIG    1       -6.880   3.857  -0.718  0.00  0.00    +0.570 C 
ATOM      8  N   LIG    1       -8.071   4.487  -0.770  0.00  0.00    -0.610 N 
ATOM      9  C   LIG    1       -9.324   3.724  -0.883  0.00  0.00    +0.310 C 
ATOM     10  C   LIG    1      -10.143   3.948   0.397  0.00  0.00    +0.110 C 
ATOM     11  C   LIG    1      -10.140   5.424   0.735  0.00  0.00    -0.170 A 
ATOM     12  C   LIG    1       -9.264   6.326   0.254  0.00  0.00    -0.130 A 
ATOM     13  C   LIG    1       -9.470   7.617   0.728  0.00  0.00    +0.010 A 
ATOM     14  C   LIG    1      -10.490   7.766   1.568  0.00  0.00    -0.040 A 
ATOM     15  S   LIG    1      -11.277   6.215   1.818  0.00  0.00    +0.110 S 
ATOM     16  C   LIG    1       -8.152   5.954  -0.720  0.00  0.00    +0.350 C 
ATOM     17  O   LIG    1       -6.827   2.648  -0.826  0.00  0.00    -0.520 OA
ENDBRANCH   5   7
BRANCH   1  18
ATOM     18  S   LIG    1       -2.303   4.413   1.714  0.00  0.00    +2.690 S 
ATOM     19  O   LIG    1       -1.557   5.568   2.072  0.00  0.00    -0.940 OA
ATOM     20  O   LIG    1       -2.980   3.600   2.662  0.00  0.00    -0.940 OA
BRANCH  18  24
ATOM     21  O   LIG    1       -0.211   0.054   1.246  0.00  0.00    -0.540 OA
ATOM     22  C   LIG    1       -0.188   1.250   1.042  0.00  0.00    +0.520 C 
ATOM     23  C   LIG    1       -1.492   1.965   0.817  0.00  0.00    +0.340 C 
ATOM     24  N   LIG    1       -1.259   3.415   0.903  0.00  0.00    -1.000 NA
ATOM     25  C   LIG    1       -0.060   3.944   0.231  0.00  0.00    +0.300 C 
ATOM     26  C   LIG    1        1.170   3.307   0.880  0.00  0.00    +0.280 C 
ATOM     27  N   LIG    1        0.993   1.869   1.023  0.00  0.00    -0.720 N 
ATOM     28  H   LIG    1        1.790   1.323   1.109  0.00  0.00    +0.400 HD
ENDBRANCH  18  24
ENDBRANCH   1  18
TORSDOF 3
