REMARK  Name = ZINCpk00000eakg2.0
REMARK                            x       y       z     vdW  Elec       q    Type
REMARK                         _______ _______ _______ _____ _____    ______ ____
ROOT
ATOM      1  C   LIG    1        1.529  -5.274   1.797  0.00  0.00    +0.170 C 
ATOM      2  C   LIG    1        1.516  -3.732   1.831  0.00  0.00    +0.070 C 
ATOM      3  C   LIG    1        0.061  -3.337   1.498  0.00  0.00    +0.220 C 
ATOM      4  N   LIG    1       -0.483  -4.497   0.746  0.00  0.00    -0.460 NA
ATOM      5  C   LIG    1        0.082  -5.681   1.446  0.00  0.00    +0.170 C 
ENDROOT
BRANCH   3   6
ATOM      6  C   LIG    1        0.036  -2.097   0.641  0.00  0.00    +0.210 A 
ATOM      7  N   LIG    1        0.024  -2.075  -0.663  0.00  0.00    -0.440 NA
ATOM      8  C   LIG    1       -0.003  -0.801  -1.083  0.00  0.00    -0.000 A 
ATOM      9  C   LIG    1        0.002  -0.004   0.002  0.00  0.00    -0.020 A 
ATOM     10  C   LIG    1       -0.018   1.503   0.010  0.00  0.00    +0.130 C 
ATOM     11  C   LIG    1       -0.029  -0.342  -2.519  0.00  0.00    +0.140 C 
ATOM     12  N   LIG    1        0.023  -0.826   1.097  0.00  0.00    -0.570 N 
ATOM     13  H   LIG    1        0.028  -0.547   2.026  0.00  0.00    +0.420 HD
ENDBRANCH   3   6
BRANCH   1  15
ATOM     14  C   LIG    1        2.577  -7.051   3.019  0.00  0.00    +0.210 C 
ATOM     15  O   LIG    1        1.896  -5.796   3.076  0.00  0.00    -0.380 OA
ENDBRANCH   1  15
BRANCH   4  16
ATOM     16  C   LIG    1       -1.951  -4.509   0.787  0.00  0.00    +0.220 C 
BRANCH  16  17
ATOM     17  C   LIG    1       -2.472  -5.543  -0.178  0.00  0.00    +0.520 C 
ATOM     18  N   LIG    1       -3.799  -5.733  -0.311  0.00  0.00    -0.650 N 
ATOM     19  H   LIG    1       -4.420  -5.204   0.214  0.00  0.00    +0.410 HD
ATOM     20  O   LIG    1       -1.696  -6.205  -0.835  0.00  0.00    -0.470 OA
BRANCH  18  21
ATOM     21  C   LIG    1       -4.281  -6.690  -1.204  0.00  0.00    +0.310 A 
ATOM     22  C   LIG    1       -3.529  -7.499  -1.999  0.00  0.00    -0.110 A 
ATOM     23  C   LIG    1       -4.400  -8.306  -2.735  0.00  0.00    +0.090 A 
ATOM     24  N   LIG    1       -5.627  -7.999  -2.400  0.00  0.00    -0.290 NA
ATOM     25  C   LIG    1       -3.996  -9.351  -3.743  0.00  0.00    +0.160 C 
ATOM     26  N   LIG    1       -5.581  -6.987  -1.433  0.00  0.00    -0.390 N 
ATOM     27  C   LIG    1       -6.735  -6.359  -0.786  0.00  0.00    +0.340 C 
ENDBRANCH  18  21
ENDBRANCH  16  17
ENDBRANCH   4  16
TORSDOF 5
