REMARK  Name = ZINCnE000001E558.0
REMARK                            x       y       z     vdW  Elec       q    Type
REMARK                         _______ _______ _______ _____ _____    ______ ____
ROOT
ATOM      1  S   LIG    1       -3.395   1.049  -1.324  0.00  0.00    +2.700 S 
ATOM      2  O   LIG    1       -3.389   2.400  -1.765  0.00  0.00    -0.950 OA
ATOM      3  O   LIG    1       -4.585   0.338  -1.014  0.00  0.00    -0.950 OA
ENDROOT
BRANCH   1   4
ATOM      4  C   LIG    1       -2.567   0.117  -2.569  0.00  0.00    -0.710 A 
ATOM      5  C   LIG    1       -1.627   0.730  -3.379  0.00  0.00    +0.140 A 
ATOM      6  C   LIG    1       -0.967   0.006  -4.355  0.00  0.00    -0.060 A 
ATOM      7  C   LIG    1       -1.251  -1.335  -4.536  0.00  0.00    +0.190 A 
ATOM      8  C   LIG    1       -2.205  -1.959  -3.724  0.00  0.00    -0.190 A 
ATOM      9  F   LIG    1       -0.611  -2.040  -5.494  0.00  0.00    -0.110 F 
ATOM     10  C   LIG    1       -2.862  -1.219  -2.736  0.00  0.00    +0.190 A 
BRANCH   8  11
ATOM     11  C   LIG    1       -2.515  -3.388  -3.909  0.00  0.00    +0.520 C 
ATOM     12  O   LIG    1       -1.938  -4.032  -4.774  0.00  0.00    -0.670 OA
ATOM     13  O   LIG    1       -3.349  -3.930  -3.196  0.00  0.00    -0.680 OA
ENDBRANCH   8  11
ENDBRANCH   1   4
BRANCH   1  14
ATOM     14  N   LIG    1       -2.451   0.998   0.036  0.00  0.00    -1.070 N 
ATOM     15  H   LIG    1       -2.783   0.570   0.841  0.00  0.00    +0.420 HD
BRANCH  14  19
ATOM     16  C   LIG    1        1.347   2.703  -0.005  0.00  0.00    -0.070 A 
ATOM     17  C   LIG    1        1.208   1.328  -0.047  0.00  0.00    +0.020 A 
ATOM     18  C   LIG    1       -0.050   0.759  -0.029  0.00  0.00    +0.020 A 
ATOM     19  C   LIG    1       -1.177   1.570   0.024  0.00  0.00    +0.120 A 
ATOM     20  C   LIG    1       -1.033   2.951   0.071  0.00  0.00    +0.030 A 
ATOM     21  C   LIG    1        0.228   3.513   0.053  0.00  0.00    +0.020 A 
BRANCH  16  23
ATOM     22  C   LIG    1        2.856   4.229  -1.248  0.00  0.00    +0.030 C 
ATOM     23  C   LIG    1        2.722   3.321  -0.024  0.00  0.00    +0.020 C 
ATOM     24  C   LIG    1        2.928   4.146   1.248  0.00  0.00    +0.040 C 
ENDBRANCH  16  23
ENDBRANCH  14  19
ENDBRANCH   1  14
TORSDOF 5
