REMARK  Name = ZINCpk000000pVRq.0
REMARK                            x       y       z     vdW  Elec       q    Type
REMARK                         _______ _______ _______ _____ _____    ______ ____
ROOT
ATOM      1  N   LIG    1       -2.428   3.880  -0.378  0.00  0.00    -0.480 N 
ATOM      2  C   LIG    1       -2.627   4.816   0.738  0.00  0.00    +0.200 C 
ATOM      3  C   LIG    1       -3.942   5.573   0.537  0.00  0.00    +0.200 C 
ATOM      4  N   LIG    1       -5.050   4.611   0.456  0.00  0.00    -0.480 N 
ATOM      5  C   LIG    1       -4.851   3.675  -0.660  0.00  0.00    +0.210 C 
ATOM      6  C   LIG    1       -3.536   2.918  -0.459  0.00  0.00    +0.200 C 
ENDROOT
BRANCH   1  15
ATOM      7  C   LIG    1       -0.132   4.085  -2.528  0.00  0.00    -0.120 A 
ATOM      8  C   LIG    1        1.081   3.812  -3.037  0.00  0.00    +0.230 A 
ATOM      9  N   LIG    1        1.760   2.972  -2.193  0.00  0.00    -0.570 N 
ATOM     10  H   LIG    1        2.657   2.635  -2.346  0.00  0.00    +0.420 HD
ATOM     11  C   LIG    1        0.989   2.679  -1.102  0.00  0.00    +0.320 A 
ATOM     12  N   LIG    1        1.163   1.933  -0.013  0.00  0.00    -0.530 NA
ATOM     13  C   LIG    1        0.215   1.837   0.894  0.00  0.00    +0.530 A 
ATOM     14  N   LIG    1       -0.946   2.457   0.782  0.00  0.00    -0.570 NA
ATOM     15  C   LIG    1       -1.212   3.229  -0.267  0.00  0.00    +0.400 A 
ATOM     16  C   LIG    1       -0.231   3.363  -1.261  0.00  0.00    -0.170 A 
BRANCH   7  18
ATOM     17  C   LIG    1       -1.083   6.375  -2.554  0.00  0.00    +0.020 C 
ATOM     18  C   LIG    1       -1.187   4.967  -3.144  0.00  0.00    +0.100 C 
ENDBRANCH   7  18
ENDBRANCH   1  15
BRANCH   4  19
ATOM     19  C   LIG    1       -6.277   5.269   0.344  0.00  0.00    +0.170 A 
ATOM     20  C   LIG    1       -6.658   6.100  -0.668  0.00  0.00    +0.050 A 
ATOM     21  C   LIG    1       -7.957   6.543  -0.392  0.00  0.00    +0.040 A 
ATOM     22  N   LIG    1       -8.346   6.007   0.737  0.00  0.00    -0.270 NA
ATOM     23  C   LIG    1       -8.769   7.480  -1.249  0.00  0.00    +0.140 C 
ATOM     24  N   LIG    1       -7.314   5.195   1.223  0.00  0.00    -0.350 N 
ATOM     25  C   LIG    1       -7.343   4.408   2.458  0.00  0.00    +0.350 C 
BRANCH  20  26
ATOM     26  N   LIG    1       -5.881   6.450  -1.796  0.00  0.00    -0.870 N 
ATOM     27  H   LIG    1       -6.242   7.051  -2.466  0.00  0.00    +0.400 HD
ATOM     28  H   LIG    1       -4.986   6.089  -1.900  0.00  0.00    +0.390 HD
ENDBRANCH  20  26
ENDBRANCH   4  19
TORSDOF 4
