REMARK  Name = ZINCrD00000F5LlC.0
REMARK                            x       y       z     vdW  Elec       q    Type
REMARK                         _______ _______ _______ _____ _____    ______ ____
ROOT
ATOM      1  C   LIG    1        1.507   5.983   1.456  0.00  0.00    +0.020 C 
ATOM      2  C   LIG    1        1.222   5.540   0.019  0.00  0.00    +0.240 C 
ENDROOT
BRANCH   2   3
ATOM      3  N   LIG    1        0.789   4.141   0.016  0.00  0.00    -0.700 N 
ATOM      4  H   LIG    1       -0.157   3.926   0.025  0.00  0.00    +0.410 HD
ATOM      5  C   LIG    1        1.705   3.152   0.002  0.00  0.00    +0.610 C 
ATOM      6  O   LIG    1        2.890   3.422  -0.008  0.00  0.00    -0.530 OA
BRANCH   5   7
ATOM      7  C   LIG    1        1.269   1.744  -0.001  0.00  0.00    -0.070 A 
ATOM      8  C   LIG    1        2.076   0.648  -0.014  0.00  0.00    +0.310 A 
ATOM      9  O   LIG    1        1.274  -0.429  -0.012  0.00  0.00    -0.160 OA
ATOM     10  C   LIG    1        0.002  -0.004   0.002  0.00  0.00    +0.110 A 
ATOM     11  N   LIG    1       -0.015   1.295   0.009  0.00  0.00    -0.390 NA
BRANCH  10  12
ATOM     12  C   LIG    1       -1.215  -0.893   0.010  0.00  0.00    +0.430 C 
ATOM     13 BR   LIG    1       -0.650  -2.776  -0.006  0.00  0.00    -0.030 Br
ATOM     14  F   LIG    1       -1.992  -0.630  -1.123  0.00  0.00    -0.130 F 
ATOM     15  F   LIG    1       -1.969  -0.642   1.161  0.00  0.00    -0.130 F 
ENDBRANCH  10  12
ENDBRANCH   5   7
ENDBRANCH   2   3
BRANCH   2  16
ATOM     16  C   LIG    1        0.118   6.417  -0.575  0.00  0.00    +0.040 C 
BRANCH  16  17
ATOM     17  C   LIG    1       -0.081   6.058  -2.049  0.00  0.00    -0.020 C 
ATOM     18  C   LIG    1        1.183   6.414  -2.837  0.00  0.00    +0.050 C 
ATOM     19  C   LIG    1        0.956   6.111  -4.320  0.00  0.00    +0.200 C 
ATOM     20  N   LIG    1       -0.187   6.891  -4.812  0.00  0.00    -0.460 N 
ATOM     21  C   LIG    1       -1.421   6.530  -4.102  0.00  0.00    +0.210 C 
ATOM     22  C   LIG    1       -1.265   6.847  -2.613  0.00  0.00    +0.050 C 
BRANCH  20  23
ATOM     23  C   LIG    1       -0.340   6.739  -6.179  0.00  0.00    +0.490 A 
ATOM     24  N   LIG    1       -1.498   6.310  -6.657  0.00  0.00    -0.550 NA
ATOM     25  C   LIG    1       -1.679   6.159  -7.959  0.00  0.00    +0.340 A 
ATOM     26  C   LIG    1       -0.634   6.445  -8.824  0.00  0.00    -0.110 A 
ATOM     27  C   LIG    1        0.567   6.886  -8.290  0.00  0.00    +0.340 A 
ATOM     28  N   LIG    1        0.679   7.020  -6.979  0.00  0.00    -0.530 NA
ENDBRANCH  20  23
ENDBRANCH  16  17
ENDBRANCH   2  16
TORSDOF 6
