REMARK  Name = ZINCnE000001TqHM.0
REMARK                            x       y       z     vdW  Elec       q    Type
REMARK                         _______ _______ _______ _____ _____    ______ ____
ROOT
ATOM      1  O   LIG    1       -1.215   5.765  -1.533  0.00  0.00    -0.510 OA
ATOM      2  C   LIG    1       -2.237   5.141  -1.340  0.00  0.00    +0.510 C 
ATOM      3  N   LIG    1       -3.397   5.795  -1.135  0.00  0.00    -0.660 N 
ATOM      4  H   LIG    1       -4.227   5.298  -1.057  0.00  0.00    +0.410 HD
ENDROOT
BRANCH   2   5
ATOM      5  C   LIG    1       -2.209   3.633  -1.330  0.00  0.00    -0.010 C 
ATOM      6  C   LIG    1       -2.714   3.130   0.022  0.00  0.00    +0.060 C 
ATOM      7  C   LIG    1       -2.717   1.596   0.035  0.00  0.00    -0.030 C 
ATOM      8  C   LIG    1       -1.765   1.105   1.133  0.00  0.00    +0.040 C 
ATOM      9  C   LIG    1       -0.352   1.620   0.871  0.00  0.00    +0.020 C 
ATOM     10  C   LIG    1        0.170   1.130  -0.478  0.00  0.00    +0.040 C 
ATOM     11  C   LIG    1       -0.745   1.621  -1.607  0.00  0.00    -0.040 C 
ATOM     12  C   LIG    1       -2.150   1.129  -1.297  0.00  0.00    +0.370 C 
ATOM     13  O   LIG    1       -2.770   0.421  -2.053  0.00  0.00    -0.450 OA
ATOM     14  C   LIG    1       -0.780   3.155  -1.586  0.00  0.00    +0.080 C 
ENDBRANCH   2   5
BRANCH   3  15
ATOM     15  C   LIG    1       -3.406   7.192  -1.034  0.00  0.00    +0.120 A 
ATOM     16  C   LIG    1       -4.497   7.914  -1.502  0.00  0.00    -0.010 A 
ATOM     17  C   LIG    1       -4.509   9.292  -1.404  0.00  0.00    +0.050 A 
ATOM     18  C   LIG    1       -3.431   9.954  -0.838  0.00  0.00    +0.040 A 
ATOM     19  N   LIG    1       -3.153  11.302  -0.603  0.00  0.00    -0.540 NA
ATOM     20  C   LIG    1       -1.941  11.369  -0.018  0.00  0.00    +0.400 A 
ATOM     21  O   LIG    1       -1.445  10.129   0.126  0.00  0.00    -0.230 OA
ATOM     22  S   LIG    1       -1.156  12.810   0.468  0.00  0.00    -0.690 S 
ATOM     23  C   LIG    1       -2.334   9.233  -0.367  0.00  0.00    +0.000 A 
ATOM     24  C   LIG    1       -2.327   7.851  -0.462  0.00  0.00    +0.050 A 
ENDBRANCH   3  15
TORSDOF 2
