REMARK  Name = ZINCqH0000007P6k.0
REMARK                            x       y       z     vdW  Elec       q    Type
REMARK                         _______ _______ _______ _____ _____    ______ ____
ROOT
ATOM      1  N   LIG    1        4.320  -0.042  -1.713  0.00  0.00    -0.740 N 
ATOM      2  H   LIG    1        4.401   0.923  -1.655  0.00  0.00    +0.390 HD
ATOM      3  C   LIG    1        3.121  -0.629  -1.530  0.00  0.00    +0.710 C 
ATOM      4  N   LIG    1        2.018   0.128  -1.367  0.00  0.00    -0.630 N 
ATOM      5  C   LIG    1        0.689  -0.494  -1.281  0.00  0.00    +0.300 C 
ATOM      6  C   LIG    1       -0.001  -0.008  -0.002  0.00  0.00    +0.010 C 
ATOM      7  C   LIG    1       -0.021   1.522   0.011  0.00  0.00    +0.230 C 
ATOM      8  C   LIG    1        1.415   2.053   0.005  0.00  0.00    +0.000 C 
ATOM      9  C   LIG    1        2.121   1.590  -1.273  0.00  0.00    +0.270 C 
ATOM     10  O   LIG    1        3.034  -1.842  -1.511  0.00  0.00    -0.590 OA
ENDROOT
BRANCH   7  11
ATOM     11  N   LIG    1       -0.709   1.991   1.217  0.00  0.00    -0.740 N 
ATOM     12  H   LIG    1       -0.744   1.427   2.005  0.00  0.00    +0.400 HD
BRANCH  11  13
ATOM     13  C   LIG    1       -1.315   3.249   1.231  0.00  0.00    +0.220 A 
ATOM     14  C   LIG    1       -1.261   4.060   0.104  0.00  0.00    -0.080 A 
ATOM     15  C   LIG    1       -1.865   5.302   0.120  0.00  0.00    +0.040 A 
ATOM     16  C   LIG    1       -2.514   5.743   1.259  0.00  0.00    -0.060 A 
ATOM     17  C   LIG    1       -2.566   4.940   2.383  0.00  0.00    +0.050 A 
ATOM     18  C   LIG    1       -1.968   3.695   2.373  0.00  0.00    -0.160 A 
ATOM     19  C   LIG    1       -2.025   2.821   3.599  0.00  0.00    +0.080 C 
ENDBRANCH  11  13
ENDBRANCH   7  11
BRANCH   1  20
ATOM     20  C   LIG    1        5.501  -0.861  -1.998  0.00  0.00    +0.340 C 
BRANCH  20  26
ATOM     21  C   LIG    1        7.356   0.527  -1.039  0.00  0.00    +0.140 A 
ATOM     22  C   LIG    1        8.467   1.343  -1.190  0.00  0.00    -0.080 A 
ATOM     23  C   LIG    1        8.915   1.670  -2.455  0.00  0.00    +0.060 A 
ATOM     24  C   LIG    1        8.261   1.180  -3.570  0.00  0.00    -0.030 A 
ATOM     25  C   LIG    1        7.156   0.361  -3.422  0.00  0.00    +0.070 A 
ATOM     26  C   LIG    1        6.704   0.031  -2.159  0.00  0.00    -0.150 A 
BRANCH  21  28
ATOM     27  C   LIG    1        7.629   0.755   1.312  0.00  0.00    +0.250 C 
ATOM     28  O   LIG    1        6.909   0.209   0.205  0.00  0.00    -0.310 OA
ENDBRANCH  21  28
ENDBRANCH  20  26
ENDBRANCH   1  20
TORSDOF 5
