REMARK  Name = ZINCrD0000073nbp.1
REMARK                            x       y       z     vdW  Elec       q    Type
REMARK                         _______ _______ _______ _____ _____    ______ ____
ROOT
ATOM      1  C   LIG    1        3.240  -2.740   0.058  0.00  0.00    +0.560 C 
ATOM      2  N   LIG    1        4.120  -1.724  -0.045  0.00  0.00    -0.630 N 
ATOM      3  H   LIG    1        5.067  -1.911  -0.145  0.00  0.00    +0.420 HD
ATOM      4  O   LIG    1        2.046  -2.510   0.070  0.00  0.00    -0.520 OA
ENDROOT
BRANCH   1   8
ATOM      5  C   LIG    1        4.635  -6.731   0.344  0.00  0.00    +0.170 A 
ATOM      6  C   LIG    1        5.545  -5.690   0.237  0.00  0.00    -0.080 A 
ATOM      7  C   LIG    1        5.096  -4.391   0.138  0.00  0.00    +0.090 A 
ATOM      8  C   LIG    1        3.726  -4.130   0.158  0.00  0.00    -0.180 A 
ATOM      9  C   LIG    1        2.809  -5.184   0.266  0.00  0.00    +0.040 A 
ATOM     10  C   LIG    1        1.337  -4.858   0.282  0.00  0.00    +0.120 C 
ATOM     11  C   LIG    1        0.520  -6.116  -0.012  0.00  0.00    +0.170 C 
ATOM     12  N   LIG    1        0.986  -7.193   0.876  0.00  0.00    -0.690 NA
ATOM     13  H   LIG    1        0.331  -7.961   0.888  0.00  0.00    +0.350 HD
ATOM     14  C   LIG    1        2.319  -7.646   0.468  0.00  0.00    +0.250 C 
ATOM     15  C   LIG    1        3.263  -6.477   0.356  0.00  0.00    -0.120 A 
BRANCH   5  17
ATOM     16  C   LIG    1        6.498  -8.204   0.418  0.00  0.00    +0.250 C 
ATOM     17  O   LIG    1        5.082  -8.009   0.437  0.00  0.00    -0.310 OA
ENDBRANCH   5  17
ENDBRANCH   1   8
BRANCH   2  18
ATOM     18  C   LIG    1        3.669  -0.401  -0.009  0.00  0.00    +0.160 A 
ATOM     19  C   LIG    1        4.237   0.663  -0.633  0.00  0.00    +0.060 A 
ATOM     20  N   LIG    1        3.515   1.753  -0.358  0.00  0.00    -0.470 NA
ATOM     21  C   LIG    1        2.500   1.419   0.425  0.00  0.00    +0.230 A 
ATOM     22  C   LIG    1        1.456   2.172   0.999  0.00  0.00    +0.060 A 
ATOM     23  C   LIG    1        0.534   1.547   1.779  0.00  0.00    +0.050 A 
ATOM     24  C   LIG    1        0.633   0.163   2.004  0.00  0.00    -0.010 A 
ATOM     25  C   LIG    1        1.636  -0.547   1.449  0.00  0.00    +0.260 A 
ATOM     26  N   LIG    1        2.571   0.067   0.663  0.00  0.00    -0.360 N 
BRANCH  19  27
ATOM     27  C   LIG    1        5.474   0.621  -1.493  0.00  0.00    +0.060 C 
ATOM     28  C   LIG    1        6.545   1.532  -0.890  0.00  0.00    +0.040 C 
ATOM     29  C   LIG    1        5.131   1.103  -2.904  0.00  0.00    +0.040 C 
ENDBRANCH  19  27
ENDBRANCH   2  18
TORSDOF 4
