REMARK  Name = ZINCpe000000Y2dd.0
REMARK                            x       y       z     vdW  Elec       q    Type
REMARK                         _______ _______ _______ _____ _____    ______ ____
ROOT
ATOM      1  C   LIG    1        4.888   4.266  -0.156  0.00  0.00    +0.130 C 
ATOM      2  C   LIG    1        3.594   3.495  -0.093  0.00  0.00    +0.160 A 
ATOM      3  N   LIG    1        2.992   3.149  -1.213  0.00  0.00    -0.490 NA
ATOM      4  C   LIG    1        1.857   2.466  -1.212  0.00  0.00    +0.130 A 
ATOM      5  C   LIG    1        1.250   2.098   0.001  0.00  0.00    -0.170 A 
ATOM      6  C   LIG    1        1.874   2.456   1.202  0.00  0.00    +0.010 A 
ATOM      7  C   LIG    1        1.268   2.080   2.529  0.00  0.00    +0.130 C 
ATOM      8  C   LIG    1        3.061   3.164   1.141  0.00  0.00    -0.150 A 
ATOM      9  C   LIG    1        3.768   3.571   2.407  0.00  0.00    +0.120 C 
ENDROOT
BRANCH   5  10
ATOM     10  C   LIG    1       -0.016   1.344   0.009  0.00  0.00    +0.580 C 
ATOM     11  O   LIG    1       -1.077   1.937   0.018  0.00  0.00    -0.520 OA
ATOM     12  N   LIG    1        0.002  -0.004   0.002  0.00  0.00    -0.840 N 
ATOM     13  H   LIG    1       -0.831  -0.500   0.007  0.00  0.00    +0.410 HD
ATOM     14  H   LIG    1        0.849  -0.478  -0.009  0.00  0.00    +0.400 HD
ENDBRANCH   5  10
BRANCH   4  15
ATOM     15  S   LIG    1        1.099   2.023  -2.740  0.00  0.00    +0.030 S 
BRANCH  15  16
ATOM     16  C   LIG    1        2.290   2.738  -3.901  0.00  0.00    +0.110 C 
BRANCH  16  17
ATOM     17  C   LIG    1        1.835   2.475  -5.313  0.00  0.00    +0.530 C 
ATOM     18  N   LIG    1        2.571   2.919  -6.352  0.00  0.00    -0.720 N 
ATOM     19  H   LIG    1        3.393   3.408  -6.190  0.00  0.00    +0.410 HD
ATOM     20  O   LIG    1        0.807   1.864  -5.516  0.00  0.00    -0.510 OA
BRANCH  18  21
ATOM     21  C   LIG    1        2.129   2.663  -7.725  0.00  0.00    +0.190 C 
ATOM     22  C   LIG    1        3.135   3.276  -8.715  0.00  0.00    +0.100 C 
ATOM     23  C   LIG    1        4.402   2.382  -8.670  0.00  0.00    -0.310 C 
ATOM     24  S   LIG    1        3.696   0.691  -8.645  0.00  0.00    +2.390 S 
ATOM     25  O   LIG    1        4.395  -0.098  -7.693  0.00  0.00    -0.930 OA
ATOM     26  O   LIG    1        3.544   0.225  -9.979  0.00  0.00    -0.930 OA
ATOM     27  C   LIG    1        0.748   3.284  -7.945  0.00  0.00    +0.070 C 
ATOM     28  C   LIG    1        2.060   1.143  -7.972  0.00  0.00    -0.300 C 
ENDBRANCH  18  21
ENDBRANCH  16  17
ENDBRANCH  15  16
ENDBRANCH   4  15
TORSDOF 5
