REMARK  Name = ZINCvU0000000Cvp.0
REMARK                            x       y       z     vdW  Elec       q    Type
REMARK                         _______ _______ _______ _____ _____    ______ ____
ROOT
ATOM      1  N   LIG    1        3.014   5.799  -2.260  0.00  0.00    -0.730 N 
ATOM      2  H   LIG    1        3.795   5.258  -2.455  0.00  0.00    +0.400 HD
ATOM      3  C   LIG    1        2.056   5.328  -1.436  0.00  0.00    +0.700 C 
ATOM      4  N   LIG    1        2.184   4.105  -0.885  0.00  0.00    -0.740 N 
ATOM      5  H   LIG    1        2.965   3.564  -1.080  0.00  0.00    +0.390 HD
ATOM      6  O   LIG    1        1.077   6.006  -1.191  0.00  0.00    -0.540 OA
ENDROOT
BRANCH   1   7
ATOM      7  C   LIG    1        2.875   7.128  -2.860  0.00  0.00    +0.290 C 
ATOM      8  C   LIG    1        1.637   7.177  -3.789  0.00  0.00    +0.040 C 
ATOM      9  C   LIG    1        2.167   6.525  -5.094  0.00  0.00    +0.020 C 
ATOM     10  C   LIG    1        3.615   7.042  -5.215  0.00  0.00    +0.020 C 
ATOM     11  C   LIG    1        4.066   7.426  -3.795  0.00  0.00    +0.050 C 
BRANCH   7  14
ATOM     12  C   LIG    1        2.157   9.287  -0.090  0.00  0.00    +0.170 A 
ATOM     13  N   LIG    1        1.888   8.200  -0.772  0.00  0.00    -0.420 NA
ATOM     14  C   LIG    1        2.771   8.181  -1.787  0.00  0.00    +0.160 A 
ATOM     15  N   LIG    1        3.522   9.236  -1.668  0.00  0.00    -0.380 NA
ATOM     16  O   LIG    1        3.182   9.887  -0.703  0.00  0.00    +0.080 OA
BRANCH  12  18
ATOM     17  C   LIG    1        2.444   9.860   2.306  0.00  0.00    +0.060 C 
ATOM     18  C   LIG    1        1.447   9.768   1.149  0.00  0.00    +0.120 C 
ATOM     19  C   LIG    1        0.842  11.148   0.886  0.00  0.00    +0.060 C 
ENDBRANCH  12  18
ENDBRANCH   7  14
ENDBRANCH   1   7
BRANCH   4  20
ATOM     20  C   LIG    1        1.143   3.593   0.011  0.00  0.00    +0.300 C 
ATOM     21  C   LIG    1        1.398   4.100   1.431  0.00  0.00    +0.040 C 
BRANCH  20  22
ATOM     22  C   LIG    1        1.170   2.086   0.002  0.00  0.00    -0.080 A 
ATOM     23  C   LIG    1       -0.017   1.376   0.010  0.00  0.00    +0.030 A 
ATOM     24  C   LIG    1        0.002  -0.004   0.002  0.00  0.00    +0.030 A 
ATOM     25  C   LIG    1        1.220  -0.682  -0.013  0.00  0.00    -0.060 A 
ATOM     26  C   LIG    1        2.412   0.039  -0.021  0.00  0.00    +0.030 A 
ATOM     27  C   LIG    1        2.382   1.419  -0.013  0.00  0.00    +0.010 A 
BRANCH  25  28
ATOM     28  C   LIG    1        1.246  -2.165  -0.022  0.00  0.00    +0.000 A 
ATOM     29  C   LIG    1        0.060  -2.904  -0.009  0.00  0.00    -0.030 A 
ATOM     30  C   LIG    1        0.130  -4.282  -0.023  0.00  0.00    +0.260 A 
ATOM     31  N   LIG    1        1.295  -4.901  -0.038  0.00  0.00    -0.490 NA
ATOM     32  C   LIG    1        2.437  -4.241  -0.045  0.00  0.00    +0.260 A 
ATOM     33  C   LIG    1        2.458  -2.861  -0.037  0.00  0.00    -0.030 A 
ENDBRANCH  25  28
ENDBRANCH  20  22
ENDBRANCH   4  20
TORSDOF 6
