REMARK  Name = ZINCnE000001RoOp.0
REMARK                            x       y       z     vdW  Elec       q    Type
REMARK                         _______ _______ _______ _____ _____    ______ ____
ROOT
ATOM      1  C   LIG    1        6.165  -6.535  -0.090  0.00  0.00    +0.360 C 
ATOM      2  N   LIG    1        4.715  -6.327  -0.074  0.00  0.00    -0.380 N 
ATOM      3  C   LIG    1        4.079  -5.127  -0.068  0.00  0.00    +0.240 A 
ATOM      4  C   LIG    1        2.744  -5.370  -0.050  0.00  0.00    +0.000 A 
ATOM      5  C   LIG    1        2.560  -6.761  -0.055  0.00  0.00    +0.070 A 
ATOM      6  N   LIG    1        3.738  -7.331  -0.070  0.00  0.00    -0.280 NA
ENDROOT
BRANCH   5   7
ATOM      7  C   LIG    1        1.234  -7.476  -0.046  0.00  0.00    +0.080 C 
ATOM      8  C   LIG    1        1.139  -8.359   1.200  0.00  0.00    +0.020 C 
ATOM      9  C   LIG    1       -0.208  -9.085   1.210  0.00  0.00    +0.000 C 
ATOM     10  C   LIG    1       -0.326  -9.956  -0.043  0.00  0.00    +0.000 C 
ATOM     11  C   LIG    1       -0.232  -9.073  -1.289  0.00  0.00    +0.000 C 
ATOM     12  C   LIG    1        1.115  -8.347  -1.298  0.00  0.00    +0.020 C 
ENDBRANCH   5   7
BRANCH   4  13
ATOM     13  N   LIG    1        1.724  -4.400  -0.036  0.00  0.00    -0.640 N 
ATOM     14  H   LIG    1        0.794  -4.675  -0.028  0.00  0.00    +0.410 HD
ATOM     15  C   LIG    1        2.041  -3.090  -0.033  0.00  0.00    +0.600 C 
ATOM     16  O   LIG    1        3.208  -2.746  -0.042  0.00  0.00    -0.530 OA
BRANCH  15  17
ATOM     17  C   LIG    1        0.978  -2.079  -0.018  0.00  0.00    -0.300 A 
ATOM     18  C   LIG    1        1.179  -0.746  -0.013  0.00  0.00    +0.170 A 
ATOM     19  C   LIG    1        0.002  -0.004   0.002  0.00  0.00    -0.170 A 
ATOM     20  C   LIG    1       -1.136  -0.765   0.015  0.00  0.00    +0.000 A 
ATOM     21  S   LIG    1       -0.744  -2.426  -0.002  0.00  0.00    +0.140 S 
BRANCH  19  22
ATOM     22  C   LIG    1       -0.018   1.465   0.010  0.00  0.00    +0.540 C 
ATOM     23  O   LIG    1       -1.086   2.062   0.018  0.00  0.00    -0.690 OA
ATOM     24  O   LIG    1        1.034   2.091   0.003  0.00  0.00    -0.680 OA
ENDBRANCH  19  22
ENDBRANCH  15  17
ENDBRANCH   4  13
TORSDOF 4
