REMARK  Name = ZINCqH0000004Fv0.0
REMARK                            x       y       z     vdW  Elec       q    Type
REMARK                         _______ _______ _______ _____ _____    ______ ____
ROOT
ATOM      1  N   LIG    1       -1.746   3.566   5.668  0.00  0.00    -0.720 N 
ATOM      2  H   LIG    1       -0.921   3.937   5.316  0.00  0.00    +0.400 HD
ATOM      3  C   LIG    1       -1.996   3.617   6.992  0.00  0.00    +0.550 C 
ATOM      4  O   LIG    1       -3.028   3.152   7.433  0.00  0.00    -0.500 OA
ENDROOT
BRANCH   3   5
ATOM      5  C   LIG    1       -1.015   4.238   7.906  0.00  0.00    -0.130 A 
ATOM      6  C   LIG    1        0.175   4.768   7.403  0.00  0.00    +0.170 A 
ATOM      7  C   LIG    1        1.084   5.351   8.261  0.00  0.00    -0.680 A 
ATOM      8  C   LIG    1        0.824   5.403   9.619  0.00  0.00    +0.170 A 
ATOM      9  C   LIG    1       -0.349   4.875  10.126  0.00  0.00    +0.030 A 
ATOM     10  C   LIG    1       -1.271   4.293   9.278  0.00  0.00    +0.010 A 
ATOM     11 BR   LIG    1       -2.875   3.571   9.972  0.00  0.00    +0.010 Br
BRANCH   7  12
ATOM     12  S   LIG    1        2.582   6.027   7.626  0.00  0.00    +2.700 S 
ATOM     13  O   LIG    1        3.020   6.992   8.573  0.00  0.00    -0.950 OA
ATOM     14  O   LIG    1        2.337   6.334   6.261  0.00  0.00    -0.960 OA
BRANCH  12  15
ATOM     15  N   LIG    1        3.710   4.815   7.638  0.00  0.00    -1.250 NA
ATOM     16  H   LIG    1        3.661   4.113   8.306  0.00  0.00    +0.420 HD
ATOM     17  H   LIG    1        4.420   4.806   6.977  0.00  0.00    +0.420 HD
ENDBRANCH  12  15
ENDBRANCH   7  12
ENDBRANCH   3   5
BRANCH   1  18
ATOM     18  C   LIG    1       -2.718   2.950   4.762  0.00  0.00    +0.290 C 
BRANCH  18  22
ATOM     19  C   LIG    1       -0.718   1.572   1.248  0.00  0.00    -0.080 A 
ATOM     20  C   LIG    1       -0.360   2.779   1.819  0.00  0.00    +0.010 A 
ATOM     21  C   LIG    1       -1.010   3.227   2.953  0.00  0.00    +0.010 A 
ATOM     22  C   LIG    1       -2.012   2.463   3.523  0.00  0.00    -0.090 A 
ATOM     23  C   LIG    1       -2.366   1.254   2.955  0.00  0.00    +0.020 A 
ATOM     24  C   LIG    1       -1.719   0.808   1.818  0.00  0.00    +0.010 A 
BRANCH  19  26
ATOM     25  C   LIG    1       -0.753   1.593  -1.232  0.00  0.00    +0.030 C 
ATOM     26  C   LIG    1       -0.013   1.086   0.008  0.00  0.00    +0.050 C 
ENDBRANCH  19  26
ENDBRANCH  18  22
BRANCH  18  27
ATOM     27  C   LIG    1       -3.778   3.982   4.373  0.00  0.00    -0.020 C 
ATOM     28  C   LIG    1       -4.861   3.308   3.528  0.00  0.00    +0.030 C 
ATOM     29  C   LIG    1       -3.124   5.104   3.563  0.00  0.00    +0.030 C 
ENDBRANCH  18  27
ENDBRANCH   1  18
TORSDOF 7
