REMARK  Name = ZINCvU00000006to.1
REMARK                            x       y       z     vdW  Elec       q    Type
REMARK                         _______ _______ _______ _____ _____    ______ ____
ROOT
ATOM      1  C   LIG    1       -0.735   1.420   3.764  0.00  0.00    +0.240 C 
ENDROOT
BRANCH   1   2
ATOM      2  C   LIG    1        0.534   2.151   4.121  0.00  0.00    -0.130 A 
ATOM      3  C   LIG    1        1.759   1.532   3.953  0.00  0.00    +0.010 A 
ATOM      4  C   LIG    1        2.923   2.204   4.275  0.00  0.00    +0.020 A 
ATOM      5  C   LIG    1        2.862   3.491   4.776  0.00  0.00    +0.020 A 
ATOM      6  C   LIG    1        1.637   4.108   4.950  0.00  0.00    +0.020 A 
ATOM      7  C   LIG    1        0.473   3.438   4.622  0.00  0.00    +0.020 A 
ENDBRANCH   1   2
BRANCH   1   9
ATOM      8  O   LIG    1       -1.178  -0.719   4.656  0.00  0.00    -0.490 OA
ATOM      9  C   LIG    1       -1.097   0.471   4.877  0.00  0.00    +0.520 C 
ATOM     10  N   LIG    1       -1.332   0.944   6.117  0.00  0.00    -0.670 N 
ATOM     11  H   LIG    1       -1.343   1.900   6.277  0.00  0.00    +0.410 HD
BRANCH  10  12
ATOM     12  C   LIG    1       -1.558   0.054   7.174  0.00  0.00    +0.140 A 
ATOM     13  C   LIG    1       -2.445   0.391   8.188  0.00  0.00    +0.020 A 
ATOM     14  C   LIG    1       -2.671  -0.490   9.228  0.00  0.00    +0.010 A 
ATOM     15  C   LIG    1       -2.006  -1.704   9.265  0.00  0.00    +0.080 A 
ATOM     16  C   LIG    1       -1.117  -2.040   8.257  0.00  0.00    +0.010 A 
ATOM     17  F   LIG    1       -2.224  -2.562  10.285  0.00  0.00    -0.140 F 
ATOM     18  C   LIG    1       -0.892  -1.164   7.213  0.00  0.00    +0.050 A 
ENDBRANCH  10  12
ENDBRANCH   1   9
BRANCH   1  19
ATOM     19  N   LIG    1       -0.531   0.664   2.522  0.00  0.00    -0.650 NA
ATOM     20  H   LIG    1        0.390   0.253   2.495  0.00  0.00    +0.350 HD
BRANCH  19  21
ATOM     21  C   LIG    1       -0.763   1.512   1.345  0.00  0.00    +0.150 C 
ATOM     22  C   LIG    1       -2.234   1.401   0.856  0.00  0.00    +0.030 C 
ATOM     23  C   LIG    1       -2.129   1.741  -0.645  0.00  0.00    +0.190 C 
ATOM     24  N   LIG    1       -0.736   1.484  -1.055  0.00  0.00    -0.490 N 
ATOM     25  C   LIG    1        0.013   0.979   0.115  0.00  0.00    +0.200 C 
BRANCH  24  26
ATOM     26  C   LIG    1       -0.686   0.573  -2.113  0.00  0.00    +0.100 A 
ATOM     27  C   LIG    1       -0.234   0.981  -3.362  0.00  0.00    +0.070 A 
ATOM     28  C   LIG    1       -0.180   0.077  -4.405  0.00  0.00    +0.060 A 
ATOM     29  C   LIG    1       -0.587  -1.231  -4.211  0.00  0.00    -0.040 A 
ATOM     30  C   LIG    1       -1.043  -1.640  -2.968  0.00  0.00    -0.020 A 
ATOM     31 CL   LIG    1       -1.551  -3.283  -2.728  0.00  0.00    -0.040 Cl
ATOM     32 CL   LIG    1       -0.523  -2.362  -5.526  0.00  0.00    -0.050 Cl
ATOM     33  C   LIG    1       -1.093  -0.741  -1.920  0.00  0.00    +0.010 A 
ENDBRANCH  24  26
ENDBRANCH  19  21
ENDBRANCH   1  19
TORSDOF 6
