REMARK  Name = ZINCzw0000000g8m.0
REMARK                            x       y       z     vdW  Elec       q    Type
REMARK                         _______ _______ _______ _____ _____    ______ ____
ROOT
ATOM      1  C   LIG    1       -4.620   4.083   6.909  0.00  0.00    +0.340 C 
ENDROOT
BRANCH   1   6
ATOM      2  C   LIG    1       -5.917   4.485  10.432  0.00  0.00    -0.160 A 
ATOM      3  C   LIG    1       -7.273   4.633  10.212  0.00  0.00    +0.040 A 
ATOM      4  C   LIG    1       -7.771   4.603   8.923  0.00  0.00    +0.030 A 
ATOM      5  C   LIG    1       -6.912   4.430   7.854  0.00  0.00    +0.080 A 
ATOM      6  C   LIG    1       -5.556   4.277   8.075  0.00  0.00    -0.100 A 
ATOM      7  C   LIG    1       -5.058   4.307   9.364  0.00  0.00    +0.060 A 
BRANCH   2   8
ATOM      8  C   LIG    1       -5.373   4.518  11.838  0.00  0.00    +0.320 C 
BRANCH   8  13
ATOM      9  C   LIG    1       -3.954   7.342  13.861  0.00  0.00    -0.010 C 
ATOM     10  C   LIG    1       -5.187   8.250  13.886  0.00  0.00    +0.060 C 
ATOM     11  C   LIG    1       -5.895   8.169  12.531  0.00  0.00    +0.070 C 
ATOM     12  C   LIG    1       -6.255   6.712  12.235  0.00  0.00    +0.240 C 
ATOM     13  N   LIG    1       -5.032   5.901  12.198  0.00  0.00    -0.380 N 
ATOM     14  H   LIG    1       -4.398   6.280  11.511  0.00  0.00    +0.420 HD
ATOM     15  C   LIG    1       -4.385   5.915  13.516  0.00  0.00    +0.290 C 
BRANCH   9  19
ATOM     16  N   LIG    1       -2.833   8.513  15.730  0.00  0.00    -0.840 N 
ATOM     17  H   LIG    1       -2.408   8.521  16.602  0.00  0.00    +0.420 HD
ATOM     18  H   LIG    1       -2.929   9.338  15.229  0.00  0.00    +0.410 HD
ATOM     19  C   LIG    1       -3.292   7.355  15.215  0.00  0.00    +0.530 C 
ATOM     20  O   LIG    1       -3.173   6.323  15.841  0.00  0.00    -0.530 OA
ENDBRANCH   9  19
ENDBRANCH   8  13
ENDBRANCH   2   8
ENDBRANCH   1   6
BRANCH   1  21
ATOM     21  N   LIG    1       -4.481   2.652   6.627  0.00  0.00    -0.740 N 
ATOM     22  H   LIG    1       -4.960   2.003   7.166  0.00  0.00    +0.400 HD
ATOM     23  C   LIG    1       -3.688   2.238   5.620  0.00  0.00    +0.710 C 
ATOM     24  N   LIG    1       -3.560   0.922   5.360  0.00  0.00    -0.680 N 
ATOM     25  H   LIG    1       -3.983   0.270   5.940  0.00  0.00    +0.410 HD
ATOM     26  O   LIG    1       -3.087   3.052   4.945  0.00  0.00    -0.560 OA
BRANCH  24  27
ATOM     27  C   LIG    1       -2.817   0.496   4.256  0.00  0.00    +0.180 A 
ATOM     28  C   LIG    1       -1.681   1.198   3.872  0.00  0.00    +0.030 A 
ATOM     29  C   LIG    1       -0.946   0.781   2.783  0.00  0.00    +0.110 A 
ATOM     30  C   LIG    1       -1.345  -0.348   2.065  0.00  0.00    -0.050 A 
ATOM     31  C   LIG    1       -2.490  -1.047   2.450  0.00  0.00    +0.060 A 
ATOM     32  C   LIG    1       -3.216  -0.629   3.543  0.00  0.00    +0.000 A 
BRANCH  30  33
ATOM     33  C   LIG    1       -0.559  -0.798   0.896  0.00  0.00    +0.290 A 
ATOM     34  N   LIG    1        0.314  -0.083   0.217  0.00  0.00    -0.320 NA
ATOM     35  N   LIG    1        0.812  -0.775  -0.743  0.00  0.00    -0.030 NA
ATOM     36  N   LIG    1        0.311  -1.962  -0.748  0.00  0.00    -0.080 NA
ATOM     37  N   LIG    1       -0.600  -2.026   0.321  0.00  0.00    -0.350 N 
BRANCH  37  38
ATOM     38  C   LIG    1       -1.420  -3.170   0.725  0.00  0.00    +0.210 C 
ATOM     39  C   LIG    1       -1.261  -4.468  -0.069  0.00  0.00    +0.090 C 
ATOM     40  C   LIG    1       -2.524  -3.621  -0.234  0.00  0.00    +0.060 C 
ENDBRANCH  37  38
ENDBRANCH  30  33
ENDBRANCH  24  27
ENDBRANCH   1  21
TORSDOF 8
