REMARK  Name = ZINCzw0000000g8m.1
REMARK                            x       y       z     vdW  Elec       q    Type
REMARK                         _______ _______ _______ _____ _____    ______ ____
ROOT
ATOM      1  C   LIG    1       -4.626   4.083   6.904  0.00  0.00    +0.350 C 
ENDROOT
BRANCH   1   6
ATOM      2  C   LIG    1       -5.926   4.486  10.426  0.00  0.00    -0.160 A 
ATOM      3  C   LIG    1       -7.282   4.634  10.204  0.00  0.00    +0.050 A 
ATOM      4  C   LIG    1       -7.779   4.604   8.915  0.00  0.00    +0.030 A 
ATOM      5  C   LIG    1       -6.919   4.430   7.847  0.00  0.00    +0.070 A 
ATOM      6  C   LIG    1       -5.563   4.277   8.069  0.00  0.00    -0.100 A 
ATOM      7  C   LIG    1       -5.066   4.308   9.358  0.00  0.00    +0.050 A 
BRANCH   2   8
ATOM      8  C   LIG    1       -5.384   4.519  11.832  0.00  0.00    +0.320 C 
BRANCH   8  13
ATOM      9  C   LIG    1       -4.351   7.400  14.004  0.00  0.00    +0.010 C 
ATOM     10  C   LIG    1       -3.234   7.965  13.121  0.00  0.00    +0.070 C 
ATOM     11  C   LIG    1       -3.646   7.840  11.652  0.00  0.00    +0.050 C 
ATOM     12  C   LIG    1       -3.950   6.375  11.335  0.00  0.00    +0.240 C 
ATOM     13  N   LIG    1       -5.043   5.902  12.193  0.00  0.00    -0.380 N 
ATOM     14  H   LIG    1       -5.851   6.492  12.060  0.00  0.00    +0.430 HD
ATOM     15  C   LIG    1       -4.629   5.951  13.600  0.00  0.00    +0.290 C 
BRANCH   9  19
ATOM     16  N   LIG    1       -5.591   9.537  14.116  0.00  0.00    -0.830 N 
ATOM     17  H   LIG    1       -6.396  10.066  13.999  0.00  0.00    +0.420 HD
ATOM     18  H   LIG    1       -4.780   9.954  14.446  0.00  0.00    +0.410 HD
ATOM     19  C   LIG    1       -5.601   8.222  13.821  0.00  0.00    +0.520 C 
ATOM     20  O   LIG    1       -6.615   7.700  13.408  0.00  0.00    -0.560 OA
ENDBRANCH   9  19
ENDBRANCH   8  13
ENDBRANCH   2   8
ENDBRANCH   1   6
BRANCH   1  21
ATOM     21  N   LIG    1       -4.487   2.652   6.623  0.00  0.00    -0.740 N 
ATOM     22  H   LIG    1       -4.966   2.003   7.161  0.00  0.00    +0.400 HD
ATOM     23  C   LIG    1       -3.692   2.238   5.616  0.00  0.00    +0.710 C 
ATOM     24  N   LIG    1       -3.563   0.922   5.358  0.00  0.00    -0.680 N 
ATOM     25  H   LIG    1       -3.987   0.270   5.938  0.00  0.00    +0.410 HD
ATOM     26  O   LIG    1       -3.091   3.052   4.942  0.00  0.00    -0.560 OA
BRANCH  24  27
ATOM     27  C   LIG    1       -2.820   0.496   4.254  0.00  0.00    +0.190 A 
ATOM     28  C   LIG    1       -1.683   1.199   3.871  0.00  0.00    +0.030 A 
ATOM     29  C   LIG    1       -0.947   0.781   2.783  0.00  0.00    +0.110 A 
ATOM     30  C   LIG    1       -1.344  -0.348   2.066  0.00  0.00    -0.050 A 
ATOM     31  C   LIG    1       -2.489  -1.049   2.450  0.00  0.00    +0.060 A 
ATOM     32  C   LIG    1       -3.218  -0.629   3.541  0.00  0.00    +0.000 A 
BRANCH  30  33
ATOM     33  C   LIG    1       -0.557  -0.799   0.897  0.00  0.00    +0.290 A 
ATOM     34  N   LIG    1        0.317  -0.084   0.219  0.00  0.00    -0.320 NA
ATOM     35  N   LIG    1        0.817  -0.777  -0.739  0.00  0.00    -0.030 NA
ATOM     36  N   LIG    1        0.316  -1.965  -0.744  0.00  0.00    -0.080 NA
ATOM     37  N   LIG    1       -0.596  -2.027   0.324  0.00  0.00    -0.350 N 
BRANCH  37  38
ATOM     38  C   LIG    1       -1.417  -3.172   0.726  0.00  0.00    +0.210 C 
ATOM     39  C   LIG    1       -1.257  -4.471  -0.067  0.00  0.00    +0.090 C 
ATOM     40  C   LIG    1       -2.520  -3.623  -0.234  0.00  0.00    +0.060 C 
ENDBRANCH  37  38
ENDBRANCH  30  33
ENDBRANCH  24  27
ENDBRANCH   1  21
TORSDOF 8
