REMARK  Name = ZINCrD00000F5Lne.0
REMARK                            x       y       z     vdW  Elec       q    Type
REMARK                         _______ _______ _______ _____ _____    ______ ____
ROOT
ATOM      1  O   LIG    1       -4.498  -0.597   1.450  0.00  0.00    -0.540 OA
ATOM      2  C   LIG    1       -3.464  -1.234   1.367  0.00  0.00    +0.550 C 
ATOM      3  N   LIG    1       -3.505  -2.548   1.070  0.00  0.00    -0.720 N 
ATOM      4  H   LIG    1       -2.681  -3.056   1.004  0.00  0.00    +0.400 HD
ENDROOT
BRANCH   3   5
ATOM      5  C   LIG    1       -4.793  -3.209   0.848  0.00  0.00    +0.230 C 
ATOM      6  C   LIG    1       -5.382  -3.648   2.192  0.00  0.00    +0.030 C 
ATOM      7  C   LIG    1       -6.696  -4.393   1.948  0.00  0.00    +0.180 C 
ATOM      8  N   LIG    1       -6.448  -5.562   1.095  0.00  0.00    -0.530 NA
ATOM      9  C   LIG    1       -5.928  -5.161  -0.218  0.00  0.00    +0.180 C 
ATOM     10  C   LIG    1       -4.589  -4.441  -0.039  0.00  0.00    +0.040 C 
BRANCH   8  11
ATOM     11  C   LIG    1       -7.662  -6.377   0.954  0.00  0.00    +0.180 C 
BRANCH  11  12
ATOM     12  C   LIG    1       -7.277  -7.797   0.533  0.00  0.00    +0.380 C 
ATOM     13  F   LIG    1       -6.343  -8.314   1.437  0.00  0.00    -0.190 F 
ATOM     14  F   LIG    1       -6.718  -7.768  -0.749  0.00  0.00    -0.210 F 
ENDBRANCH  11  12
ENDBRANCH   8  11
ENDBRANCH   3   5
BRANCH   2  15
ATOM     15  C   LIG    1       -2.178  -0.574   1.589  0.00  0.00    -0.080 C 
ATOM     16  C   LIG    1       -2.137   0.742   1.886  0.00  0.00    +0.120 C 
BRANCH  16  17
ATOM     17  C   LIG    1       -0.845   1.406   2.109  0.00  0.00    -0.050 A 
ATOM     18  C   LIG    1        0.344   0.675   2.014  0.00  0.00    +0.060 A 
ATOM     19  C   LIG    1        1.558   1.300   2.217  0.00  0.00    -0.040 A 
ATOM     20  C   LIG    1        1.597   2.654   2.522  0.00  0.00    +0.090 A 
ATOM     21  O   LIG    1        2.793   3.276   2.723  0.00  0.00    -0.310 OA
ATOM     22  C   LIG    1        3.055   3.712   4.058  0.00  0.00    +0.230 C 
ATOM     23  C   LIG    1        2.433   5.076   4.312  0.00  0.00    +0.000 C 
ATOM     24  C   LIG    1        0.914   5.041   4.242  0.00  0.00    +0.230 C 
ATOM     25  O   LIG    1        0.475   4.716   2.922  0.00  0.00    -0.310 OA
ATOM     26  C   LIG    1        0.418   3.385   2.623  0.00  0.00    +0.080 A 
ATOM     27 CL   LIG    1        3.033   0.394   2.093  0.00  0.00    -0.040 Cl
ATOM     28  C   LIG    1       -0.801   2.771   2.421  0.00  0.00    +0.060 A 
ENDBRANCH  16  17
ENDBRANCH   2  15
TORSDOF 5
