REMARK  Name = ZINCtV00000tRSG5.0
REMARK                            x       y       z     vdW  Elec       q    Type
REMARK                         _______ _______ _______ _____ _____    ______ ____
ROOT
ATOM      1  C   LIG    1       -1.093   2.397   0.019  0.00  0.00    -0.220 A 
ATOM      2  C   LIG    1       -0.449   3.624   0.025  0.00  0.00    +0.170 A 
ATOM      3  O   LIG    1        0.879   3.429   0.012  0.00  0.00    -0.160 OA
ATOM      4  C   LIG    1        1.184   2.113   0.002  0.00  0.00    +0.030 A 
ATOM      5  C   LIG    1        2.393   1.427  -0.014  0.00  0.00    +0.140 A 
ATOM      6  C   LIG    1        2.405   0.048  -0.021  0.00  0.00    -0.100 A 
ATOM      7  C   LIG    1        1.214  -0.671  -0.013  0.00  0.00    +0.160 A 
ATOM      8  C   LIG    1        0.002  -0.004   0.002  0.00  0.00    -0.030 A 
ATOM      9 BR   LIG    1        4.056  -0.874  -0.041  0.00  0.00    -0.000 Br
ATOM     10  C   LIG    1       -0.017   1.388   0.010  0.00  0.00    -0.030 A 
ENDROOT
BRANCH   2  11
ATOM     11  C   LIG    1       -1.118   4.939   0.039  0.00  0.00    -0.050 A 
ATOM     12  C   LIG    1       -2.513   5.017   0.047  0.00  0.00    +0.040 A 
ATOM     13  C   LIG    1       -3.131   6.250   0.066  0.00  0.00    +0.010 A 
ATOM     14  C   LIG    1       -2.373   7.408   0.065  0.00  0.00    +0.040 A 
ATOM     15  C   LIG    1       -0.991   7.338   0.051  0.00  0.00    +0.020 A 
ATOM     16  C   LIG    1       -0.359   6.113   0.038  0.00  0.00    +0.060 A 
ENDBRANCH   2  11
BRANCH   1  17
ATOM     17  C   LIG    1       -2.538   2.153   0.024  0.00  0.00    +0.550 C 
ATOM     18  O   LIG    1       -3.134   2.046   1.079  0.00  0.00    -0.490 OA
BRANCH  17  19
ATOM     19  O   LIG    1       -3.208   2.047  -1.142  0.00  0.00    -0.350 OA
BRANCH  19  21
ATOM     20  C   LIG    1       -5.220   1.716  -2.473  0.00  0.00    +0.070 C 
ATOM     21  C   LIG    1       -4.638   1.806  -1.062  0.00  0.00    +0.200 C 
ENDBRANCH  19  21
ENDBRANCH  17  19
ENDBRANCH   1  17
BRANCH   7  22
ATOM     22  O   LIG    1        1.241  -2.030  -0.021  0.00  0.00    -0.280 OA
BRANCH  22  23
ATOM     23  C   LIG    1       -0.019  -2.704  -0.013  0.00  0.00    +0.200 C 
BRANCH  23  24
ATOM     24  C   LIG    1        0.208  -4.194  -0.024  0.00  0.00    +0.360 C 
ATOM     25  O   LIG    1        1.333  -4.633  -0.037  0.00  0.00    -0.410 OA
BRANCH  24  26
ATOM     26  C   LIG    1       -0.969  -5.136  -0.018  0.00  0.00    -0.110 C 
ATOM     27  C   LIG    1       -1.829  -4.884  -1.258  0.00  0.00    +0.050 C 
ATOM     28  C   LIG    1       -1.806  -4.899   1.240  0.00  0.00    +0.050 C 
ATOM     29  C   LIG    1       -0.466  -6.581  -0.031  0.00  0.00    +0.050 C 
ENDBRANCH  24  26
ENDBRANCH  23  24
ENDBRANCH  22  23
ENDBRANCH   7  22
TORSDOF 8
