REMARK  Name = ZINCpk00000y3LqE.0
REMARK                            x       y       z     vdW  Elec       q    Type
REMARK                         _______ _______ _______ _____ _____    ______ ____
ROOT
ATOM      1  C   LIG    1        4.179  -4.197   0.753  0.00  0.00    +0.080 C 
ATOM      2  C   LIG    1        3.530  -3.274  -0.280  0.00  0.00    +0.360 C 
ENDROOT
BRANCH   2   3
ATOM      3  N   LIG    1        2.594  -2.370   0.392  0.00  0.00    -0.730 N 
ATOM      4  H   LIG    1        1.652  -2.595   0.441  0.00  0.00    +0.410 HD
ATOM      5  C   LIG    1        3.042  -1.224   0.944  0.00  0.00    +0.710 C 
ATOM      6  N   LIG    1        2.181  -0.393   1.563  0.00  0.00    -0.620 N 
ATOM      7  C   LIG    1        0.777  -0.757   1.619  0.00  0.00    +0.250 C 
ATOM      8  C   LIG    1        0.041  -0.173   0.389  0.00  0.00    +0.220 C 
ATOM      9  O   LIG    1        0.006   1.203   0.483  0.00  0.00    -0.360 OA
ATOM     10  C   LIG    1        1.224   1.936   0.466  0.00  0.00    +0.230 C 
ATOM     11  C   LIG    1        1.756   2.032   1.881  0.00  0.00    +0.250 C 
ATOM     12  F   LIG    1        2.454   3.235   2.036  0.00  0.00    -0.180 F 
ATOM     13  F   LIG    1        0.688   1.993   2.784  0.00  0.00    -0.180 F 
ATOM     14  C   LIG    1        2.701   0.853   2.157  0.00  0.00    +0.320 C 
ATOM     15  O   LIG    1        4.223  -0.942   0.883  0.00  0.00    -0.570 OA
ENDBRANCH   2   3
BRANCH   2  16
ATOM     16  C   LIG    1        2.787  -4.101  -1.297  0.00  0.00    +0.240 A 
ATOM     17  N   LIG    1        1.661  -4.739  -1.104  0.00  0.00    -0.320 NA
ATOM     18  N   LIG    1        1.295  -5.346  -2.175  0.00  0.00    -0.030 NA
ATOM     19  N   LIG    1        2.156  -5.148  -3.115  0.00  0.00    -0.070 NA
ATOM     20  N   LIG    1        3.162  -4.327  -2.575  0.00  0.00    -0.320 N 
BRANCH  20  21
ATOM     21  C   LIG    1        4.309  -3.847  -3.223  0.00  0.00    +0.110 A 
ATOM     22  C   LIG    1        4.224  -3.375  -4.526  0.00  0.00    +0.050 A 
ATOM     23  C   LIG    1        5.355  -2.897  -5.160  0.00  0.00    +0.040 A 
ATOM     24  C   LIG    1        6.571  -2.899  -4.503  0.00  0.00    +0.040 A 
ATOM     25  C   LIG    1        6.659  -3.374  -3.207  0.00  0.00    +0.040 A 
ATOM     26  C   LIG    1        5.531  -3.847  -2.566  0.00  0.00    +0.030 A 
ENDBRANCH  20  21
ENDBRANCH   2  16
TORSDOF 3
