REMARK  Name = ZINCrg000009MK2n.0
REMARK                            x       y       z     vdW  Elec       q    Type
REMARK                         _______ _______ _______ _____ _____    ______ ____
ROOT
ATOM      1  C   LIG    1       -1.043   1.660  -0.516  0.00  0.00    -0.110 A 
ATOM      2  C   LIG    1       -0.139   1.139   0.392  0.00  0.00    +0.080 A 
ATOM      3  C   LIG    1        0.889   1.927   0.882  0.00  0.00    +0.040 A 
ATOM      4  C   LIG    1        1.010   3.233   0.468  0.00  0.00    -0.070 A 
ATOM      5  C   LIG    1        1.986   4.335   0.796  0.00  0.00    +0.320 C 
ATOM      6  N   LIG    1        1.564   5.504   0.016  0.00  0.00    -0.610 N 
ATOM      7  C   LIG    1        0.475   5.176  -0.699  0.00  0.00    +0.570 C 
ATOM      8  O   LIG    1       -0.117   5.928  -1.448  0.00  0.00    -0.510 OA
ATOM      9  C   LIG    1        0.100   3.771  -0.445  0.00  0.00    -0.160 A 
ATOM     10  C   LIG    1       -0.934   2.971  -0.934  0.00  0.00    +0.120 A 
ENDROOT
BRANCH   6  11
ATOM     11  C   LIG    1        2.221   6.813   0.017  0.00  0.00    +0.300 C 
ATOM     12  C   LIG    1        1.817   7.588   1.276  0.00  0.00    +0.070 C 
ATOM     13  C   LIG    1        2.349   6.838   2.502  0.00  0.00    +0.090 C 
ATOM     14  C   LIG    1        3.836   6.650   2.360  0.00  0.00    +0.520 C 
ATOM     15  N   LIG    1        4.414   6.552   1.153  0.00  0.00    -0.670 N 
ATOM     16  H   LIG    1        5.374   6.423   1.106  0.00  0.00    +0.420 HD
ATOM     17  O   LIG    1        4.525   6.585   3.356  0.00  0.00    -0.490 OA
ATOM     18  C   LIG    1        3.716   6.626   0.010  0.00  0.00    +0.520 C 
ATOM     19  O   LIG    1        4.299   6.540  -1.049  0.00  0.00    -0.470 OA
ENDBRANCH   6  11
BRANCH   1  20
ATOM     20  C   LIG    1       -2.155   0.794  -1.049  0.00  0.00    +0.340 C 
BRANCH  20  24
ATOM     21  N   LIG    1       -5.531   0.341   0.336  0.00  0.00    -0.740 N 
ATOM     22  H   LIG    1       -5.500   0.919   1.115  0.00  0.00    +0.390 HD
ATOM     23  C   LIG    1       -4.452   0.227  -0.463  0.00  0.00    +0.710 C 
ATOM     24  N   LIG    1       -3.329   0.917  -0.180  0.00  0.00    -0.750 N 
ATOM     25  H   LIG    1       -3.297   1.495   0.598  0.00  0.00    +0.400 HD
ATOM     26  O   LIG    1       -4.491  -0.497  -1.438  0.00  0.00    -0.580 OA
BRANCH  21  28
ATOM     27  C   LIG    1       -6.444  -1.908   0.034  0.00  0.00    +0.030 C 
ATOM     28  C   LIG    1       -6.752  -0.409   0.029  0.00  0.00    +0.190 C 
ATOM     29  C   LIG    1       -7.269   0.001  -1.351  0.00  0.00    +0.020 C 
ATOM     30  C   LIG    1       -7.817  -0.103   1.084  0.00  0.00    +0.040 C 
ENDBRANCH  21  28
ENDBRANCH  20  24
ENDBRANCH   1  20
TORSDOF 4
