REMARK  Name = ZINCqH00000363e4.0
REMARK                            x       y       z     vdW  Elec       q    Type
REMARK                         _______ _______ _______ _____ _____    ______ ____
ROOT
ATOM      1  N   LIG    1        1.915  -0.241  -0.938  0.00  0.00    -0.720 N 
ATOM      2  H   LIG    1        1.069  -0.691  -1.090  0.00  0.00    +0.400 HD
ATOM      3  C   LIG    1        3.072  -0.855  -1.258  0.00  0.00    +0.600 C 
ATOM      4  O   LIG    1        4.132  -0.291  -1.068  0.00  0.00    -0.530 OA
ENDROOT
BRANCH   3   5
ATOM      5  C   LIG    1        3.051  -2.210  -1.839  0.00  0.00    -0.290 A 
ATOM      6  C   LIG    1        3.090  -3.401  -1.141  0.00  0.00    +0.130 A 
ATOM      7  N   LIG    1        3.052  -4.396  -2.042  0.00  0.00    -0.350 N 
ATOM      8  N   LIG    1        2.988  -3.833  -3.322  0.00  0.00    -0.290 NA
ATOM      9  C   LIG    1        3.162  -3.556   0.356  0.00  0.00    +0.150 C 
ATOM     10  C   LIG    1        2.982  -2.533  -3.212  0.00  0.00    +0.110 A 
ATOM     11  C   LIG    1        2.916  -1.549  -4.351  0.00  0.00    +0.160 C 
BRANCH   7  12
ATOM     12  C   LIG    1        3.073  -5.828  -1.737  0.00  0.00    +0.180 C 
ATOM     13  C   LIG    1        4.428  -6.200  -1.131  0.00  0.00    +0.050 C 
ATOM     14  C   LIG    1        2.853  -6.627  -3.023  0.00  0.00    +0.070 C 
ATOM     15  C   LIG    1        1.961  -6.154  -0.738  0.00  0.00    +0.050 C 
ENDBRANCH   7  12
ENDBRANCH   3   5
BRANCH   1  16
ATOM     16  C   LIG    1        1.936   1.105  -0.362  0.00  0.00    +0.300 C 
ATOM     17  C   LIG    1        2.133   1.009   1.153  0.00  0.00    +0.050 C 
BRANCH  16  22
ATOM     18  C   LIG    1       -1.712   1.688  -1.161  0.00  0.00    +0.100 A 
ATOM     19  C   LIG    1       -1.771   3.074  -1.193  0.00  0.00    -0.040 A 
ATOM     20  C   LIG    1       -0.631   3.819  -0.962  0.00  0.00    -0.030 A 
ATOM     21  C   LIG    1        0.571   3.182  -0.692  0.00  0.00    +0.100 A 
ATOM     22  C   LIG    1        0.629   1.797  -0.655  0.00  0.00    -0.080 A 
ATOM     23  C   LIG    1       -0.510   1.052  -0.885  0.00  0.00    +0.020 A 
BRANCH  18  25
ATOM     24  C   LIG    1       -4.034   1.676  -1.671  0.00  0.00    +0.250 C 
ATOM     25  O   LIG    1       -2.832   0.954  -1.394  0.00  0.00    -0.320 OA
ENDBRANCH  18  25
BRANCH  21  26
ATOM     26  O   LIG    1        1.693   3.916  -0.465  0.00  0.00    -0.310 OA
ATOM     27  C   LIG    1        1.560   5.338  -0.519  0.00  0.00    +0.250 C 
ENDBRANCH  21  26
ENDBRANCH  16  22
ENDBRANCH   1  16
TORSDOF 6
