REMARK  Name = ZINCqH0000038zrQ.0
REMARK                            x       y       z     vdW  Elec       q    Type
REMARK                         _______ _______ _______ _____ _____    ______ ____
ROOT
ATOM      1  C   LIG    1       -1.293  -0.775   0.010  0.00  0.00    +0.240 C 
ENDROOT
BRANCH   1   4
ATOM      2  N   LIG    1       -0.016   1.344   0.009  0.00  0.00    -0.730 N 
ATOM      3  H   LIG    1       -0.863   1.817   0.016  0.00  0.00    +0.400 HD
ATOM      4  C   LIG    1        0.002  -0.004   0.002  0.00  0.00    +0.510 C 
ATOM      5  O   LIG    1        1.060  -0.596  -0.011  0.00  0.00    -0.500 OA
BRANCH   2   6
ATOM      6  C   LIG    1        1.242   2.093   0.001  0.00  0.00    +0.290 C 
BRANCH   6   7
ATOM      7  C   LIG    1        0.943   3.594   0.012  0.00  0.00    +0.080 C 
ATOM      8  C   LIG    1        0.232   3.981  -1.286  0.00  0.00    +0.050 C 
BRANCH   7  13
ATOM      9  C   LIG    1        4.172   6.738   2.088  0.00  0.00    +0.160 C 
ATOM     10  C   LIG    1        3.701   5.768   1.035  0.00  0.00    +0.070 A 
ATOM     11  C   LIG    1        4.441   5.439  -0.028  0.00  0.00    -0.080 A 
ATOM     12  S   LIG    1        3.521   4.288  -0.994  0.00  0.00    +0.130 S 
ATOM     13  C   LIG    1        2.233   4.363   0.128  0.00  0.00    +0.050 A 
ATOM     14  N   LIG    1        2.524   5.178   1.085  0.00  0.00    -0.470 NA
ENDBRANCH   7  13
ENDBRANCH   6   7
ENDBRANCH   2   6
ENDBRANCH   1   4
BRANCH   1  15
ATOM     15  O   LIG    1       -1.012  -2.176   0.000  0.00  0.00    -0.270 OA
BRANCH  15  16
ATOM     16  C   LIG    1       -2.076  -3.017   0.006  0.00  0.00    +0.190 A 
ATOM     17  C   LIG    1       -3.364  -2.506   0.021  0.00  0.00    -0.090 A 
ATOM     18  C   LIG    1       -4.448  -3.362   0.025  0.00  0.00    +0.100 A 
ATOM     19  C   LIG    1       -4.256  -4.733   0.016  0.00  0.00    -0.120 A 
ATOM     20  C   LIG    1       -2.982  -5.262   0.001  0.00  0.00    -0.000 A 
ATOM     21  C   LIG    1       -2.516  -6.699  -0.010  0.00  0.00    +0.050 C 
ATOM     22  C   LIG    1       -3.032  -7.408  -1.264  0.00  0.00    +0.050 C 
ATOM     23  C   LIG    1       -0.982  -6.653  -0.024  0.00  0.00    +0.050 C 
ATOM     24  C   LIG    1       -0.626  -5.186  -0.019  0.00  0.00    +0.400 C 
ATOM     25  O   LIG    1        0.496  -4.726  -0.026  0.00  0.00    -0.430 OA
ATOM     26  C   LIG    1       -5.449  -5.655   0.022  0.00  0.00    +0.100 C 
ATOM     27  C   LIG    1       -1.874  -4.412  -0.010  0.00  0.00    -0.220 A 
ENDBRANCH  15  16
ENDBRANCH   1  15
TORSDOF 6
