REMARK  Name = ZINCvU0000000CU2.0
REMARK                            x       y       z     vdW  Elec       q    Type
REMARK                         _______ _______ _______ _____ _____    ______ ____
ROOT
ATOM      1  C   LIG    1       -1.156   2.055   0.190  0.00  0.00    -0.130 A 
ATOM      2  C   LIG    1       -1.292   3.442   0.222  0.00  0.00    +0.040 A 
ATOM      3  C   LIG    1       -0.185   4.248   0.047  0.00  0.00    +0.010 A 
ATOM      4  C   LIG    1        1.065   3.687  -0.157  0.00  0.00    +0.040 A 
ATOM      5  C   LIG    1        1.219   2.315  -0.186  0.00  0.00    +0.020 A 
ATOM      6  C   LIG    1        0.115   1.486  -0.011  0.00  0.00    +0.010 A 
ENDROOT
BRANCH   6   7
ATOM      7  C   LIG    1        0.276   0.013  -0.042  0.00  0.00    -0.040 A 
ATOM      8  C   LIG    1        1.144  -0.615   0.851  0.00  0.00    +0.010 A 
ATOM      9  C   LIG    1        1.285  -1.987   0.822  0.00  0.00    +0.010 A 
ATOM     10  C   LIG    1        0.578  -2.738  -0.099  0.00  0.00    -0.100 A 
ATOM     11  C   LIG    1       -0.280  -2.120  -0.991  0.00  0.00    +0.030 A 
ATOM     12  C   LIG    1       -0.434  -0.749  -0.968  0.00  0.00    +0.060 A 
BRANCH  10  13
ATOM     13  C   LIG    1        0.742  -4.236  -0.131  0.00  0.00    +0.360 C 
BRANCH  13  14
ATOM     14  N   LIG    1        1.831  -4.589  -1.045  0.00  0.00    -0.370 N 
ATOM     15  C   LIG    1        2.915  -5.332  -0.739  0.00  0.00    +0.220 A 
ATOM     16  C   LIG    1        3.676  -5.429  -1.853  0.00  0.00    -0.130 A 
ATOM     17  C   LIG    1        3.041  -4.713  -2.872  0.00  0.00    +0.220 A 
ATOM     18  N   LIG    1        1.934  -4.209  -2.389  0.00  0.00    -0.290 NA
ENDBRANCH  13  14
ENDBRANCH  10  13
ENDBRANCH   6   7
BRANCH   1  21
ATOM     19  N   LIG    1       -3.568   1.732   0.437  0.00  0.00    -0.730 N 
ATOM     20  H   LIG    1       -3.678   2.693   0.365  0.00  0.00    +0.400 HD
ATOM     21  C   LIG    1       -2.337   1.188   0.371  0.00  0.00    +0.560 C 
ATOM     22  O   LIG    1       -2.199  -0.016   0.461  0.00  0.00    -0.510 OA
BRANCH  19  24
ATOM     23  C   LIG    1       -5.204   0.351  -0.745  0.00  0.00    +0.040 C 
ATOM     24  C   LIG    1       -4.741   0.873   0.617  0.00  0.00    +0.300 C 
BRANCH  24  25
ATOM     25  C   LIG    1       -5.852   1.665   1.256  0.00  0.00    -0.140 A 
ATOM     26  C   LIG    1       -5.891   3.039   1.112  0.00  0.00    +0.080 A 
ATOM     27  C   LIG    1       -6.910   3.767   1.697  0.00  0.00    -0.010 A 
ATOM     28  C   LIG    1       -7.892   3.121   2.428  0.00  0.00    +0.130 A 
ATOM     29  C   LIG    1       -7.854   1.745   2.573  0.00  0.00    -0.040 A 
ATOM     30  F   LIG    1       -8.887   3.833   3.001  0.00  0.00    -0.130 F 
ATOM     31  C   LIG    1       -6.836   1.016   1.982  0.00  0.00    +0.140 A 
ATOM     32  F   LIG    1       -6.800  -0.328   2.118  0.00  0.00    -0.120 F 
ENDBRANCH  24  25
ENDBRANCH  19  24
ENDBRANCH   1  21
TORSDOF 6
