REMARK  Name = ZINCpk000004ASoh.0
REMARK                            x       y       z     vdW  Elec       q    Type
REMARK                         _______ _______ _______ _____ _____    ______ ____
ROOT
ATOM      1  C   LIG    1        5.611  -0.670  -1.113  0.00  0.00    +0.530 C 
ATOM      2  N   LIG    1        4.682  -0.226  -0.244  0.00  0.00    -0.620 N 
ATOM      3  C   LIG    1        4.743   1.136   0.313  0.00  0.00    +0.290 C 
ATOM      4  C   LIG    1        3.479   1.884  -0.120  0.00  0.00    +0.280 C 
ATOM      5  N   LIG    1        2.295   1.065   0.101  0.00  0.00    -0.560 N 
ATOM      6  C   LIG    1        2.303  -0.266   0.198  0.00  0.00    +0.520 C 
ATOM      7  O   LIG    1        1.241  -0.844   0.299  0.00  0.00    -0.510 OA
ATOM      8  C   LIG    1        3.566  -1.081   0.188  0.00  0.00    +0.170 C 
ATOM      9  C   LIG    1        3.412  -2.254  -0.782  0.00  0.00    +0.100 C 
ATOM     10  C   LIG    1        3.844  -1.614   1.595  0.00  0.00    +0.070 C 
ATOM     11  O   LIG    1        5.493  -1.766  -1.619  0.00  0.00    -0.510 OA
ENDROOT
BRANCH   5  12
ATOM     12  C   LIG    1        1.062   1.719   0.215  0.00  0.00    +0.120 A 
ATOM     13  C   LIG    1        0.607   2.529  -0.817  0.00  0.00    +0.040 A 
ATOM     14  C   LIG    1       -0.606   3.178  -0.701  0.00  0.00    +0.000 A 
ATOM     15  C   LIG    1       -1.374   3.013   0.440  0.00  0.00    +0.100 A 
ATOM     16  C   LIG    1       -0.922   2.205   1.470  0.00  0.00    +0.000 A 
ATOM     17  F   LIG    1       -2.563   3.644   0.550  0.00  0.00    -0.140 F 
ATOM     18  C   LIG    1        0.293   1.559   1.360  0.00  0.00    +0.060 A 
ENDBRANCH   5  12
BRANCH   1  19
ATOM     19  C   LIG    1        6.795   0.195  -1.458  0.00  0.00    +0.050 C 
BRANCH  19  20
ATOM     20  C   LIG    1        7.689  -0.539  -2.459  0.00  0.00    +0.290 C 
BRANCH  20  22
ATOM     21  C   LIG    1        9.770  -0.143  -3.664  0.00  0.00    +0.540 C 
ATOM     22  N   LIG    1        8.841   0.302  -2.794  0.00  0.00    -0.730 N 
ATOM     23  H   LIG    1        8.935   1.178  -2.389  0.00  0.00    +0.400 HD
ATOM     24  O   LIG    1        9.652  -1.242  -4.170  0.00  0.00    -0.540 OA
BRANCH  21  26
ATOM     25  C   LIG    1       11.843   0.263  -4.858  0.00  0.00    +0.150 C 
ATOM     26  C   LIG    1       10.927   0.702  -4.000  0.00  0.00    -0.090 C 
ENDBRANCH  21  26
ENDBRANCH  20  22
ENDBRANCH  19  20
ENDBRANCH   1  19
TORSDOF 5
