REMARK  Name = ZINCpe00000FU7k8.0
REMARK                            x       y       z     vdW  Elec       q    Type
REMARK                         _______ _______ _______ _____ _____    ______ ____
ROOT
ATOM      1  C   LIG    1        2.678   4.071   2.548  0.00  0.00    +0.190 C 
ATOM      2  C   LIG    1        3.064   4.319   1.112  0.00  0.00    +0.070 A 
ATOM      3  C   LIG    1        4.145   4.974   0.699  0.00  0.00    +0.020 A 
ATOM      4  N   LIG    1        4.144   4.989  -0.685  0.00  0.00    -0.350 N 
ATOM      5  C   LIG    1        3.040   4.322  -1.113  0.00  0.00    +0.450 A 
ATOM      6  N   LIG    1        3.021   4.317  -2.438  0.00  0.00    -0.500 NA
ATOM      7  C   LIG    1        4.086   4.961  -2.910  0.00  0.00    +0.370 A 
ATOM      8  N   LIG    1        4.545   5.244  -4.188  0.00  0.00    -0.510 N 
ATOM      9  C   LIG    1        3.785   4.792  -5.356  0.00  0.00    +0.340 C 
ATOM     10  C   LIG    1        5.689   5.934  -4.355  0.00  0.00    +0.710 A 
ATOM     11  O   LIG    1        6.077   6.174  -5.482  0.00  0.00    -0.530 OA
ATOM     12  N   LIG    1        6.412   6.364  -3.307  0.00  0.00    -0.550 N 
ATOM     13  C   LIG    1        7.650   7.111  -3.544  0.00  0.00    +0.340 C 
ATOM     14  C   LIG    1        6.017   6.120  -2.041  0.00  0.00    +0.600 A 
ATOM     15  O   LIG    1        6.683   6.516  -1.101  0.00  0.00    -0.520 OA
ATOM     16  C   LIG    1        4.825   5.410  -1.817  0.00  0.00    -0.190 A 
ATOM     17  C   LIG    1        5.193   5.596   1.586  0.00  0.00    +0.170 C 
ATOM     18  N   LIG    1        2.356   3.904  -0.000  0.00  0.00    -0.400 N 
ENDROOT
BRANCH  18  19
ATOM     19  C   LIG    1        1.155   3.180   0.008  0.00  0.00    +0.030 A 
ATOM     20  C   LIG    1       -0.059   3.849   0.022  0.00  0.00    +0.080 A 
ATOM     21  C   LIG    1       -1.242   3.133   0.029  0.00  0.00    -0.040 A 
ATOM     22  C   LIG    1       -1.219   1.751   0.017  0.00  0.00    +0.080 A 
ATOM     23  C   LIG    1       -0.013   1.076   0.008  0.00  0.00    -0.060 A 
ATOM     24  C   LIG    1        1.179   1.786   0.000  0.00  0.00    +0.250 A 
BRANCH  24  25
ATOM     25  N   LIG    1        2.401   1.105  -0.015  0.00  0.00    -0.870 N 
ATOM     26  H   LIG    1        3.233   1.603  -0.020  0.00  0.00    +0.400 HD
ATOM     27  H   LIG    1        2.416   0.135  -0.020  0.00  0.00    +0.410 HD
ENDBRANCH  24  25
ENDBRANCH  18  19
TORSDOF 2
