REMARK  Name = ZINCrg00000SixaQ.0
REMARK                            x       y       z     vdW  Elec       q    Type
REMARK                         _______ _______ _______ _____ _____    ______ ____
ROOT
ATOM      1  N   LIG    1       -0.016   1.344   0.009  0.00  0.00    -0.720 N 
ATOM      2  H   LIG    1        0.817   1.840   0.004  0.00  0.00    +0.410 HD
ATOM      3  C   LIG    1        0.002  -0.004   0.002  0.00  0.00    +0.520 C 
ATOM      4  O   LIG    1       -1.040  -0.625   0.009  0.00  0.00    -0.510 OA
ENDROOT
BRANCH   1   5
ATOM      5  C   LIG    1       -1.295   2.059   0.019  0.00  0.00    +0.340 C 
BRANCH   5   9
ATOM      6  C   LIG    1       -0.572   6.269   0.039  0.00  0.00    -0.670 A 
ATOM      7  C   LIG    1       -0.694   5.594  -1.161  0.00  0.00    +0.130 A 
ATOM      8  C   LIG    1       -0.928   4.232  -1.168  0.00  0.00    +0.020 A 
ATOM      9  C   LIG    1       -1.040   3.544   0.026  0.00  0.00    -0.050 A 
ATOM     10  C   LIG    1       -0.922   4.220   1.226  0.00  0.00    +0.020 A 
ATOM     11  C   LIG    1       -0.683   5.581   1.233  0.00  0.00    +0.130 A 
BRANCH   6  12
ATOM     12  S   LIG    1       -0.275   8.005   0.047  0.00  0.00    +2.700 S 
ATOM     13  O   LIG    1        0.324   8.316  -1.204  0.00  0.00    -0.960 OA
ATOM     14  O   LIG    1        0.336   8.302   1.295  0.00  0.00    -0.960 OA
BRANCH  12  15
ATOM     15  N   LIG    1       -1.751   8.756   0.058  0.00  0.00    -1.250 NA
ATOM     16  H   LIG    1       -2.515   8.329  -0.361  0.00  0.00    +0.420 HD
ATOM     17  H   LIG    1       -1.852   9.621   0.483  0.00  0.00    +0.420 HD
ENDBRANCH  12  15
ENDBRANCH   6  12
ENDBRANCH   5   9
ENDBRANCH   1   5
BRANCH   3  18
ATOM     18  C   LIG    1        1.317  -0.740  -0.015  0.00  0.00    +0.240 C 
BRANCH  18  19
ATOM     19  O   LIG    1        1.075  -2.148  -0.020  0.00  0.00    -0.280 OA
BRANCH  19  20
ATOM     20  C   LIG    1        2.163  -2.961  -0.035  0.00  0.00    +0.160 A 
ATOM     21  C   LIG    1        3.439  -2.410  -0.049  0.00  0.00    -0.070 A 
ATOM     22  C   LIG    1        4.545  -3.232  -0.059  0.00  0.00    +0.100 A 
ATOM     23  C   LIG    1        4.383  -4.619  -0.065  0.00  0.00    -0.070 A 
ATOM     24  C   LIG    1        3.100  -5.168  -0.055  0.00  0.00    +0.130 A 
ATOM     25  C   LIG    1        1.998  -4.340  -0.040  0.00  0.00    +0.000 A 
BRANCH  23  26
ATOM     26  C   LIG    1        5.567  -5.503  -0.080  0.00  0.00    +0.220 A 
ATOM     27  N   LIG    1        5.559  -6.815  -0.087  0.00  0.00    -0.280 NA
ATOM     28  N   LIG    1        6.771  -7.247  -0.101  0.00  0.00    -0.290 NA
ATOM     29  C   LIG    1        7.594  -6.236  -0.103  0.00  0.00    +0.420 A 
ATOM     30  O   LIG    1        6.857  -5.112  -0.096  0.00  0.00    -0.230 OA
ENDBRANCH  23  26
ENDBRANCH  19  20
ENDBRANCH  18  19
ENDBRANCH   3  18
TORSDOF 8
