REMARK  Name = ZINCrg000000tQS8.0
REMARK                            x       y       z     vdW  Elec       q    Type
REMARK                         _______ _______ _______ _____ _____    ______ ____
ROOT
ATOM      1  O   LIG    1        3.251   2.458  -1.632  0.00  0.00    -0.510 OA
ATOM      2  C   LIG    1        2.418   1.760  -1.093  0.00  0.00    +0.510 C 
ATOM      3  C   LIG    1        1.455   2.374  -0.109  0.00  0.00    +0.340 C 
ATOM      4  N   LIG    1        0.198   1.612  -0.129  0.00  0.00    -0.560 N 
ATOM      5  C   LIG    1        0.280   0.212  -0.183  0.00  0.00    +0.110 A 
ATOM      6  C   LIG    1       -0.705  -0.583   0.374  0.00  0.00    +0.060 A 
ATOM      7  C   LIG    1       -0.593  -1.961   0.309  0.00  0.00    +0.010 A 
ATOM      8  C   LIG    1        0.499  -2.541  -0.309  0.00  0.00    +0.030 A 
ATOM      9  C   LIG    1        1.486  -1.752  -0.870  0.00  0.00    +0.000 A 
ATOM     10  C   LIG    1        1.382  -0.371  -0.811  0.00  0.00    +0.130 A 
ATOM     11  C   LIG    1       -0.996   2.238  -0.103  0.00  0.00    +0.520 C 
ATOM     12  O   LIG    1       -2.021   1.591  -0.125  0.00  0.00    -0.490 OA
ATOM     13  N   LIG    1        2.364   0.446  -1.381  0.00  0.00    -0.660 N 
ATOM     14  H   LIG    1        3.014   0.061  -1.990  0.00  0.00    +0.420 HD
ENDROOT
BRANCH  11  15
ATOM     15  C   LIG    1       -1.056   3.743  -0.046  0.00  0.00    +0.230 C 
BRANCH  15  16
ATOM     16  N   LIG    1       -2.459   4.176  -0.026  0.00  0.00    -0.520 NA
ATOM     17  C   LIG    1       -3.132   3.840  -1.288  0.00  0.00    +0.190 C 
ATOM     18  C   LIG    1       -4.629   4.142  -1.162  0.00  0.00    +0.300 C 
ATOM     19  N   LIG    1       -4.789   5.537  -0.724  0.00  0.00    -0.610 N 
ATOM     20  C   LIG    1       -4.037   5.986   0.457  0.00  0.00    +0.300 C 
ATOM     21  C   LIG    1       -5.604   6.381  -1.388  0.00  0.00    +0.600 C 
ATOM     22  O   LIG    1       -5.775   7.513  -0.974  0.00  0.00    -0.520 OA
ATOM     23  C   LIG    1       -2.563   5.612   0.267  0.00  0.00    +0.180 C 
BRANCH  21  24
ATOM     24  C   LIG    1       -6.284   5.936  -2.608  0.00  0.00    -0.080 A 
ATOM     25  C   LIG    1       -7.024   6.720  -3.446  0.00  0.00    +0.050 A 
ATOM     26  C   LIG    1       -7.482   5.887  -4.479  0.00  0.00    -0.060 A 
ATOM     27  C   LIG    1       -7.014   4.645  -4.225  0.00  0.00    +0.200 A 
ATOM     28  O   LIG    1       -6.293   4.678  -3.097  0.00  0.00    -0.160 OA
ENDBRANCH  21  24
ENDBRANCH  15  16
ENDBRANCH  11  15
TORSDOF 3
