REMARK  Name = ZINCrg000000pxJF.0
REMARK                            x       y       z     vdW  Elec       q    Type
REMARK                         _______ _______ _______ _____ _____    ______ ____
ROOT
ATOM      1  C   LIG    1       -1.294  -0.776   0.018  0.00  0.00    +0.310 C 
ENDROOT
BRANCH   1   2
ATOM      2  C   LIG    1        0.091  -0.185  -0.041  0.00  0.00    -0.100 A 
ATOM      3  C   LIG    1        0.255   1.187  -0.053  0.00  0.00    +0.030 A 
ATOM      4  C   LIG    1        1.523   1.734  -0.107  0.00  0.00    -0.030 A 
ATOM      5  C   LIG    1        2.634   0.907  -0.150  0.00  0.00    +0.110 A 
ATOM      6  C   LIG    1        2.468  -0.475  -0.138  0.00  0.00    +0.100 A 
ATOM      7  C   LIG    1        1.195  -1.017  -0.083  0.00  0.00    -0.010 A 
BRANCH   6   8
ATOM      8  O   LIG    1        3.555  -1.292  -0.178  0.00  0.00    -0.310 OA
ATOM      9  C   LIG    1        3.310  -2.699  -0.163  0.00  0.00    +0.240 C 
ENDBRANCH   6   8
BRANCH   5  10
ATOM     10  O   LIG    1        3.882   1.444  -0.202  0.00  0.00    -0.310 OA
ATOM     11  C   LIG    1        3.975   2.870  -0.212  0.00  0.00    +0.250 C 
ENDBRANCH   5  10
ENDBRANCH   1   2
BRANCH   1  12
ATOM     12  N   LIG    1       -2.121   0.009   0.938  0.00  0.00    -0.700 N 
ATOM     13  H   LIG    1       -2.651   0.749   0.603  0.00  0.00    +0.410 HD
ATOM     14  C   LIG    1       -2.146  -0.298   2.250  0.00  0.00    +0.590 C 
ATOM     15  O   LIG    1       -1.415  -1.167   2.686  0.00  0.00    -0.510 OA
BRANCH  14  16
ATOM     16  C   LIG    1       -3.054   0.418   3.154  0.00  0.00    +0.080 C 
ATOM     17  N   LIG    1       -3.825   1.348   2.681  0.00  0.00    -0.210 NA
ATOM     18  N   LIG    1       -4.705   2.050   3.511  0.00  0.00    -0.460 N 
ATOM     19  C   LIG    1       -4.510   2.072   4.845  0.00  0.00    +0.500 C 
ATOM     20  C   LIG    1       -3.344   1.328   5.443  0.00  0.00    +0.090 C 
ATOM     21  O   LIG    1       -5.270   2.690   5.560  0.00  0.00    -0.510 OA
ATOM     22  C   LIG    1       -5.841   2.768   2.929  0.00  0.00    +0.340 C 
ATOM     23  C   LIG    1       -3.073   0.068   4.618  0.00  0.00    +0.110 C 
ENDBRANCH  14  16
ENDBRANCH   1  12
BRANCH   1  24
ATOM     24  C   LIG    1       -1.920  -0.751  -1.378  0.00  0.00    +0.130 C 
BRANCH  24  25
ATOM     25  C   LIG    1       -3.246  -1.466  -1.347  0.00  0.00    +0.460 C 
ATOM     26  O   LIG    1       -3.604  -2.032  -0.341  0.00  0.00    -0.490 OA
BRANCH  25  28
ATOM     27  C   LIG    1       -5.294  -2.181  -2.334  0.00  0.00    +0.260 C 
ATOM     28  O   LIG    1       -4.030  -1.473  -2.436  0.00  0.00    -0.360 OA
ENDBRANCH  25  28
ENDBRANCH  24  25
ENDBRANCH   1  24
TORSDOF 8
