REMARK  Name = ZINCrD00000F5LCz.0
REMARK                            x       y       z     vdW  Elec       q    Type
REMARK                         _______ _______ _______ _____ _____    ______ ____
ROOT
ATOM      1  C   LIG    1        1.880   5.184  -0.553  0.00  0.00    +0.510 C 
ATOM      2  N   LIG    1        1.956   3.849  -0.387  0.00  0.00    -0.670 N 
ATOM      3  H   LIG    1        2.823   3.419  -0.313  0.00  0.00    +0.410 HD
ATOM      4  O   LIG    1        0.799   5.736  -0.540  0.00  0.00    -0.500 OA
ENDROOT
BRANCH   2   5
ATOM      5  C   LIG    1        0.786   3.083  -0.319  0.00  0.00    +0.130 A 
ATOM      6  C   LIG    1       -0.375   3.534  -0.933  0.00  0.00    +0.040 A 
ATOM      7  C   LIG    1       -1.529   2.779  -0.866  0.00  0.00    +0.040 A 
ATOM      8  C   LIG    1       -1.530   1.572  -0.180  0.00  0.00    +0.130 A 
ATOM      9  C   LIG    1       -0.368   1.118   0.429  0.00  0.00    +0.010 A 
ATOM     10  C   LIG    1        0.786   1.873   0.362  0.00  0.00    +0.000 A 
BRANCH   8  11
ATOM     11  N   LIG    1       -2.703   0.809  -0.108  0.00  0.00    -0.670 N 
ATOM     12  H   LIG    1       -2.900   0.297   0.693  0.00  0.00    +0.410 HD
ATOM     13  C   LIG    1       -3.557   0.785  -1.150  0.00  0.00    +0.540 C 
ATOM     14  O   LIG    1       -3.266   1.345  -2.186  0.00  0.00    -0.520 OA
BRANCH  13  15
ATOM     15  C   LIG    1       -4.875   0.064  -1.028  0.00  0.00    -0.070 C 
ATOM     16  C   LIG    1       -5.062  -1.209  -1.856  0.00  0.00    +0.060 C 
ATOM     17  C   LIG    1       -5.801   0.073  -2.246  0.00  0.00    +0.080 C 
ENDBRANCH  13  15
ENDBRANCH   8  11
ENDBRANCH   2   5
BRANCH   1  18
ATOM     18  C   LIG    1        3.136   5.992  -0.757  0.00  0.00    +0.120 C 
BRANCH  18  22
ATOM     19  C   LIG    1        2.119  10.118  -1.212  0.00  0.00    +0.150 A 
ATOM     20  C   LIG    1        2.378   9.600   0.050  0.00  0.00    -0.010 A 
ATOM     21  C   LIG    1        2.706   8.266   0.194  0.00  0.00    +0.040 A 
ATOM     22  C   LIG    1        2.777   7.447  -0.918  0.00  0.00    -0.090 A 
ATOM     23  C   LIG    1        2.525   7.960  -2.176  0.00  0.00    +0.030 A 
ATOM     24  C   LIG    1        2.191   9.292  -2.326  0.00  0.00    +0.020 A 
BRANCH  19  26
ATOM     25  C   LIG    1        0.903  11.845  -2.306  0.00  0.00    +0.540 C 
ATOM     26  N   LIG    1        1.788  11.468  -1.361  0.00  0.00    -0.670 N 
ATOM     27  H   LIG    1        2.194  12.134  -0.784  0.00  0.00    +0.410 HD
ATOM     28  O   LIG    1        0.458  11.023  -3.084  0.00  0.00    -0.520 OA
BRANCH  25  30
ATOM     29  C   LIG    1       -0.396  13.621  -3.329  0.00  0.00    +0.160 C 
ATOM     30  C   LIG    1        0.477  13.249  -2.396  0.00  0.00    -0.090 C 
ENDBRANCH  25  30
ENDBRANCH  19  26
ENDBRANCH  18  22
ENDBRANCH   1  18
TORSDOF 7
