REMARK  Name = ZINCvU00000005QC.0
REMARK                            x       y       z     vdW  Elec       q    Type
REMARK                         _______ _______ _______ _____ _____    ______ ____
ROOT
ATOM      1  C   LIG    1       -2.185  -0.546   1.241  0.00  0.00    +0.160 C 
ATOM      2  C   LIG    1       -0.907  -0.903   0.526  0.00  0.00    +0.120 A 
ATOM      3  N   LIG    1       -0.470  -2.121   0.298  0.00  0.00    -0.270 NA
ATOM      4  N   LIG    1        0.751  -2.046  -0.390  0.00  0.00    -0.290 N 
ATOM      5  C   LIG    1        1.032  -0.733  -0.586  0.00  0.00    +0.270 A 
ATOM      6  N   LIG    1        2.077  -0.137  -1.226  0.00  0.00    -0.400 NA
ATOM      7  C   LIG    1        2.204   1.155  -1.047  0.00  0.00    +0.240 C 
ATOM      8  C   LIG    1        3.058   2.103  -1.744  0.00  0.00    -0.040 A 
ATOM      9  C   LIG    1        4.108   1.872  -2.641  0.00  0.00    +0.090 A 
ATOM     10  C   LIG    1        4.728   2.986  -3.188  0.00  0.00    +0.050 A 
ATOM     11  C   LIG    1        4.337   4.274  -2.873  0.00  0.00    +0.030 A 
ATOM     12  C   LIG    1        3.311   4.534  -1.978  0.00  0.00    +0.100 A 
ATOM     13  C   LIG    1        2.677   3.429  -1.397  0.00  0.00    -0.160 A 
ATOM     14  C   LIG    1        1.616   3.395  -0.391  0.00  0.00    +0.420 C 
ATOM     15  O   LIG    1        0.997   4.343   0.043  0.00  0.00    -0.410 OA
ATOM     16  C   LIG    1        1.445   1.951  -0.001  0.00  0.00    -0.020 C 
ATOM     17  C   LIG    1       -0.018   1.509   0.010  0.00  0.00    +0.160 C 
ATOM     18  C   LIG    1        0.002  -0.004   0.002  0.00  0.00    -0.250 A 
ENDROOT
BRANCH  17  19
ATOM     19  C   LIG    1       -0.702   2.011   1.256  0.00  0.00    -0.050 A 
ATOM     20  C   LIG    1       -0.200   1.683   2.501  0.00  0.00    +0.030 A 
ATOM     21  C   LIG    1       -0.824   2.147   3.643  0.00  0.00    +0.040 A 
ATOM     22  C   LIG    1       -1.958   2.933   3.540  0.00  0.00    -0.090 A 
ATOM     23  C   LIG    1       -2.463   3.258   2.295  0.00  0.00    +0.060 A 
ATOM     24 BR   LIG    1       -2.816   3.564   5.103  0.00  0.00    -0.050 Br
ATOM     25  C   LIG    1       -1.835   2.797   1.153  0.00  0.00    +0.040 A 
ENDBRANCH  17  19
BRANCH   4  26
ATOM     26  C   LIG    1        1.536  -3.128  -0.799  0.00  0.00    +0.360 A 
ATOM     27  C   LIG    1        1.445  -4.338  -0.123  0.00  0.00    -0.010 A 
ATOM     28  C   LIG    1        2.224  -5.403  -0.542  0.00  0.00    +0.090 A 
ATOM     29  C   LIG    1        3.077  -5.216  -1.621  0.00  0.00    -0.040 A 
ATOM     30  C   LIG    1        3.119  -3.983  -2.243  0.00  0.00    +0.300 A 
ATOM     31  N   LIG    1        2.361  -2.988  -1.824  0.00  0.00    -0.480 NA
ENDBRANCH   4  26
TORSDOF 2
