REMARK  Name = ZINCqH00000505Qx.0
REMARK                            x       y       z     vdW  Elec       q    Type
REMARK                         _______ _______ _______ _____ _____    ______ ____
ROOT
ATOM      1  C   LIG    1        4.700   1.384   0.071  0.00  0.00    +0.550 C 
ATOM      2  O   LIG    1        4.667   0.167   0.063  0.00  0.00    -0.480 OA
ENDROOT
BRANCH   1   3
ATOM      3  C   LIG    1        5.942   2.058   0.175  0.00  0.00    -0.350 A 
ATOM      4  C   LIG    1        7.166   1.452   0.271  0.00  0.00    +0.160 A 
ATOM      5  C   LIG    1        8.208   2.337   0.359  0.00  0.00    -0.060 A 
ATOM      6  C   LIG    1        7.845   3.646   0.335  0.00  0.00    +0.030 A 
ATOM      7  S   LIG    1        6.152   3.803   0.192  0.00  0.00    +0.380 S 
BRANCH   6   8
ATOM      8  N   LIG    1        8.733   4.712   0.410  0.00  0.00    -0.630 N 
ATOM      9  H   LIG    1        9.685   4.546   0.486  0.00  0.00    +0.420 HD
ATOM     10  C   LIG    1        8.270   5.978   0.378  0.00  0.00    +0.540 C 
ATOM     11  O   LIG    1        7.079   6.186   0.283  0.00  0.00    -0.500 OA
BRANCH  10  12
ATOM     12  C   LIG    1        9.233   7.134   0.460  0.00  0.00    -0.070 C 
ATOM     13  C   LIG    1        9.205   7.989   1.729  0.00  0.00    +0.060 C 
ATOM     14  C   LIG    1        8.646   8.547   0.418  0.00  0.00    +0.080 C 
ENDBRANCH  10  12
ENDBRANCH   6   8
ENDBRANCH   1   3
BRANCH   1  15
ATOM     15  O   LIG    1        3.554   2.091  -0.018  0.00  0.00    -0.300 OA
BRANCH  15  23
ATOM     16  C   LIG    1       -2.148  -0.820  -1.159  0.00  0.00    +0.130 C 
ATOM     17  C   LIG    1       -1.276  -0.718   0.065  0.00  0.00    +0.030 A 
ATOM     18  C   LIG    1       -1.640  -1.310   1.232  0.00  0.00    -0.080 A 
ATOM     19  C   LIG    1       -0.806  -1.200   2.364  0.00  0.00    +0.510 A 
ATOM     20  O   LIG    1        0.353  -0.525   2.323  0.00  0.00    -0.270 OA
ATOM     21  C   LIG    1        0.770   0.091   1.197  0.00  0.00    +0.170 A 
ATOM     22  C   LIG    1        1.968   0.789   1.173  0.00  0.00    +0.010 A 
ATOM     23  C   LIG    1        2.381   1.408   0.004  0.00  0.00    +0.150 A 
ATOM     24  C   LIG    1        1.601   1.337  -1.148  0.00  0.00    +0.010 A 
ATOM     25  C   LIG    1        0.419   0.654  -1.142  0.00  0.00    +0.110 A 
ATOM     26  O   LIG    1       -1.145  -1.736   3.405  0.00  0.00    -0.460 OA
ATOM     27  C   LIG    1       -0.013   0.022   0.029  0.00  0.00    -0.150 A 
ENDBRANCH  15  23
ENDBRANCH   1  15
TORSDOF 5
