REMARK  Name = ZINCtV00000oBz4M.0
REMARK                            x       y       z     vdW  Elec       q    Type
REMARK                         _______ _______ _______ _____ _____    ______ ____
ROOT
ATOM      1  N   LIG    1       -3.228   3.782   0.531  0.00  0.00    -0.680 N 
ATOM      2  H   LIG    1       -3.789   3.490  -0.205  0.00  0.00    +0.400 HD
ATOM      3  C   LIG    1       -2.704   5.024   0.527  0.00  0.00    +0.680 C 
ATOM      4  N   LIG    1       -3.091   5.916  -0.406  0.00  0.00    -0.630 N 
ATOM      5  C   LIG    1       -4.354   5.736  -1.136  0.00  0.00    +0.260 C 
ATOM      6  C   LIG    1       -4.066   5.787  -2.639  0.00  0.00    +0.010 C 
ATOM      7  C   LIG    1       -3.329   7.087  -2.970  0.00  0.00    +0.020 C 
ATOM      8  C   LIG    1       -1.995   7.124  -2.221  0.00  0.00    +0.020 C 
ATOM      9  C   LIG    1       -2.262   7.090  -0.709  0.00  0.00    +0.290 C 
ATOM     10  O   LIG    1       -1.881   5.338   1.365  0.00  0.00    -0.510 OA
ENDROOT
BRANCH   1  16
ATOM     11  C   LIG    1       -1.679   2.819   2.113  0.00  0.00    -0.070 A 
ATOM     12  C   LIG    1       -1.420   1.957   3.161  0.00  0.00    +0.010 A 
ATOM     13  C   LIG    1       -2.438   1.190   3.695  0.00  0.00    +0.000 A 
ATOM     14  C   LIG    1       -3.719   1.282   3.183  0.00  0.00    +0.010 A 
ATOM     15  C   LIG    1       -3.985   2.142   2.135  0.00  0.00    -0.100 A 
ATOM     16  C   LIG    1       -2.964   2.914   1.596  0.00  0.00    +0.160 A 
BRANCH  11  18
ATOM     17  C   LIG    1       -0.305   4.857   2.440  0.00  0.00    +0.050 C 
ATOM     18  C   LIG    1       -0.568   3.654   1.532  0.00  0.00    +0.060 C 
ENDBRANCH  11  18
BRANCH  15  19
ATOM     19  C   LIG    1       -5.381   2.242   1.576  0.00  0.00    +0.070 C 
ATOM     20  C   LIG    1       -5.515   1.313   0.368  0.00  0.00    +0.020 C 
ENDBRANCH  15  19
ENDBRANCH   1  16
BRANCH   9  21
ATOM     21  C   LIG    1       -0.955   6.991   0.035  0.00  0.00    -0.060 A 
ATOM     22  C   LIG    1        0.070   6.214  -0.470  0.00  0.00    +0.040 A 
ATOM     23  C   LIG    1        1.269   6.123   0.212  0.00  0.00    +0.010 A 
ATOM     24  C   LIG    1        1.443   6.809   1.399  0.00  0.00    +0.070 A 
ATOM     25  C   LIG    1        0.417   7.587   1.905  0.00  0.00    -0.180 A 
ATOM     26  C   LIG    1       -0.779   7.682   1.220  0.00  0.00    +0.100 A 
BRANCH  25  27
ATOM     27  C   LIG    1        0.606   8.335   3.199  0.00  0.00    +0.510 C 
ATOM     28  F   LIG    1       -0.346   7.904   4.130  0.00  0.00    -0.170 F 
ATOM     29  F   LIG    1        0.450   9.706   2.972  0.00  0.00    -0.180 F 
ATOM     30  F   LIG    1        1.890   8.088   3.697  0.00  0.00    -0.180 F 
ENDBRANCH  25  27
ENDBRANCH   9  21
TORSDOF 5
