REMARK  Name = ZINCrg00000BblaF.0
REMARK                            x       y       z     vdW  Elec       q    Type
REMARK                         _______ _______ _______ _____ _____    ______ ____
ROOT
ATOM      1  N   LIG    1        7.475  -3.416  -6.221  0.00  0.00    -0.680 N 
ATOM      2  H   LIG    1        7.037  -3.166  -7.049  0.00  0.00    +0.420 HD
ATOM      3  C   LIG    1        6.844  -3.236  -5.043  0.00  0.00    +0.510 C 
ATOM      4  O   LIG    1        7.423  -3.470  -4.003  0.00  0.00    -0.490 OA
ENDROOT
BRANCH   1   8
ATOM      5  C   LIG    1       11.309  -5.043  -6.302  0.00  0.00    -0.690 A 
ATOM      6  C   LIG    1       10.413  -5.337  -7.314  0.00  0.00    +0.150 A 
ATOM      7  C   LIG    1        9.142  -4.799  -7.289  0.00  0.00    -0.030 A 
ATOM      8  C   LIG    1        8.763  -3.962  -6.248  0.00  0.00    +0.210 A 
ATOM      9  C   LIG    1        9.667  -3.664  -5.237  0.00  0.00    +0.010 A 
ATOM     10  C   LIG    1       10.936  -4.210  -5.264  0.00  0.00    +0.150 A 
BRANCH   5  11
ATOM     11  S   LIG    1       12.931  -5.732  -6.337  0.00  0.00    +2.700 S 
ATOM     12  O   LIG    1       12.851  -6.907  -7.131  0.00  0.00    -0.960 OA
ATOM     13  O   LIG    1       13.396  -5.731  -4.994  0.00  0.00    -0.960 OA
BRANCH  11  14
ATOM     14  N   LIG    1       13.896  -4.672  -7.165  0.00  0.00    -1.250 NA
ATOM     15  H   LIG    1       14.836  -4.872  -7.295  0.00  0.00    +0.420 HD
ATOM     16  H   LIG    1       13.521  -3.851  -7.522  0.00  0.00    +0.420 HD
ENDBRANCH  11  14
ENDBRANCH   5  11
ENDBRANCH   1   8
BRANCH   3  17
ATOM     17  C   LIG    1        5.420  -2.745  -5.019  0.00  0.00    +0.220 C 
BRANCH  17  18
ATOM     18  N   LIG    1        5.015  -2.487  -3.631  0.00  0.00    -0.520 NA
ATOM     19  C   LIG    1        5.768  -1.360  -3.063  0.00  0.00    +0.190 C 
ATOM     20  C   LIG    1        5.375  -1.174  -1.596  0.00  0.00    +0.190 C 
ATOM     21  N   LIG    1        3.928  -0.935  -1.505  0.00  0.00    -0.530 NA
ATOM     22  C   LIG    1        3.175  -2.062  -2.073  0.00  0.00    +0.180 C 
ATOM     23  C   LIG    1        3.567  -2.247  -3.540  0.00  0.00    +0.190 C 
BRANCH  21  24
ATOM     24  C   LIG    1        3.523  -0.676  -0.117  0.00  0.00    +0.220 C 
BRANCH  24  25
ATOM     25  C   LIG    1        2.094  -0.197  -0.092  0.00  0.00    -0.080 A 
ATOM     26  C   LIG    1        1.061  -1.109   0.020  0.00  0.00    +0.000 A 
ATOM     27  C   LIG    1       -0.249  -0.669   0.044  0.00  0.00    +0.000 A 
ATOM     28  C   LIG    1       -0.526   0.682  -0.043  0.00  0.00    +0.000 A 
ATOM     29  C   LIG    1        0.507   1.594  -0.154  0.00  0.00    +0.000 A 
ATOM     30  C   LIG    1        1.817   1.154  -0.180  0.00  0.00    +0.020 A 
ENDBRANCH  24  25
ENDBRANCH  21  24
ENDBRANCH  17  18
ENDBRANCH   3  17
TORSDOF 7
