REMARK  Name = ZINCrH00000tj0zA.0
REMARK                            x       y       z     vdW  Elec       q    Type
REMARK                         _______ _______ _______ _____ _____    ______ ____
ROOT
ATOM      1  C   LIG    1        3.725  -4.847  -0.371  0.00  0.00    +0.310 C 
ATOM      2  C   LIG    1        4.315  -5.085   1.020  0.00  0.00    +0.090 C 
ENDROOT
BRANCH   1   6
ATOM      3  C   LIG    1        3.787  -7.857  -2.389  0.00  0.00    +0.230 A 
ATOM      4  N   LIG    1        2.750  -8.056  -1.609  0.00  0.00    -0.280 NA
ATOM      5  N   LIG    1        2.611  -7.048  -0.822  0.00  0.00    -0.240 NA
ATOM      6  C   LIG    1        3.540  -6.169  -1.071  0.00  0.00    +0.150 A 
ATOM      7  O   LIG    1        4.307  -6.657  -2.062  0.00  0.00    -0.220 OA
BRANCH   3  11
ATOM      8  C   LIG    1        5.235 -10.500  -5.383  0.00  0.00    +0.160 A 
ATOM      9  C   LIG    1        4.120 -10.849  -4.632  0.00  0.00    +0.000 A 
ATOM     10  C   LIG    1        3.647  -9.994  -3.660  0.00  0.00    +0.130 A 
ATOM     11  C   LIG    1        4.291  -8.776  -3.430  0.00  0.00    -0.070 A 
ATOM     12  C   LIG    1        5.408  -8.427  -4.191  0.00  0.00    +0.100 A 
ATOM     13  C   LIG    1        5.878  -9.290  -5.157  0.00  0.00    -0.070 A 
BRANCH   8  15
ATOM     14  C   LIG    1        6.848 -10.924  -7.076  0.00  0.00    +0.250 C 
ATOM     15  O   LIG    1        5.697 -11.345  -6.341  0.00  0.00    -0.310 OA
ENDBRANCH   8  15
ENDBRANCH   3  11
ENDBRANCH   1   6
BRANCH   1  16
ATOM     16  O   LIG    1        2.441  -4.182  -0.245  0.00  0.00    -0.330 OA
BRANCH  16  17
ATOM     17  C   LIG    1        2.447  -2.835  -0.242  0.00  0.00    +0.520 C 
ATOM     18  O   LIG    1        3.497  -2.233  -0.341  0.00  0.00    -0.500 OA
BRANCH  17  19
ATOM     19  C   LIG    1        1.177  -2.091  -0.117  0.00  0.00    -0.080 A 
ATOM     20  C   LIG    1       -0.031  -2.781  -0.002  0.00  0.00    +0.020 A 
ATOM     21  C   LIG    1       -1.216  -2.083   0.115  0.00  0.00    +0.050 A 
ATOM     22  C   LIG    1       -1.212  -0.701   0.124  0.00  0.00    -0.030 A 
ATOM     23  C   LIG    1       -0.015  -0.004   0.005  0.00  0.00    +0.200 A 
ATOM     24  C   LIG    1        1.181  -0.695  -0.113  0.00  0.00    +0.000 A 
BRANCH  23  25
ATOM     25  N   LIG    1       -0.017   1.393   0.010  0.00  0.00    -0.640 N 
ATOM     26  C   LIG    1       -1.286   2.124   0.002  0.00  0.00    +0.280 C 
ATOM     27  C   LIG    1        1.251   2.127   0.017  0.00  0.00    +0.290 C 
ENDBRANCH  23  25
ENDBRANCH  17  19
ENDBRANCH  16  17
ENDBRANCH   1  16
TORSDOF 7
