REMARK  Name = ZINCkj000005k74h.1
REMARK                            x       y       z     vdW  Elec       q    Type
REMARK                         _______ _______ _______ _____ _____    ______ ____
ROOT
ATOM      1  C   LIG    1       -1.675   2.532  -0.594  0.00  0.00    +0.610 C 
ATOM      2  N   LIG    1       -1.416   3.840  -0.393  0.00  0.00    -0.750 N 
ATOM      3  H   LIG    1       -0.508   4.171  -0.468  0.00  0.00    +0.390 HD
ATOM      4  O   LIG    1       -2.813   2.116  -0.500  0.00  0.00    -0.520 OA
ENDROOT
BRANCH   1   7
ATOM      5  C   LIG    1       -1.961  -0.559  -1.114  0.00  0.00    +0.170 C 
ATOM      6  C   LIG    1       -0.690   0.251  -1.161  0.00  0.00    +0.180 A 
ATOM      7  C   LIG    1       -0.577   1.607  -0.929  0.00  0.00    -0.320 A 
ATOM      8  C   LIG    1        0.787   1.942  -1.078  0.00  0.00    +0.260 A 
ATOM      9  N   LIG    1        1.440   0.854  -1.379  0.00  0.00    -0.290 NA
ATOM     10  N   LIG    1        0.539  -0.214  -1.436  0.00  0.00    -0.350 N 
ATOM     11  C   LIG    1        0.878  -1.606  -1.744  0.00  0.00    +0.380 C 
ENDBRANCH   1   7
BRANCH   2  12
ATOM     12  C   LIG    1       -2.507   4.759  -0.061  0.00  0.00    +0.330 C 
BRANCH  12  13
ATOM     13  C   LIG    1       -1.932   6.145   0.240  0.00  0.00    +0.300 C 
BRANCH  13  14
ATOM     14  C   LIG    1       -1.311   6.713  -1.010  0.00  0.00    -0.110 A 
ATOM     15  C   LIG    1       -1.879   7.615  -1.831  0.00  0.00    +0.030 A 
ATOM     16  C   LIG    1       -0.953   7.865  -2.869  0.00  0.00    -0.050 A 
ATOM     17  C   LIG    1        0.126   7.102  -2.620  0.00  0.00    +0.230 A 
ATOM     18  O   LIG    1       -0.094   6.411  -1.490  0.00  0.00    -0.180 OA
ENDBRANCH  13  14
BRANCH  13  19
ATOM     19  N   LIG    1       -0.908   6.033   1.288  0.00  0.00    -0.390 N 
ATOM     20  C   LIG    1       -1.515   5.487   2.509  0.00  0.00    +0.340 C 
ATOM     21  C   LIG    1       -0.350   7.362   1.571  0.00  0.00    +0.330 C 
ATOM     22  H   LIG    1       -0.172   5.419   0.975  0.00  0.00    +0.420 HD
ENDBRANCH  13  19
ENDBRANCH  12  13
ENDBRANCH   2  12
TORSDOF 5
