REMARK  Name = ZINCvU0000000IZt.0
REMARK                            x       y       z     vdW  Elec       q    Type
REMARK                         _______ _______ _______ _____ _____    ______ ____
ROOT
ATOM      1  O   LIG    1       -3.695  -5.202   1.110  0.00  0.00    -0.500 OA
ATOM      2  C   LIG    1       -4.029  -4.157   0.593  0.00  0.00    +0.540 C 
ATOM      3  N   LIG    1       -5.248  -4.044   0.030  0.00  0.00    -0.650 N 
ATOM      4  H   LIG    1       -5.546  -3.186  -0.312  0.00  0.00    +0.430 HD
ENDROOT
BRANCH   3   5
ATOM      5  C   LIG    1       -6.085  -5.164  -0.061  0.00  0.00    +0.170 A 
ATOM      6  C   LIG    1       -5.541  -6.439  -0.072  0.00  0.00    +0.080 A 
ATOM      7  C   LIG    1       -6.369  -7.544  -0.156  0.00  0.00    -0.160 A 
ATOM      8  C   LIG    1       -7.739  -7.381  -0.242  0.00  0.00    +0.060 A 
ATOM      9  C   LIG    1       -8.290  -6.113  -0.238  0.00  0.00    +0.010 A 
ATOM     10  C   LIG    1       -7.468  -5.000  -0.148  0.00  0.00    +0.090 A 
BRANCH  10  11
ATOM     11  N   LIG    1       -8.023  -3.716  -0.143  0.00  0.00    -0.500 N 
ATOM     12  C   LIG    1       -8.871  -3.513   1.041  0.00  0.00    +0.160 C 
ATOM     13  C   LIG    1       -9.409  -2.080   1.037  0.00  0.00    +0.220 C 
ATOM     14  O   LIG    1      -10.117  -1.845  -0.183  0.00  0.00    -0.380 OA
ATOM     15  C   LIG    1       -9.320  -2.032  -1.356  0.00  0.00    +0.220 C 
ATOM     16  C   LIG    1       -8.782  -3.465  -1.377  0.00  0.00    +0.160 C 
ENDBRANCH  10  11
BRANCH   7  17
ATOM     17  C   LIG    1       -5.775  -8.929  -0.161  0.00  0.00    +0.510 C 
ATOM     18  F   LIG    1       -5.063  -9.135   1.025  0.00  0.00    -0.170 F 
ATOM     19  F   LIG    1       -4.911  -9.062  -1.253  0.00  0.00    -0.170 F 
ATOM     20  F   LIG    1       -6.801  -9.875  -0.259  0.00  0.00    -0.180 F 
ENDBRANCH   7  17
ENDBRANCH   3   5
BRANCH   2  21
ATOM     21  C   LIG    1       -3.081  -2.986   0.580  0.00  0.00    +0.120 C 
BRANCH  21  22
ATOM     22  S   LIG    1       -1.538  -3.449   1.406  0.00  0.00    +0.160 S 
BRANCH  22  23
ATOM     23  C   LIG    1       -0.642  -1.940   1.250  0.00  0.00    +0.210 A 
ATOM     24  N   LIG    1       -1.093  -0.857   0.668  0.00  0.00    -0.480 NA
ATOM     25  C   LIG    1       -0.133   0.106   0.735  0.00  0.00    +0.050 A 
ATOM     26  C   LIG    1       -0.061   1.427   0.292  0.00  0.00    +0.100 A 
ATOM     27  C   LIG    1        1.083   2.163   0.519  0.00  0.00    -0.030 A 
ATOM     28  C   LIG    1        2.160   1.597   1.184  0.00  0.00    +0.070 A 
ATOM     29  C   LIG    1        2.102   0.291   1.627  0.00  0.00    +0.080 A 
ATOM     30 CL   LIG    1        1.175   3.807  -0.031  0.00  0.00    -0.050 Cl
ATOM     31  C   LIG    1        0.960  -0.462   1.407  0.00  0.00    +0.010 A 
ATOM     32  O   LIG    1        0.605  -1.732   1.710  0.00  0.00    -0.190 OA
ENDBRANCH  22  23
ENDBRANCH  21  22
ENDBRANCH   2  21
TORSDOF 6
