REMARK  Name = ZINCtj00001yywp9.1
REMARK                            x       y       z     vdW  Elec       q    Type
REMARK                         _______ _______ _______ _____ _____    ______ ____
ROOT
ATOM      1  N   LIG    1       -2.115   1.117  -1.221  0.00  0.00    -0.370 N 
ATOM      2  C   LIG    1       -0.853   1.860  -1.120  0.00  0.00    +0.260 C 
ATOM      3  C   LIG    1       -0.080   1.394   0.116  0.00  0.00    +0.100 C 
ATOM      4  C   LIG    1       -0.925   1.649   1.367  0.00  0.00    +0.000 C 
ATOM      5  C   LIG    1       -2.270   0.929   1.217  0.00  0.00    +0.080 C 
ATOM      6  C   LIG    1       -2.962   1.413  -0.059  0.00  0.00    +0.280 C 
ATOM      7  H   LIG    1       -1.920   0.128  -1.251  0.00  0.00    +0.430 HD
ENDROOT
BRANCH   4   8
ATOM      8  C   LIG    1       -0.203   1.121   2.580  0.00  0.00    +0.510 C 
ATOM      9  N   LIG    1       -0.762   1.236   3.800  0.00  0.00    -0.720 N 
ATOM     10  H   LIG    1       -1.629   1.658   3.899  0.00  0.00    +0.400 HD
ATOM     11  O   LIG    1        0.882   0.592   2.457  0.00  0.00    -0.520 OA
BRANCH   9  12
ATOM     12  C   LIG    1       -0.059   0.723   4.979  0.00  0.00    +0.320 C 
BRANCH  12  13
ATOM     13  C   LIG    1       -0.892   0.974   6.210  0.00  0.00    -0.120 A 
ATOM     14  C   LIG    1       -0.736   2.149   6.921  0.00  0.00    +0.020 A 
ATOM     15  C   LIG    1       -1.504   2.381   8.047  0.00  0.00    +0.010 A 
ATOM     16  C   LIG    1       -2.419   1.435   8.467  0.00  0.00    +0.020 A 
ATOM     17  C   LIG    1       -2.571   0.258   7.759  0.00  0.00    +0.010 A 
ATOM     18  C   LIG    1       -1.808   0.027   6.630  0.00  0.00    +0.020 A 
ENDBRANCH  12  13
ENDBRANCH   9  12
ENDBRANCH   4   8
BRANCH   1  19
ATOM     19  C   LIG    1       -2.816   1.512  -2.450  0.00  0.00    +0.290 C 
BRANCH  19  22
ATOM     20  C   LIG    1       -3.595   2.267  -5.069  0.00  0.00    +0.310 C 
ATOM     21  N   LIG    1       -2.403   1.435  -4.888  0.00  0.00    -0.570 N 
ATOM     22  C   LIG    1       -2.019   1.067  -3.649  0.00  0.00    +0.510 C 
ATOM     23  O   LIG    1       -1.032   0.379  -3.499  0.00  0.00    -0.520 OA
BRANCH  21  24
ATOM     24  C   LIG    1       -1.628   1.002  -6.053  0.00  0.00    +0.330 C 
BRANCH  24  25
ATOM     25  C   LIG    1       -2.163  -0.316  -6.551  0.00  0.00    +0.500 C 
ATOM     26  N   LIG    1       -1.601  -0.910  -7.622  0.00  0.00    -0.720 N 
ATOM     27  H   LIG    1       -0.852  -0.489  -8.073  0.00  0.00    +0.400 HD
ATOM     28  O   LIG    1       -3.100  -0.842  -5.988  0.00  0.00    -0.530 OA
BRANCH  26  29
ATOM     29  C   LIG    1       -2.122  -2.191  -8.107  0.00  0.00    +0.170 C 
ATOM     30  C   LIG    1       -2.006  -3.240  -6.999  0.00  0.00    +0.030 C 
ATOM     31  C   LIG    1       -1.312  -2.643  -9.324  0.00  0.00    +0.040 C 
ATOM     32  C   LIG    1       -3.590  -2.028  -8.503  0.00  0.00    +0.040 C 
ENDBRANCH  26  29
ENDBRANCH  24  25
ENDBRANCH  21  24
ENDBRANCH  19  22
ENDBRANCH   1  19
TORSDOF 8
