REMARK  Name = ZINCpk00000y6y9I.0
REMARK                            x       y       z     vdW  Elec       q    Type
REMARK                         _______ _______ _______ _____ _____    ______ ____
ROOT
ATOM      1  O   LIG    1       -1.676  -0.066   1.169  0.00  0.00    -0.530 OA
ATOM      2  C   LIG    1       -0.667  -0.705   0.939  0.00  0.00    +0.600 C 
ATOM      3  N   LIG    1        0.507  -0.069   0.760  0.00  0.00    -0.610 N 
ATOM      4  C   LIG    1        1.754  -0.830   0.603  0.00  0.00    +0.260 C 
ATOM      5  C   LIG    1        2.773  -0.323   1.628  0.00  0.00    +0.020 C 
ATOM      6  C   LIG    1        2.937   1.191   1.474  0.00  0.00    +0.030 C 
ATOM      7  C   LIG    1        1.598   1.880   1.743  0.00  0.00    -0.030 C 
ATOM      8  C   LIG    1        0.565   1.399   0.719  0.00  0.00    +0.290 C 
ENDROOT
BRANCH   2   9
ATOM      9  C   LIG    1       -0.730  -2.176   0.854  0.00  0.00    -0.280 A 
ATOM     10  C   LIG    1       -0.075  -2.972  -0.064  0.00  0.00    +0.290 A 
ATOM     11  N   LIG    1       -0.400  -4.247   0.206  0.00  0.00    -0.460 N 
ATOM     12  H   LIG    1       -0.086  -5.026  -0.278  0.00  0.00    +0.450 HD
ATOM     13  N   LIG    1       -1.266  -4.261   1.305  0.00  0.00    -0.280 NA
ATOM     14  C   LIG    1       -1.465  -3.034   1.702  0.00  0.00    +0.140 A 
BRANCH  14  15
ATOM     15  C   LIG    1       -2.330  -2.607   2.859  0.00  0.00    +0.090 C 
ATOM     16  C   LIG    1       -1.807  -3.241   4.152  0.00  0.00    +0.000 C 
ATOM     17  C   LIG    1       -2.739  -2.868   5.308  0.00  0.00    +0.210 C 
ATOM     18  O   LIG    1       -4.068  -3.300   5.008  0.00  0.00    -0.380 OA
ATOM     19  C   LIG    1       -4.625  -2.702   3.836  0.00  0.00    +0.210 C 
ATOM     20  C   LIG    1       -3.771  -3.070   2.620  0.00  0.00    +0.020 C 
ENDBRANCH  14  15
ENDBRANCH   2   9
BRANCH   7  21
ATOM     21  C   LIG    1        1.770   3.396   1.620  0.00  0.00    +0.330 C 
BRANCH  21  22
ATOM     22  N   LIG    1        0.518   4.061   1.990  0.00  0.00    -0.380 N 
ATOM     23  C   LIG    1        0.357   5.013   2.925  0.00  0.00    +0.470 A 
ATOM     24  N   LIG    1       -0.907   5.347   2.951  0.00  0.00    -0.550 NA
ATOM     25  C   LIG    1       -1.582   4.633   2.052  0.00  0.00    +0.420 A 
ATOM     26  N   LIG    1       -0.752   3.834   1.434  0.00  0.00    -0.310 NA
ENDBRANCH  21  22
ENDBRANCH   7  21
TORSDOF 4
