REMARK  Name = ZINCvU00000009pt.0
REMARK                            x       y       z     vdW  Elec       q    Type
REMARK                         _______ _______ _______ _____ _____    ______ ____
ROOT
ATOM      1  N   LIG    1        3.347  -0.450   7.530  0.00  0.00    -0.380 N 
ATOM      2  N   LIG    1        3.003   0.299   6.393  0.00  0.00    -0.280 NA
ATOM      3  C   LIG    1        1.905  -0.234   5.902  0.00  0.00    +0.280 A 
ATOM      4  N   LIG    1        1.551  -1.277   6.661  0.00  0.00    -0.510 NA
ATOM      5  C   LIG    1        2.411  -1.420   7.647  0.00  0.00    +0.350 A 
ENDROOT
BRANCH   5   6
ATOM      6  C   LIG    1        2.362  -2.458   8.700  0.00  0.00    -0.070 A 
ATOM      7  C   LIG    1        3.542  -2.946   9.262  0.00  0.00    +0.070 A 
ATOM      8  C   LIG    1        3.495  -3.910  10.243  0.00  0.00    +0.010 A 
ATOM      9  C   LIG    1        2.271  -4.419  10.675  0.00  0.00    +0.140 A 
ATOM     10  O   LIG    1        2.006  -5.375  11.607  0.00  0.00    -0.300 OA
ATOM     11  C   LIG    1        0.636  -5.263  12.026  0.00  0.00    +0.170 C 
ATOM     12  C   LIG    1       -0.054  -4.650  10.784  0.00  0.00    +0.090 C 
ATOM     13  C   LIG    1        0.049  -6.639  12.348  0.00  0.00    +0.070 C 
ATOM     14  C   LIG    1        1.098  -3.929  10.111  0.00  0.00    -0.170 A 
ATOM     15  C   LIG    1        1.134  -2.963   9.134  0.00  0.00    +0.130 A 
ENDBRANCH   5   6
BRANCH   3  16
ATOM     16  C   LIG    1        1.181   0.241   4.697  0.00  0.00    +0.010 A 
ATOM     17  C   LIG    1        1.654   1.344   3.989  0.00  0.00    +0.060 A 
ATOM     18  C   LIG    1        0.983   1.781   2.865  0.00  0.00    +0.020 A 
ATOM     19  C   LIG    1       -0.170   1.130   2.446  0.00  0.00    +0.070 A 
ATOM     20  C   LIG    1       -0.645   0.028   3.151  0.00  0.00    +0.120 A 
ATOM     21  F   LIG    1       -1.763  -0.608   2.738  0.00  0.00    -0.120 F 
ATOM     22  C   LIG    1        0.027  -0.416   4.272  0.00  0.00    +0.040 A 
BRANCH  19  23
ATOM     23  N   LIG    1       -0.851   1.578   1.311  0.00  0.00    -0.510 N 
ATOM     24  C   LIG    1       -1.385   2.931   1.517  0.00  0.00    +0.210 C 
ATOM     25  C   LIG    1        0.014   1.529   0.124  0.00  0.00    +0.210 C 
ENDBRANCH  19  23
ENDBRANCH   3  16
BRANCH   1  27
ATOM     26  C   LIG    1        5.788  -0.552   7.656  0.00  0.00    +0.110 C 
ATOM     27  C   LIG    1        4.497  -0.229   8.411  0.00  0.00    +0.260 C 
BRANCH  27  28
ATOM     28  C   LIG    1        4.521   1.233   8.861  0.00  0.00    +0.450 C 
ATOM     29  F   LIG    1        4.626   2.064   7.741  0.00  0.00    -0.160 F 
ATOM     30  F   LIG    1        5.619   1.444   9.702  0.00  0.00    -0.170 F 
ATOM     31  F   LIG    1        3.341   1.528   9.552  0.00  0.00    -0.180 F 
ENDBRANCH  27  28
ENDBRANCH   1  27
TORSDOF 5
