REMARK  Name = ZINCpk00000e9LKY.0
REMARK                            x       y       z     vdW  Elec       q    Type
REMARK                         _______ _______ _______ _____ _____    ______ ____
ROOT
ATOM      1  N   LIG    1       -5.062   8.030   4.435  0.00  0.00    -0.740 N 
ATOM      2  H   LIG    1       -4.505   7.718   5.165  0.00  0.00    +0.400 HD
ATOM      3  C   LIG    1       -4.682   7.818   3.159  0.00  0.00    +0.700 C 
ATOM      4  N   LIG    1       -3.527   7.172   2.899  0.00  0.00    -0.750 N 
ATOM      5  H   LIG    1       -2.970   6.861   3.629  0.00  0.00    +0.400 HD
ATOM      6  O   LIG    1       -5.380   8.209   2.244  0.00  0.00    -0.590 OA
ENDROOT
BRANCH   1   7
ATOM      7  C   LIG    1       -6.316   8.732   4.718  0.00  0.00    +0.270 C 
BRANCH   7   8
ATOM      8  C   LIG    1       -6.510   8.839   6.232  0.00  0.00    +0.210 C 
ATOM      9  C   LIG    1       -5.341   9.617   6.842  0.00  0.00    +0.070 C 
BRANCH   8  13
ATOM     10  C   LIG    1      -10.747  10.335   8.452  0.00  0.00    +0.360 C 
ATOM     11  N   LIG    1       -9.645  10.208   7.495  0.00  0.00    -0.370 N 
ATOM     12  C   LIG    1       -8.589   9.375   7.607  0.00  0.00    +0.260 A 
ATOM     13  C   LIG    1       -7.800   9.561   6.524  0.00  0.00    -0.280 A 
ATOM     14  C   LIG    1       -8.391  10.545   5.725  0.00  0.00    +0.240 A 
ATOM     15  N   LIG    1       -9.500  10.930   6.304  0.00  0.00    -0.290 NA
ENDBRANCH   8  13
BRANCH   8  16
ATOM     16  O   LIG    1       -6.558   7.529   6.801  0.00  0.00    -0.550 OA
ATOM     17  H   LIG    1       -7.276   6.978   6.460  0.00  0.00    +0.380 HD
ENDBRANCH   8  16
ENDBRANCH   7   8
ENDBRANCH   1   7
BRANCH   4  18
ATOM     18  C   LIG    1       -3.114   6.942   1.512  0.00  0.00    +0.280 C 
BRANCH  18  19
ATOM     19  C   LIG    1       -1.779   6.195   1.495  0.00  0.00    -0.010 C 
BRANCH  19  20
ATOM     20  C   LIG    1       -1.347   5.954   0.047  0.00  0.00    +0.290 C 
BRANCH  20  21
ATOM     21  N   LIG    1       -0.069   5.239   0.031  0.00  0.00    -0.630 N 
ATOM     22  C   LIG    1        1.190   5.989   0.024  0.00  0.00    +0.280 C 
BRANCH  21  23
ATOM     23  C   LIG    1       -0.050   3.842   0.023  0.00  0.00    +0.210 A 
ATOM     24  C   LIG    1        1.161   3.163   0.008  0.00  0.00    -0.080 A 
ATOM     25  C   LIG    1        1.176   1.782   0.000  0.00  0.00    +0.050 A 
ATOM     26  C   LIG    1       -0.013   1.076   0.008  0.00  0.00    -0.060 A 
ATOM     27  C   LIG    1       -1.220   1.749   0.017  0.00  0.00    +0.050 A 
ATOM     28  C   LIG    1       -1.243   3.130   0.031  0.00  0.00    -0.080 A 
ENDBRANCH  21  23
ENDBRANCH  20  21
ENDBRANCH  19  20
ENDBRANCH  18  19
ENDBRANCH   4  18
TORSDOF 9
