REMARK  Name = ZINCqH0000034w5C.0
REMARK                            x       y       z     vdW  Elec       q    Type
REMARK                         _______ _______ _______ _____ _____    ______ ____
ROOT
ATOM      1  C   LIG    1       -2.376   3.658   0.731  0.00  0.00    -0.670 A 
ATOM      2  C   LIG    1       -3.544   3.612   1.468  0.00  0.00    +0.130 A 
ATOM      3  C   LIG    1       -4.742   4.003   0.898  0.00  0.00    +0.010 A 
ATOM      4  C   LIG    1       -4.774   4.441  -0.415  0.00  0.00    +0.140 A 
ATOM      5  C   LIG    1       -3.597   4.487  -1.159  0.00  0.00    +0.100 A 
ATOM      6  C   LIG    1       -2.398   4.100  -0.579  0.00  0.00    +0.150 A 
ENDROOT
BRANCH   5   7
ATOM      7  N   LIG    1       -3.623   4.930  -2.488  0.00  0.00    -0.660 N 
ATOM      8  H   LIG    1       -4.388   4.732  -3.050  0.00  0.00    +0.420 HD
ATOM      9  C   LIG    1       -2.585   5.632  -2.985  0.00  0.00    +0.580 C 
ATOM     10  O   LIG    1       -1.591   5.811  -2.306  0.00  0.00    -0.480 OA
BRANCH   9  11
ATOM     11  C   LIG    1       -2.654   6.180  -4.345  0.00  0.00    -0.240 A 
ATOM     12  C   LIG    1       -1.680   6.888  -4.930  0.00  0.00    +0.050 A 
ATOM     13  C   LIG    1       -1.950   7.320  -6.240  0.00  0.00    -0.090 A 
ATOM     14  C   LIG    1       -1.131   8.077  -7.111  0.00  0.00    +0.080 A 
ATOM     15  C   LIG    1       -1.565   8.403  -8.357  0.00  0.00    +0.020 A 
ATOM     16  C   LIG    1       -2.819   7.999  -8.799  0.00  0.00    +0.060 A 
ATOM     17  C   LIG    1       -3.638   7.263  -7.976  0.00  0.00    +0.050 A 
ATOM     18  C   LIG    1       -3.213   6.915  -6.690  0.00  0.00    -0.120 A 
ATOM     19 CL   LIG    1       -0.186   7.250  -4.124  0.00  0.00    -0.000 Cl
ATOM     20  S   LIG    1       -4.019   5.989  -5.430  0.00  0.00    +0.160 S 
ENDBRANCH   9  11
ENDBRANCH   5   7
BRANCH   1  21
ATOM     21  S   LIG    1       -0.854   3.160   1.465  0.00  0.00    +2.690 S 
ATOM     22  O   LIG    1        0.176   3.809   0.732  0.00  0.00    -0.940 OA
ATOM     23  O   LIG    1       -1.018   3.306   2.869  0.00  0.00    -0.950 OA
BRANCH  21  25
ATOM     24  C   LIG    1        0.003   1.076  -0.031  0.00  0.00    +0.300 C 
ATOM     25  N   LIG    1       -0.680   1.538   1.180  0.00  0.00    -1.010 NA
ATOM     26  C   LIG    1       -1.209   0.565   2.139  0.00  0.00    +0.300 C 
ENDBRANCH  21  25
ENDBRANCH   1  21
BRANCH   4  27
ATOM     27  O   LIG    1       -5.951   4.825  -0.977  0.00  0.00    -0.490 OA
ATOM     28  H   LIG    1       -6.152   5.765  -0.867  0.00  0.00    +0.400 HD
ENDBRANCH   4  27
TORSDOF 5
