REMARK  Name = ZINCrH000004qImI.0
REMARK                            x       y       z     vdW  Elec       q    Type
REMARK                         _______ _______ _______ _____ _____    ______ ____
ROOT
ATOM      1  N   LIG    1       -4.079   6.159   2.453  0.00  0.00    -0.730 N 
ATOM      2  H   LIG    1       -3.689   5.822   3.275  0.00  0.00    +0.400 HD
ATOM      3  C   LIG    1       -4.787   7.306   2.464  0.00  0.00    +0.570 C 
ATOM      4  O   LIG    1       -5.276   7.728   1.434  0.00  0.00    -0.530 OA
ENDROOT
BRANCH   3   5
ATOM      5  C   LIG    1       -4.968   8.050   3.727  0.00  0.00    -0.180 A 
ATOM      6  C   LIG    1       -4.403   7.561   4.915  0.00  0.00    +0.090 A 
ATOM      7  C   LIG    1       -4.561   8.234   6.088  0.00  0.00    -0.020 A 
ATOM      8  C   LIG    1       -5.289   9.424   6.122  0.00  0.00    +0.150 A 
ATOM      9  N   LIG    1       -5.613  10.303   7.119  0.00  0.00    -0.500 N 
ATOM     10  H   LIG    1       -5.354  10.217   8.049  0.00  0.00    +0.440 HD
ATOM     11  N   LIG    1       -6.376  11.345   6.582  0.00  0.00    -0.250 NA
ATOM     12  C   LIG    1       -6.546  11.164   5.304  0.00  0.00    +0.110 A 
ATOM     13  C   LIG    1       -7.312  12.067   4.373  0.00  0.00    +0.180 C 
ATOM     14  C   LIG    1       -5.862   9.927   4.936  0.00  0.00    -0.190 A 
ATOM     15  C   LIG    1       -5.694   9.235   3.736  0.00  0.00    +0.180 A 
ENDBRANCH   3   5
BRANCH   1  20
ATOM     16  N   LIG    1       -2.458   3.819   0.036  0.00  0.00    -0.490 N 
ATOM     17  C   LIG    1       -3.579   2.896  -0.182  0.00  0.00    +0.180 C 
ATOM     18  C   LIG    1       -4.879   3.692  -0.309  0.00  0.00    +0.050 C 
ATOM     19  C   LIG    1       -5.103   4.503   0.970  0.00  0.00    +0.000 C 
ATOM     20  C   LIG    1       -3.899   5.421   1.200  0.00  0.00    +0.250 C 
ATOM     21  C   LIG    1       -2.627   4.575   1.284  0.00  0.00    +0.170 C 
BRANCH  16  29
ATOM     22  C   LIG    1       -0.514   4.574  -1.899  0.00  0.00    +0.110 C 
ATOM     23  C   LIG    1       -0.260   3.473  -0.902  0.00  0.00    -0.030 A 
ATOM     24  C   LIG    1        0.942   2.793  -0.915  0.00  0.00    -0.010 A 
ATOM     25  C   LIG    1        1.178   1.785   0.005  0.00  0.00    +0.100 A 
ATOM     26  C   LIG    1        0.208   1.452   0.935  0.00  0.00    -0.010 A 
ATOM     27  C   LIG    1       -0.998   2.126   0.947  0.00  0.00    +0.020 A 
ATOM     28  F   LIG    1        2.357   1.126  -0.005  0.00  0.00    -0.140 F 
ATOM     29  C   LIG    1       -1.237   3.137   0.026  0.00  0.00    +0.070 A 
ENDBRANCH  16  29
ENDBRANCH   1  20
TORSDOF 3
