REMARK  Name = ZINCqH00000080ZX.0
REMARK                            x       y       z     vdW  Elec       q    Type
REMARK                         _______ _______ _______ _____ _____    ______ ____
ROOT
ATOM      1  C   UNK A  0        1.648   5.638  -2.500  0.00  0.00    +0.310 C 
ATOM      2  C   UNK A  0        1.449   5.783  -4.023  0.00  0.00    +0.030 C 
ATOM      3  C   UNK A  0        0.830   7.191  -4.144  0.00  0.00    +0.070 C 
ATOM      4  C   UNK A  0        1.323   7.947  -2.928  0.00  0.00    -0.080 A 
ATOM      5  C   UNK A  0        1.356   9.309  -2.673  0.00  0.00    +0.020 A 
ATOM      6  C   UNK A  0        1.857   9.782  -1.479  0.00  0.00    +0.030 A 
ATOM      7  C   UNK A  0        2.331   8.887  -0.523  0.00  0.00    -0.050 A 
ATOM      8  C   UNK A  0        2.296   7.519  -0.782  0.00  0.00    +0.040 A 
ATOM      9  C   UNK A  0        1.793   7.053  -1.982  0.00  0.00    -0.120 A 
ENDROOT
BRANCH   1  13
ATOM     10  N   MET A  1       -0.670   3.054  -1.286  0.00  0.00    -0.730 N 
ATOM     11  H   MET A  1       -1.388   3.595  -0.921  0.00  0.00    +0.400 HD
ATOM     12  C   UNK A  0        0.404   3.648  -1.843  0.00  0.00    +0.710 C 
ATOM     13  N   UNK A  0        0.481   4.993  -1.894  0.00  0.00    -0.740 N 
ATOM     14  H   UNK A  0       -0.237   5.533  -1.529  0.00  0.00    +0.400 HD
ATOM     15  O   UNK A  0        1.304   2.970  -2.301  0.00  0.00    -0.590 OA
BRANCH  10  16
ATOM     16  CA  MET A  1       -0.753   1.593  -1.232  0.00  0.00    +0.270 C 
BRANCH  16  17
ATOM     17  CB  MET A  1       -2.221   1.167  -1.159  0.00  0.00    +0.070 C 
BRANCH  17  18
ATOM     18  CG  MET A  1       -2.932   1.565  -2.454  0.00  0.00    +0.070 C 
BRANCH  18  20
ATOM     19  CE  MET A  1       -5.335   1.609  -3.964  0.00  0.00    +0.140 C 
ATOM     20  SD  MET A  1       -4.672   1.061  -2.367  0.00  0.00    -0.260 S 
ENDBRANCH  18  20
ENDBRANCH  17  18
ENDBRANCH  16  17
BRANCH  16  21
ATOM     21  C   MET A  1       -0.013   1.086   0.008  0.00  0.00    +0.170 C 
BRANCH  21  22
ATOM     22  O   MET A  1       -0.682   1.547   1.184  0.00  0.00    -0.570 OA
ATOM     23  H   MET A  1       -0.266   1.262   2.009  0.00  0.00    +0.380 HD
ENDBRANCH  21  22
ENDBRANCH  16  21
ENDBRANCH  10  16
ENDBRANCH   1  13
BRANCH   7  24
ATOM     24  C   UNK A  0        2.872   9.388   0.765  0.00  0.00    -0.050 A 
ATOM     25  C   UNK A  0        3.341   8.491   1.723  0.00  0.00    +0.010 A 
ATOM     26  C   UNK A  0        3.849   8.963   2.916  0.00  0.00    +0.000 A 
ATOM     27  C   UNK A  0        3.881  10.323   3.168  0.00  0.00    +0.000 A 
ATOM     28  C   UNK A  0        3.411  11.217   2.223  0.00  0.00    +0.010 A 
ATOM     29  C   UNK A  0        2.907  10.757   1.023  0.00  0.00    +0.020 A 
ENDBRANCH   7  24
TORSDOF 8
