REMARK  Name = ZINCnE000001HxaP.0
REMARK                            x       y       z     vdW  Elec       q    Type
REMARK                         _______ _______ _______ _____ _____    ______ ____
ROOT
ATOM      1  C   LIG    1       -0.788   3.093  -1.204  0.00  0.00    +0.510 C 
ATOM      2  N   LIG    1       -1.866   3.753  -1.671  0.00  0.00    -0.720 N 
ATOM      3  H   LIG    1       -2.595   3.263  -2.082  0.00  0.00    +0.390 HD
ATOM      4  O   LIG    1        0.162   3.712  -0.772  0.00  0.00    -0.540 OA
ENDROOT
BRANCH   2   5
ATOM      5  C   LIG    1       -1.938   5.212  -1.557  0.00  0.00    +0.260 C 
ATOM      6  C   LIG    1       -2.555   5.607  -0.200  0.00  0.00    +0.000 C 
ATOM      7  C   LIG    1       -4.056   5.828  -0.515  0.00  0.00    +0.000 C 
ATOM      8  C   LIG    1       -4.016   6.500  -1.910  0.00  0.00    +0.020 C 
ATOM      9  C   LIG    1       -2.867   5.780  -2.644  0.00  0.00    -0.140 C 
ATOM     10  C   LIG    1       -3.424   4.644  -3.505  0.00  0.00    +0.020 C 
BRANCH   9  11
ATOM     11  C   LIG    1       -2.113   6.759  -3.508  0.00  0.00    +0.500 C 
ATOM     12  O   LIG    1       -1.192   7.405  -3.036  0.00  0.00    -0.690 OA
ATOM     13  O   LIG    1       -2.423   6.905  -4.678  0.00  0.00    -0.700 OA
ENDBRANCH   9  11
ENDBRANCH   2   5
BRANCH   1  14
ATOM     14  C   LIG    1       -0.762   1.587  -1.218  0.00  0.00    -0.020 C 
BRANCH  14  16
ATOM     15  C   LIG    1       -0.794   1.446   1.276  0.00  0.00    +0.010 C 
ATOM     16  C   LIG    1       -0.011   1.078   0.014  0.00  0.00    +0.040 C 
ENDBRANCH  14  16
BRANCH  14  17
ATOM     17  C   LIG    1       -0.053   1.100  -2.484  0.00  0.00    +0.040 C 
BRANCH  17  18
ATOM     18  C   LIG    1       -0.137  -0.425  -2.561  0.00  0.00    +0.070 C 
BRANCH  18  19
ATOM     19  C   LIG    1        0.561  -0.904  -3.808  0.00  0.00    -0.080 A 
ATOM     20  C   LIG    1       -0.147  -1.043  -4.986  0.00  0.00    +0.000 A 
ATOM     21  C   LIG    1        0.494  -1.478  -6.131  0.00  0.00    +0.000 A 
ATOM     22  C   LIG    1        1.842  -1.783  -6.095  0.00  0.00    -0.010 A 
ATOM     23  C   LIG    1        2.549  -1.650  -4.915  0.00  0.00    +0.000 A 
ATOM     24  C   LIG    1        1.909  -1.210  -3.771  0.00  0.00    +0.000 A 
ENDBRANCH  18  19
ENDBRANCH  17  18
ENDBRANCH  14  17
ENDBRANCH   1  14
TORSDOF 7
