REMARK  Name = ZINCrH000004nZ6R.0
REMARK                            x       y       z     vdW  Elec       q    Type
REMARK                         _______ _______ _______ _____ _____    ______ ____
ROOT
ATOM      1  N   LIG    1        6.229   0.496   2.314  0.00  0.00    -0.670 N 
ATOM      2  H   LIG    1        6.896   0.902   1.738  0.00  0.00    +0.420 HD
ATOM      3  C   LIG    1        5.127  -0.065   1.779  0.00  0.00    +0.500 C 
ATOM      4  O   LIG    1        4.334  -0.645   2.491  0.00  0.00    -0.500 OA
ENDROOT
BRANCH   1  10
ATOM      5  C   LIG    1        6.403  -0.756   8.320  0.00  0.00    +0.080 A 
ATOM      6  N   LIG    1        6.873   0.331   7.811  0.00  0.00    -0.470 NA
ATOM      7  C   LIG    1        6.778   0.494   6.475  0.00  0.00    +0.080 A 
ATOM      8  C   LIG    1        7.213   1.581   5.688  0.00  0.00    +0.090 A 
ATOM      9  C   LIG    1        7.034   1.572   4.327  0.00  0.00    +0.020 A 
ATOM     10  C   LIG    1        6.412   0.494   3.704  0.00  0.00    +0.160 A 
ATOM     11  C   LIG    1        5.979  -0.582   4.458  0.00  0.00    +0.080 A 
ATOM     12  C   LIG    1        6.160  -0.586   5.838  0.00  0.00    -0.160 A 
ATOM     13  S   LIG    1        5.730  -1.781   7.059  0.00  0.00    +0.120 S 
BRANCH   5  15
ATOM     14  C   LIG    1        7.247   0.318  10.691  0.00  0.00    +0.150 C 
ATOM     15  S   LIG    1        6.430  -1.158  10.035  0.00  0.00    +0.000 S 
ENDBRANCH   5  15
ENDBRANCH   1  10
BRANCH   3  16
ATOM     16  C   LIG    1        4.879   0.029   0.295  0.00  0.00    +0.340 C 
BRANCH  16  17
ATOM     17  N   LIG    1        3.625  -0.654  -0.034  0.00  0.00    -0.540 N 
ATOM     18  C   LIG    1        3.623  -1.968  -0.349  0.00  0.00    +0.500 C 
ATOM     19  C   LIG    1        2.328  -2.645  -0.723  0.00  0.00    +0.190 C 
ATOM     20  O   LIG    1        1.244  -2.028  -0.023  0.00  0.00    -0.300 OA
ATOM     21  C   LIG    1        1.212  -0.669  -0.021  0.00  0.00    +0.090 A 
ATOM     22  C   LIG    1        0.006   0.009  -0.012  0.00  0.00    +0.030 A 
ATOM     23  C   LIG    1       -0.006   1.393  -0.013  0.00  0.00    +0.030 A 
ATOM     24  C   LIG    1        1.181   2.100  -0.021  0.00  0.00    +0.020 A 
ATOM     25  C   LIG    1        2.391   1.430  -0.029  0.00  0.00    +0.000 A 
ATOM     26  C   LIG    1        2.401  -4.126  -0.347  0.00  0.00    +0.100 C 
ATOM     27  O   LIG    1        4.657  -2.600  -0.332  0.00  0.00    -0.500 OA
ATOM     28  C   LIG    1        2.410   0.045  -0.028  0.00  0.00    +0.100 A 
ENDBRANCH  16  17
ENDBRANCH   3  16
TORSDOF 4
