REMARK  Name = ZINCrH000004jlcB.0
REMARK                            x       y       z     vdW  Elec       q    Type
REMARK                         _______ _______ _______ _____ _____    ______ ____
ROOT
ATOM      1  N   LIG    1        2.695  -3.384  -0.325  0.00  0.00    -0.520 NA
ATOM      2  C   LIG    1        3.997  -3.323   0.358  0.00  0.00    +0.250 C 
ATOM      3  C   LIG    1        4.482  -1.876   0.351  0.00  0.00    -0.050 C 
ATOM      4  C   LIG    1        3.397  -0.951   0.833  0.00  0.00    -0.060 A 
ATOM      5  C   LIG    1        3.743   0.334   1.220  0.00  0.00    +0.030 A 
ATOM      6  C   LIG    1        2.774   1.220   1.664  0.00  0.00    +0.060 A 
ATOM      7  C   LIG    1        1.446   0.815   1.717  0.00  0.00    +0.060 A 
ATOM      8  O   LIG    1        0.479   1.670   2.132  0.00  0.00    -0.310 OA
ATOM      9  C   LIG    1        0.850   2.869   2.793  0.00  0.00    +0.220 C 
ATOM     10  C   LIG    1        2.128   3.458   2.216  0.00  0.00    +0.220 C 
ATOM     11  C   LIG    1        1.106  -0.472   1.334  0.00  0.00    +0.040 A 
ATOM     12  O   LIG    1        3.132   2.470   2.048  0.00  0.00    -0.310 OA
ATOM     13  C   LIG    1        2.079  -1.356   0.893  0.00  0.00    -0.100 A 
ATOM     14  C   LIG    1        4.907  -1.477  -1.074  0.00  0.00    +0.030 C 
ATOM     15  C   LIG    1        6.144  -0.569  -0.859  0.00  0.00    +0.010 C 
ATOM     16  C   LIG    1        6.869  -1.252   0.327  0.00  0.00    +0.020 C 
ATOM     17  C   LIG    1        5.724  -1.734   1.243  0.00  0.00    +0.030 C 
ATOM     18  C   LIG    1        1.659  -2.747   0.494  0.00  0.00    +0.220 C 
ATOM     19  C   LIG    1        0.358  -2.670  -0.307  0.00  0.00    +0.050 C 
ENDROOT
BRANCH   1  20
ATOM     20  C   LIG    1        2.769  -2.764  -1.655  0.00  0.00    +0.340 C 
BRANCH  20  24
ATOM     21  C   LIG    1       -0.170  -3.275  -3.652  0.00  0.00    +0.170 A 
ATOM     22  N   LIG    1        0.287  -4.483  -3.502  0.00  0.00    -0.390 NA
ATOM     23  O   LIG    1        1.300  -4.468  -2.834  0.00  0.00    +0.090 OA
ATOM     24  C   LIG    1        1.594  -3.212  -2.485  0.00  0.00    +0.200 A 
ATOM     25  N   LIG    1        0.661  -2.446  -2.996  0.00  0.00    -0.480 NA
BRANCH  21  27
ATOM     26  C   LIG    1       -2.631  -3.011  -3.508  0.00  0.00    +0.040 C 
ATOM     27  C   LIG    1       -1.407  -2.878  -4.416  0.00  0.00    +0.160 C 
ENDBRANCH  21  27
ENDBRANCH  20  24
ENDBRANCH   1  20
TORSDOF 3
