REMARK  Name = ZINCkj000005gTT3.0
REMARK                            x       y       z     vdW  Elec       q    Type
REMARK                         _______ _______ _______ _____ _____    ______ ____
ROOT
ATOM      1  C   LIG    1        2.557   1.375  -0.519  0.00  0.00    +0.580 C 
ATOM      2  N   LIG    1        2.725   0.043  -0.644  0.00  0.00    -0.750 N 
ATOM      3  H   LIG    1        1.964  -0.552  -0.552  0.00  0.00    +0.390 HD
ATOM      4  O   LIG    1        3.510   2.121  -0.635  0.00  0.00    -0.490 OA
ENDROOT
BRANCH   1  10
ATOM      5  C   LIG    1        1.037   3.293   0.010  0.00  0.00    +0.250 A 
ATOM      6  N   LIG    1       -0.181   3.745   0.253  0.00  0.00    -0.510 NA
ATOM      7  C   LIG    1       -1.218   2.931   0.260  0.00  0.00    +0.550 A 
ATOM      8  N   LIG    1       -1.096   1.639   0.022  0.00  0.00    -0.520 NA
ATOM      9  C   LIG    1        0.086   1.102  -0.225  0.00  0.00    +0.350 A 
ATOM     10  C   LIG    1        1.215   1.928  -0.242  0.00  0.00    -0.260 A 
BRANCH   5  12
ATOM     11  C   LIG    1        2.514   4.669  -1.431  0.00  0.00    +0.050 C 
ATOM     12  C   LIG    1        2.216   4.233   0.005  0.00  0.00    +0.110 C 
ENDBRANCH   5  12
ENDBRANCH   1  10
BRANCH   2  13
ATOM     13  C   LIG    1        4.055  -0.505  -0.919  0.00  0.00    +0.330 C 
BRANCH  13  14
ATOM     14  C   LIG    1        3.969  -2.030  -1.012  0.00  0.00    +0.040 C 
ATOM     15  C   LIG    1        5.355  -2.644  -1.301  0.00  0.00    +0.110 C 
ATOM     16  C   LIG    1        4.986  -3.855  -2.239  0.00  0.00    +0.080 C 
ATOM     17  C   LIG    1        3.807  -3.274  -3.058  0.00  0.00    +0.260 C 
ATOM     18  C   LIG    1        3.423  -2.633   0.298  0.00  0.00    +0.090 C 
ATOM     19  C   LIG    1        2.552  -3.818  -0.196  0.00  0.00    +0.080 C 
ATOM     20  C   LIG    1        1.960  -3.245  -1.508  0.00  0.00    +0.260 C 
ATOM     21  N   LIG    1        3.052  -2.442  -2.097  0.00  0.00    -0.390 N 
ATOM     22  H   LIG    1        2.676  -1.630  -2.562  0.00  0.00    +0.420 HD
ENDBRANCH  13  14
ENDBRANCH   2  13
TORSDOF 4
