REMARK  Name = ZINCqH0000001Ng8.0
REMARK                            x       y       z     vdW  Elec       q    Type
REMARK                         _______ _______ _______ _____ _____    ______ ____
ROOT
ATOM      1  C   LIG    1        0.003   5.589   0.039  0.00  0.00    -0.130 A 
ATOM      2  C   LIG    1        1.189   6.298  -0.157  0.00  0.00    +0.040 A 
ATOM      3  C   LIG    1        1.159   7.675  -0.249  0.00  0.00    +0.040 A 
ATOM      4  C   LIG    1       -0.043   8.352  -0.137  0.00  0.00    -0.090 A 
ATOM      5  C   LIG    1       -1.221   7.655   0.062  0.00  0.00    +0.040 A 
ATOM      6  C   LIG    1       -1.205   6.278   0.151  0.00  0.00    +0.080 A 
ENDROOT
BRANCH   1   9
ATOM      7  N   LIG    1        1.196   3.451   0.024  0.00  0.00    -0.670 N 
ATOM      8  H   LIG    1        2.029   3.943  -0.035  0.00  0.00    +0.410 HD
ATOM      9  C   LIG    1        0.028   4.114   0.133  0.00  0.00    +0.560 C 
ATOM     10  O   LIG    1       -1.006   3.499   0.308  0.00  0.00    -0.510 OA
BRANCH   7  16
ATOM     11  C   LIG    1        2.257   1.353   0.577  0.00  0.00    -0.100 A 
ATOM     12  C   LIG    1        2.264  -0.028   0.547  0.00  0.00    +0.030 A 
ATOM     13  C   LIG    1        1.228  -0.714  -0.059  0.00  0.00    -0.010 A 
ATOM     14  C   LIG    1        0.181  -0.020  -0.638  0.00  0.00    +0.030 A 
ATOM     15  C   LIG    1        0.167   1.361  -0.612  0.00  0.00    +0.010 A 
ATOM     16  C   LIG    1        1.207   2.053  -0.004  0.00  0.00    +0.150 A 
BRANCH  11  18
ATOM     17  C   LIG    1        3.392   1.793   2.737  0.00  0.00    +0.040 C 
ATOM     18  C   LIG    1        3.387   2.100   1.238  0.00  0.00    +0.020 C 
ATOM     19  C   LIG    1        4.717   1.661   0.623  0.00  0.00    +0.030 C 
ENDBRANCH  11  18
ENDBRANCH   7  16
ENDBRANCH   1   9
BRANCH   4  20
ATOM     20  C   LIG    1       -0.068   9.856  -0.233  0.00  0.00    +0.360 C 
BRANCH  20  21
ATOM     21  N   LIG    1        0.102  10.433   1.102  0.00  0.00    -0.570 N 
ATOM     22  C   LIG    1       -0.930  10.715   1.906  0.00  0.00    +0.530 C 
ATOM     23  C   LIG    1       -0.408  11.293   3.204  0.00  0.00    +0.080 C 
ATOM     24  C   LIG    1        1.122  11.305   3.004  0.00  0.00    +0.080 C 
ATOM     25  O   LIG    1       -2.099  10.534   1.639  0.00  0.00    -0.480 OA
ATOM     26  C   LIG    1        1.303  10.728   1.617  0.00  0.00    +0.530 C 
ATOM     27  O   LIG    1        2.366  10.559   1.060  0.00  0.00    -0.480 OA
ENDBRANCH  20  21
ENDBRANCH   4  20
TORSDOF 5
