REMARK  Name = ZINCpk00000FlSfY.0
REMARK                            x       y       z     vdW  Elec       q    Type
REMARK                         _______ _______ _______ _____ _____    ______ ____
ROOT
ATOM      1  C   LIG    1        3.031   3.783  -0.500  0.00  0.00    +0.120 C 
ENDROOT
BRANCH   1   7
ATOM      2  C   LIG    1        3.339   6.008  -6.766  0.00  0.00    +0.100 C 
ATOM      3  C   LIG    1        3.263   5.786  -5.277  0.00  0.00    -0.030 A 
ATOM      4  C   LIG    1        3.247   4.493  -4.775  0.00  0.00    +0.000 A 
ATOM      5  C   LIG    1        3.178   4.274  -3.417  0.00  0.00    +0.080 A 
ATOM      6  C   LIG    1        3.125   5.365  -2.544  0.00  0.00    -0.150 A 
ATOM      7  C   LIG    1        3.051   5.168  -1.093  0.00  0.00    +0.050 A 
ATOM      8  C   LIG    1        2.995   6.267  -0.299  0.00  0.00    -0.080 A 
ATOM      9  C   LIG    1        3.020   7.554  -0.880  0.00  0.00    +0.510 A 
ATOM     10  O   LIG    1        3.088   7.726  -2.209  0.00  0.00    -0.270 OA
ATOM     11  O   LIG    1        2.975   8.532  -0.156  0.00  0.00    -0.460 OA
ATOM     12  C   LIG    1        3.141   6.675  -3.055  0.00  0.00    +0.150 A 
ATOM     13  C   LIG    1        3.211   6.872  -4.427  0.00  0.00    +0.000 A 
ENDBRANCH   1   7
BRANCH   1  14
ATOM     14  C   LIG    1        1.617   3.261  -0.489  0.00  0.00    +0.520 C 
ATOM     15  N   LIG    1        1.356   2.033   0.000  0.00  0.00    -0.710 N 
ATOM     16  H   LIG    1        2.078   1.485   0.345  0.00  0.00    +0.400 HD
ATOM     17  O   LIG    1        0.715   3.947  -0.921  0.00  0.00    -0.530 OA
BRANCH  15  18
ATOM     18  C   LIG    1       -0.019   1.526   0.010  0.00  0.00    +0.240 C 
ATOM     19  C   LIG    1       -0.735   2.019   1.269  0.00  0.00    +0.030 C 
BRANCH  18  20
ATOM     20  C   LIG    1        0.002  -0.004   0.002  0.00  0.00    +0.180 C 
BRANCH  20  21
ATOM     21  N   LIG    1        0.792  -0.477  -1.143  0.00  0.00    -0.530 NA
ATOM     22  C   LIG    1        0.136  -0.136  -2.413  0.00  0.00    +0.140 C 
ATOM     23  C   LIG    1        1.019  -0.592  -3.577  0.00  0.00    +0.230 C 
ATOM     24  O   LIG    1        1.270  -1.995  -3.457  0.00  0.00    -0.380 OA
ATOM     25  C   LIG    1        1.909  -2.363  -2.231  0.00  0.00    +0.220 C 
ATOM     26  C   LIG    1        1.034  -1.924  -1.054  0.00  0.00    +0.150 C 
ENDBRANCH  20  21
ENDBRANCH  18  20
ENDBRANCH  15  18
ENDBRANCH   1  14
TORSDOF 5
