REMARK  Name = ZINCqH0000003NEy.0
REMARK                            x       y       z     vdW  Elec       q    Type
REMARK                         _______ _______ _______ _____ _____    ______ ____
ROOT
ATOM      1  N   LIG    1       -1.192   3.479   0.128  0.00  0.00    -0.730 N 
ATOM      2  H   LIG    1       -0.355   3.969   0.127  0.00  0.00    +0.400 HD
ATOM      3  C   LIG    1       -1.187   2.136   0.019  0.00  0.00    +0.710 C 
ATOM      4  N   LIG    1       -0.018   1.465   0.010  0.00  0.00    -0.630 N 
ATOM      5  C   LIG    1        0.002  -0.004   0.007  0.00  0.00    +0.330 C 
ATOM      6  C   LIG    1        0.855  -0.483  -1.172  0.00  0.00    -0.040 C 
ATOM      7  C   LIG    1        2.240   0.164  -1.090  0.00  0.00    +0.300 C 
ATOM      8  C   LIG    1        2.100   1.685  -1.183  0.00  0.00    -0.040 C 
ATOM      9  C   LIG    1        3.487   2.329  -1.135  0.00  0.00    +0.060 C 
ATOM     10  F   LIG    1        3.032  -0.296  -2.148  0.00  0.00    -0.200 F 
ATOM     11  F   LIG    1        2.843  -0.176   0.125  0.00  0.00    -0.190 F 
ATOM     12  C   LIG    1        0.999  -2.005  -1.113  0.00  0.00    +0.060 C 
ATOM     13  C   LIG    1        1.261   2.189  -0.004  0.00  0.00    +0.290 C 
ATOM     14  O   LIG    1       -2.237   1.529  -0.070  0.00  0.00    -0.580 OA
ENDROOT
BRANCH   1  15
ATOM     15  C   LIG    1       -2.462   4.199   0.249  0.00  0.00    +0.320 C 
BRANCH  15  19
ATOM     16  C   LIG    1       -1.968   8.203  -1.161  0.00  0.00    +0.140 A 
ATOM     17  C   LIG    1       -3.128   7.501  -1.456  0.00  0.00    -0.020 A 
ATOM     18  C   LIG    1       -3.285   6.207  -0.999  0.00  0.00    +0.060 A 
ATOM     19  C   LIG    1       -2.288   5.611  -0.249  0.00  0.00    -0.130 A 
ATOM     20  C   LIG    1       -1.134   6.311   0.051  0.00  0.00    +0.070 A 
ATOM     21  C   LIG    1       -0.969   7.604  -0.408  0.00  0.00    -0.080 A 
BRANCH  16  22
ATOM     22  O   LIG    1       -1.812   9.477  -1.609  0.00  0.00    -0.320 OA
BRANCH  22  24
ATOM     23  C   LIG    1       -0.598  11.552  -1.854  0.00  0.00    +0.070 C 
ATOM     24  C   LIG    1       -0.592  10.139  -1.267  0.00  0.00    +0.170 C 
ENDBRANCH  22  24
ENDBRANCH  16  22
ENDBRANCH  15  19
BRANCH  15  25
ATOM     25  C   LIG    1       -2.897   4.225   1.715  0.00  0.00    +0.170 C 
BRANCH  25  26
ATOM     26  O   LIG    1       -1.957   4.986   2.477  0.00  0.00    -0.380 OA
ATOM     27  C   LIG    1       -2.272   5.073   3.869  0.00  0.00    +0.200 C 
ENDBRANCH  25  26
ENDBRANCH  15  25
ENDBRANCH   1  15
TORSDOF 6
