REMARK  Name = ZINCrH000004rpjz.0
REMARK                            x       y       z     vdW  Elec       q    Type
REMARK                         _______ _______ _______ _____ _____    ______ ____
ROOT
ATOM      1  C   LIG    1       -0.050  -0.641  -0.564  0.00  0.00    +0.100 C 
ATOM      2  C   LIG    1        1.312   0.000  -0.494  0.00  0.00    +0.010 A 
ATOM      3  C   LIG    1        1.562   1.168  -1.191  0.00  0.00    +0.020 A 
ATOM      4  C   LIG    1        2.809   1.758  -1.129  0.00  0.00    +0.090 A 
ATOM      5  C   LIG    1        3.813   1.177  -0.365  0.00  0.00    +0.140 A 
ATOM      6  C   LIG    1        3.559   0.004   0.334  0.00  0.00    +0.100 A 
ATOM      7  C   LIG    1        2.310  -0.581   0.268  0.00  0.00    -0.660 A 
ENDROOT
BRANCH   5   8
ATOM      8  N   LIG    1        5.078   1.772  -0.300  0.00  0.00    -0.690 N 
ATOM      9  H   LIG    1        5.872   1.219  -0.243  0.00  0.00    +0.410 HD
ATOM     10  C   LIG    1        5.192   3.115  -0.315  0.00  0.00    +0.710 C 
ATOM     11  N   LIG    1        6.400   3.691  -0.153  0.00  0.00    -0.730 N 
ATOM     12  H   LIG    1        7.187   3.139  -0.025  0.00  0.00    +0.400 HD
ATOM     13  O   LIG    1        4.205   3.808  -0.475  0.00  0.00    -0.570 OA
BRANCH  11  14
ATOM     14  C   LIG    1        6.524   5.151  -0.170  0.00  0.00    +0.260 C 
ATOM     15  C   LIG    1        6.236   5.703   1.228  0.00  0.00    +0.010 C 
ATOM     16  C   LIG    1        6.366   7.227   1.210  0.00  0.00    +0.030 C 
ATOM     17  C   LIG    1        7.786   7.614   0.792  0.00  0.00    -0.070 C 
ATOM     18  C   LIG    1        8.073   7.061  -0.606  0.00  0.00    +0.040 C 
ATOM     19  C   LIG    1        7.915   9.138   0.774  0.00  0.00    +0.040 C 
ATOM     20  C   LIG    1        8.788   7.028   1.788  0.00  0.00    +0.010 C 
ATOM     21  C   LIG    1        7.944   5.537  -0.588  0.00  0.00    -0.020 C 
ATOM     22  C   LIG    1        8.232   4.984  -1.986  0.00  0.00    +0.020 C 
ENDBRANCH  11  14
ENDBRANCH   5   8
BRANCH   7  23
ATOM     23  S   LIG    1        1.986  -2.069   1.155  0.00  0.00    +2.700 S 
ATOM     24  O   LIG    1        0.794  -1.844   1.894  0.00  0.00    -0.950 OA
ATOM     25  O   LIG    1        3.215  -2.451   1.758  0.00  0.00    -0.950 OA
BRANCH  23  26
ATOM     26  N   LIG    1        1.630  -3.238   0.037  0.00  0.00    -1.090 NA
ATOM     27  H   LIG    1        0.742  -3.626   0.008  0.00  0.00    +0.420 HD
BRANCH  26  28
ATOM     28  C   LIG    1        2.657  -3.686  -0.906  0.00  0.00    +0.220 C 
ATOM     29  C   LIG    1        2.201  -4.079  -2.313  0.00  0.00    +0.010 C 
ATOM     30  C   LIG    1        2.640  -5.159  -1.322  0.00  0.00    +0.030 C 
ENDBRANCH  26  28
ENDBRANCH  23  26
ENDBRANCH   7  23
TORSDOF 5
