REMARK  Name = ZINCrH000004sfqG.0
REMARK                            x       y       z     vdW  Elec       q    Type
REMARK                         _______ _______ _______ _____ _____    ______ ____
ROOT
ATOM      1  N   LIG    1        3.001  -1.934   1.821  0.00  0.00    -0.730 N 
ATOM      2  H   LIG    1        2.139  -2.372   1.746  0.00  0.00    +0.400 HD
ATOM      3  C   LIG    1        3.103  -0.606   1.613  0.00  0.00    +0.710 C 
ATOM      4  N   LIG    1        1.994   0.131   1.407  0.00  0.00    -0.630 N 
ATOM      5  C   LIG    1        0.674  -0.508   1.292  0.00  0.00    +0.280 C 
ATOM      6  C   LIG    1       -0.004   0.002   0.016  0.00  0.00    +0.190 C 
ATOM      7  N   LIG    1       -0.023   1.471   0.029  0.00  0.00    -0.490 N 
ATOM      8  C   LIG    1        1.338   2.022   0.015  0.00  0.00    +0.180 C 
ATOM      9  C   LIG    1        2.071   1.595   1.292  0.00  0.00    +0.320 C 
ATOM     10  O   LIG    1        4.196  -0.074   1.611  0.00  0.00    -0.580 OA
ENDROOT
BRANCH   7  11
ATOM     11  C   LIG    1       -0.778   1.972  -1.039  0.00  0.00    +0.010 A 
ATOM     12  C   LIG    1       -0.412   1.682  -2.348  0.00  0.00    +0.100 A 
ATOM     13  C   LIG    1       -1.163   2.175  -3.400  0.00  0.00    -0.020 A 
ATOM     14  C   LIG    1       -2.270   2.965  -3.150  0.00  0.00    +0.090 A 
ATOM     15  C   LIG    1       -2.635   3.260  -1.849  0.00  0.00    -0.010 A 
ATOM     16  F   LIG    1        0.672   0.914  -2.592  0.00  0.00    -0.130 F 
ATOM     17  C   LIG    1       -1.892   2.767  -0.792  0.00  0.00    +0.160 A 
ATOM     18  F   LIG    1       -2.248   3.056   0.478  0.00  0.00    -0.120 F 
ENDBRANCH   7  11
BRANCH   1  19
ATOM     19  C   LIG    1        4.193  -2.716   2.160  0.00  0.00    +0.390 C 
BRANCH  19  24
ATOM     20  C   LIG    1        4.281  -7.837   0.348  0.00  0.00    +0.150 C 
ATOM     21  C   LIG    1        4.019  -6.473   0.932  0.00  0.00    -0.220 A 
ATOM     22  C   LIG    1        2.896  -6.081   1.542  0.00  0.00    +0.210 A 
ATOM     23  N   LIG    1        2.913  -4.835   1.971  0.00  0.00    -0.460 NA
ATOM     24  C   LIG    1        3.985  -4.151   1.750  0.00  0.00    +0.030 A 
ATOM     25  S   LIG    1        5.138  -5.112   0.931  0.00  0.00    +0.150 S 
ENDBRANCH  19  24
BRANCH  19  26
ATOM     26  C   LIG    1        4.435  -2.647   3.669  0.00  0.00    -0.060 C 
ATOM     27  C   LIG    1        3.348  -2.001   4.531  0.00  0.00    +0.020 C 
ATOM     28  C   LIG    1        4.668  -1.266   4.285  0.00  0.00    +0.040 C 
ENDBRANCH  19  26
ENDBRANCH   1  19
TORSDOF 4
