REMARK  Name = ZINCnE000005qHjV.0
REMARK                            x       y       z     vdW  Elec       q    Type
REMARK                         _______ _______ _______ _____ _____    ______ ____
ROOT
ATOM      1  N   LIG    1       -2.359   4.389   0.206  0.00  0.00    -0.750 N 
ATOM      2  H   LIG    1       -2.536   5.339   0.297  0.00  0.00    +0.400 HD
ENDROOT
BRANCH   1   3
ATOM      3  C   LIG    1       -1.043   3.921   0.220  0.00  0.00    +0.190 A 
ATOM      4  C   LIG    1       -0.787   2.562   0.085  0.00  0.00    -0.070 A 
ATOM      5  C   LIG    1        0.515   2.101   0.104  0.00  0.00    +0.050 A 
ATOM      6  C   LIG    1        1.563   2.992   0.246  0.00  0.00    -0.080 A 
ATOM      7  C   LIG    1        1.312   4.346   0.374  0.00  0.00    +0.040 A 
ATOM      8  C   LIG    1        0.012   4.813   0.362  0.00  0.00    -0.080 A 
BRANCH   6   9
ATOM      9  C   LIG    1        2.983   2.486   0.260  0.00  0.00    +0.010 C 
ATOM     10  C   LIG    1        4.085   3.485   0.619  0.00  0.00    +0.020 C 
ATOM     11  C   LIG    1        3.929   3.005  -0.825  0.00  0.00    -0.100 C 
BRANCH  11  12
ATOM     12  C   LIG    1        4.966   2.052  -1.358  0.00  0.00    +0.520 C 
ATOM     13  O   LIG    1        5.548   1.296  -0.598  0.00  0.00    -0.700 OA
ATOM     14  O   LIG    1        5.225   2.035  -2.549  0.00  0.00    -0.700 OA
ENDBRANCH  11  12
ENDBRANCH   6   9
ENDBRANCH   1   3
BRANCH   1  15
ATOM     15  C   LIG    1       -3.471   3.447   0.057  0.00  0.00    +0.340 C 
BRANCH  15  20
ATOM     16  N   LIG    1       -5.484   4.541   1.171  0.00  0.00    -0.350 N 
ATOM     17  N   LIG    1       -6.626   5.234   0.749  0.00  0.00    -0.290 NA
ATOM     18  C   LIG    1       -6.605   5.300  -0.557  0.00  0.00    +0.220 A 
ATOM     19  C   LIG    1       -5.447   4.657  -1.009  0.00  0.00    -0.100 A 
ATOM     20  C   LIG    1       -4.775   4.202   0.074  0.00  0.00    +0.070 A 
BRANCH  16  22
ATOM     21  C   LIG    1       -3.713   4.768   2.843  0.00  0.00    +0.050 C 
ATOM     22  C   LIG    1       -5.121   4.240   2.558  0.00  0.00    +0.180 C 
ATOM     23  C   LIG    1       -5.152   2.726   2.776  0.00  0.00    +0.040 C 
ATOM     24  C   LIG    1       -6.119   4.912   3.503  0.00  0.00    +0.070 C 
ENDBRANCH  16  22
ENDBRANCH  15  20
ENDBRANCH   1  15
TORSDOF 6
