REMARK  Name = ZINCvU0000000JCD.0
REMARK                            x       y       z     vdW  Elec       q    Type
REMARK                         _______ _______ _______ _____ _____    ______ ____
ROOT
ATOM      1  N   LIG    1        0.003   4.229  -0.077  0.00  0.00    -0.510 N 
ATOM      2  C   LIG    1        1.172   3.565   0.020  0.00  0.00    +0.540 C 
ATOM      3  O   LIG    1        2.215   4.182   0.119  0.00  0.00    -0.430 OA
ENDROOT
BRANCH   2   4
ATOM      4  C   LIG    1        1.186   2.087   0.005  0.00  0.00    -0.080 A 
ATOM      5  C   LIG    1        0.597   1.391  -1.052  0.00  0.00    +0.040 A 
ATOM      6  C   LIG    1        0.613   0.011  -1.059  0.00  0.00    +0.060 A 
ATOM      7  C   LIG    1        1.212  -0.682  -0.022  0.00  0.00    +0.060 A 
ATOM      8  C   LIG    1        1.797   0.003   1.029  0.00  0.00    +0.080 A 
ATOM      9  C   LIG    1        1.787   1.382   1.049  0.00  0.00    -0.140 A 
BRANCH   9  10
ATOM     10  C   LIG    1        2.425   2.125   2.194  0.00  0.00    +0.500 C 
ATOM     11  F   LIG    1        1.462   2.913   2.833  0.00  0.00    -0.180 F 
ATOM     12  F   LIG    1        3.449   2.944   1.706  0.00  0.00    -0.150 F 
ATOM     13  F   LIG    1        2.957   1.208   3.107  0.00  0.00    -0.170 F 
ENDBRANCH   9  10
ENDBRANCH   2   4
BRANCH   1  14
ATOM     14  C   LIG    1       -0.003   5.613  -0.184  0.00  0.00    +0.310 A 
ATOM     15  N   LIG    1        1.052   6.368  -0.196  0.00  0.00    -0.470 NA
ATOM     16  C   LIG    1        0.855   7.674  -0.310  0.00  0.00    +0.110 A 
ATOM     17  C   LIG    1       -0.431   8.059  -0.389  0.00  0.00    -0.080 A 
ATOM     18  S   LIG    1       -1.443   6.618  -0.317  0.00  0.00    +0.160 S 
BRANCH  16  19
ATOM     19  C   LIG    1        1.977   8.645  -0.342  0.00  0.00    +0.040 A 
ATOM     20  C   LIG    1        1.718  10.009  -0.463  0.00  0.00    +0.040 A 
ATOM     21  C   LIG    1        2.765  10.908  -0.487  0.00  0.00    +0.110 A 
ATOM     22  C   LIG    1        4.070  10.456  -0.402  0.00  0.00    -0.040 A 
ATOM     23  C   LIG    1        4.333   9.103  -0.287  0.00  0.00    +0.110 A 
ATOM     24  C   LIG    1        3.293   8.195  -0.257  0.00  0.00    +0.080 A 
BRANCH  22  25
ATOM     25  N   LIG    1        5.189  11.424  -0.435  0.00  0.00    +0.030 N 
ATOM     26  O   LIG    1        4.960  12.616  -0.536  0.00  0.00    -0.160 OA
ATOM     27  O   LIG    1        6.339  11.029  -0.360  0.00  0.00    -0.160 OA
ENDBRANCH  22  25
ENDBRANCH  16  19
ENDBRANCH   1  14
BRANCH   1  28
ATOM     28  C   LIG    1       -1.262   3.490  -0.069  0.00  0.00    +0.310 C 
BRANCH  28  29
ATOM     29  C   LIG    1       -1.815   3.441   1.357  0.00  0.00    +0.170 C 
BRANCH  29  31
ATOM     30  C   LIG    1       -2.676   4.830   3.110  0.00  0.00    +0.210 C 
ATOM     31  O   LIG    1       -2.148   4.764   1.784  0.00  0.00    -0.380 OA
ENDBRANCH  29  31
ENDBRANCH  28  29
ENDBRANCH   1  28
TORSDOF 8
