REMARK  Name = ZINCue00000003aR.1
REMARK                            x       y       z     vdW  Elec       q    Type
REMARK                         _______ _______ _______ _____ _____    ______ ____
ROOT
ATOM      1  C   LIG    1        2.675  -6.905  -0.603  0.00  0.00    +0.040 C 
ENDROOT
BRANCH   1   8
ATOM      2  C   LIG    1        3.887 -10.441   0.257  0.00  0.00    +0.220 C 
ATOM      3  C   LIG    1        4.950 -11.116  -0.615  0.00  0.00    +0.000 C 
ATOM      4  C   LIG    1        6.292 -10.406  -0.417  0.00  0.00    +0.010 C 
ATOM      5  C   LIG    1        6.166  -8.944  -0.854  0.00  0.00    +0.010 C 
ATOM      6  C   LIG    1        5.118  -8.246   0.010  0.00  0.00    +0.270 C 
ATOM      7  N   LIG    1        3.861  -9.005  -0.055  0.00  0.00    -0.610 N 
ATOM      8  C   LIG    1        2.709  -8.398  -0.399  0.00  0.00    +0.520 C 
ATOM      9  O   LIG    1        1.698  -9.052  -0.544  0.00  0.00    -0.510 OA
BRANCH   2  10
ATOM     10  C   LIG    1        2.517 -11.054  -0.038  0.00  0.00    +0.090 C 
BRANCH  10  11
ATOM     11  C   LIG    1        2.537 -12.543   0.315  0.00  0.00    +0.030 C 
BRANCH  11  15
ATOM     12  C   LIG    1       -0.411 -14.983   0.236  0.00  0.00    +0.280 C 
ATOM     13  N   LIG    1        0.932 -14.423   0.402  0.00  0.00    -0.740 N 
ATOM     14  H   LIG    1        1.662 -14.991   0.696  0.00  0.00    +0.400 HD
ATOM     15  C   LIG    1        1.155 -13.119   0.145  0.00  0.00    +0.510 C 
ATOM     16  O   LIG    1        0.243 -12.408  -0.223  0.00  0.00    -0.520 OA
ENDBRANCH  11  15
ENDBRANCH  10  11
ENDBRANCH   2  10
ENDBRANCH   1   8
BRANCH   1  17
ATOM     17  C   LIG    1        1.258  -6.474  -0.985  0.00  0.00    +0.300 C 
BRANCH  17  18
ATOM     18  N   LIG    1        1.226  -5.023  -1.183  0.00  0.00    -0.730 N 
ATOM     19  H   LIG    1        2.034  -4.499  -1.067  0.00  0.00    +0.400 HD
ATOM     20  C   LIG    1        0.073  -4.415  -1.528  0.00  0.00    +0.570 C 
ATOM     21  O   LIG    1       -0.940  -5.071  -1.673  0.00  0.00    -0.540 OA
BRANCH  20  22
ATOM     22  C   LIG    1        0.040  -2.951  -1.728  0.00  0.00    -0.160 A 
ATOM     23  C   LIG    1       -1.154  -2.321  -2.084  0.00  0.00    +0.070 A 
ATOM     24  C   LIG    1       -1.184  -0.957  -2.270  0.00  0.00    +0.030 A 
ATOM     25  C   LIG    1       -0.021  -0.204  -2.103  0.00  0.00    +0.080 A 
ATOM     26  C   LIG    1        1.174  -0.834  -1.752  0.00  0.00    +0.010 A 
ATOM     27  C   LIG    1        1.204  -2.197  -1.560  0.00  0.00    +0.030 A 
BRANCH  25  28
ATOM     28  C   LIG    1       -0.053   1.262  -2.304  0.00  0.00    +0.070 A 
ATOM     29  N   LIG    1       -1.111   1.997  -2.650  0.00  0.00    -0.360 NA
ATOM     30  N   LIG    1       -0.725   3.225  -2.717  0.00  0.00    -0.190 NA
ATOM     31  N   LIG    1        0.530   3.291  -2.438  0.00  0.00    -0.190 NA
ATOM     32  N   LIG    1        0.971   2.107  -2.180  0.00  0.00    -0.360 NA
ENDBRANCH  25  28
ENDBRANCH  20  22
ENDBRANCH  17  18
ENDBRANCH   1  17
TORSDOF 8
