REMARK  Name = ZINCue00000003aR.0
REMARK                            x       y       z     vdW  Elec       q    Type
REMARK                         _______ _______ _______ _____ _____    ______ ____
ROOT
ATOM      1  C   LIG    1        2.675  -6.904  -0.602  0.00  0.00    +0.040 C 
ENDROOT
BRANCH   1   8
ATOM      2  C   LIG    1        3.887 -10.439   0.259  0.00  0.00    +0.220 C 
ATOM      3  C   LIG    1        4.950 -11.115  -0.612  0.00  0.00    +0.000 C 
ATOM      4  C   LIG    1        6.292 -10.405  -0.416  0.00  0.00    +0.010 C 
ATOM      5  C   LIG    1        6.166  -8.943  -0.852  0.00  0.00    +0.010 C 
ATOM      6  C   LIG    1        5.118  -8.244   0.011  0.00  0.00    +0.270 C 
ATOM      7  N   LIG    1        3.861  -9.004  -0.053  0.00  0.00    -0.610 N 
ATOM      8  C   LIG    1        2.709  -8.396  -0.397  0.00  0.00    +0.520 C 
ATOM      9  O   LIG    1        1.698  -9.051  -0.542  0.00  0.00    -0.510 OA
BRANCH   2  10
ATOM     10  C   LIG    1        2.517 -11.053  -0.035  0.00  0.00    +0.090 C 
BRANCH  10  11
ATOM     11  C   LIG    1        2.538 -12.541   0.318  0.00  0.00    +0.030 C 
BRANCH  11  15
ATOM     12  C   LIG    1       -0.411 -14.981   0.241  0.00  0.00    +0.280 C 
ATOM     13  N   LIG    1        0.932 -14.421   0.406  0.00  0.00    -0.740 N 
ATOM     14  H   LIG    1        1.662 -14.989   0.700  0.00  0.00    +0.400 HD
ATOM     15  C   LIG    1        1.155 -13.117   0.149  0.00  0.00    +0.510 C 
ATOM     16  O   LIG    1        0.243 -12.407  -0.219  0.00  0.00    -0.520 OA
ENDBRANCH  11  15
ENDBRANCH  10  11
ENDBRANCH   2  10
ENDBRANCH   1   8
BRANCH   1  17
ATOM     17  C   LIG    1        1.258  -6.473  -0.983  0.00  0.00    +0.300 C 
BRANCH  17  18
ATOM     18  N   LIG    1        1.226  -5.022  -1.182  0.00  0.00    -0.730 N 
ATOM     19  H   LIG    1        2.034  -4.498  -1.066  0.00  0.00    +0.400 HD
ATOM     20  C   LIG    1        0.073  -4.414  -1.526  0.00  0.00    +0.570 C 
ATOM     21  O   LIG    1       -0.940  -5.070  -1.672  0.00  0.00    -0.540 OA
BRANCH  20  22
ATOM     22  C   LIG    1        0.040  -2.951  -1.727  0.00  0.00    -0.160 A 
ATOM     23  C   LIG    1       -1.155  -2.321  -2.084  0.00  0.00    +0.070 A 
ATOM     24  C   LIG    1       -1.184  -0.957  -2.270  0.00  0.00    +0.030 A 
ATOM     25  C   LIG    1       -0.021  -0.205  -2.103  0.00  0.00    +0.080 A 
ATOM     26  C   LIG    1        1.173  -0.833  -1.752  0.00  0.00    +0.020 A 
ATOM     27  C   LIG    1        1.204  -2.196  -1.560  0.00  0.00    +0.030 A 
BRANCH  25  28
ATOM     28  C   LIG    1       -0.054   1.265  -2.304  0.00  0.00    +0.070 A 
ATOM     29  N   LIG    1       -1.109   1.996  -2.649  0.00  0.00    -0.360 NA
ATOM     30  N   LIG    1       -0.726   3.224  -2.717  0.00  0.00    -0.190 NA
ATOM     31  N   LIG    1        0.529   3.291  -2.438  0.00  0.00    -0.190 NA
ATOM     32  N   LIG    1        0.968   2.106  -2.181  0.00  0.00    -0.370 NA
ENDBRANCH  25  28
ENDBRANCH  20  22
ENDBRANCH  17  18
ENDBRANCH   1  17
TORSDOF 8
