REMARK  Name = ZINCpk00000eaNz0.0
REMARK                            x       y       z     vdW  Elec       q    Type
REMARK                         _______ _______ _______ _____ _____    ______ ____
ROOT
ATOM      1  O   LIG    1       -2.254   0.769  -0.725  0.00  0.00    -0.330 OA
ENDROOT
BRANCH   1   3
ATOM      2  C   LIG    1       -0.832   2.434   0.340  0.00  0.00    +0.070 C 
ATOM      3  C   LIG    1       -1.085   1.607  -0.923  0.00  0.00    +0.200 C 
BRANCH   3   4
ATOM      4  C   LIG    1        0.114   0.740  -1.204  0.00  0.00    +0.520 C 
ATOM      5  N   LIG    1        1.294   1.305  -1.526  0.00  0.00    -0.690 N 
ATOM      6  H   LIG    1        1.373   2.271  -1.573  0.00  0.00    +0.410 HD
ATOM      7  C   LIG    1        2.365   0.529  -1.783  0.00  0.00    +0.700 C 
ATOM      8  N   LIG    1        3.546   1.095  -2.105  0.00  0.00    -0.710 N 
ATOM      9  H   LIG    1        3.624   2.061  -2.152  0.00  0.00    +0.400 HD
ATOM     10  O   LIG    1        2.267  -0.681  -1.725  0.00  0.00    -0.520 OA
ATOM     11  O   LIG    1        0.016  -0.467  -1.146  0.00  0.00    -0.440 OA
BRANCH   8  12
ATOM     12  C   LIG    1        4.710   0.251  -2.385  0.00  0.00    +0.230 C 
ATOM     13  C   LIG    1        6.049   0.670  -1.774  0.00  0.00    +0.020 C 
ATOM     14  C   LIG    1        5.808   0.835  -3.277  0.00  0.00    +0.020 C 
ENDBRANCH   8  12
ENDBRANCH   3   4
ENDBRANCH   1   3
BRANCH   1  15
ATOM     15  C   LIG    1       -3.442   1.288  -1.072  0.00  0.00    +0.470 C 
ATOM     16  O   LIG    1       -3.504   2.406  -1.526  0.00  0.00    -0.480 OA
BRANCH  15  17
ATOM     17  C   LIG    1       -4.700   0.475  -0.896  0.00  0.00    +0.220 C 
ATOM     18  C   LIG    1       -4.935   0.217   0.593  0.00  0.00    +0.040 C 
BRANCH  17  19
ATOM     19  N   LIG    1       -5.841   1.214  -1.452  0.00  0.00    -0.520 NA
ATOM     20  C   LIG    1       -7.005   0.334  -1.623  0.00  0.00    +0.200 C 
BRANCH  19  21
ATOM     21  C   LIG    1       -6.177   2.373  -0.614  0.00  0.00    +0.230 C 
BRANCH  21  22
ATOM     22  C   LIG    1       -7.179   3.239  -1.332  0.00  0.00    -0.080 A 
ATOM     23  C   LIG    1       -6.745   4.260  -2.156  0.00  0.00    +0.040 A 
ATOM     24  C   LIG    1       -7.665   5.052  -2.819  0.00  0.00    +0.000 A 
ATOM     25  C   LIG    1       -9.018   4.829  -2.649  0.00  0.00    +0.000 A 
ATOM     26  C   LIG    1       -9.453   3.811  -1.821  0.00  0.00    +0.000 A 
ATOM     27  C   LIG    1       -8.533   3.016  -1.162  0.00  0.00    +0.000 A 
ENDBRANCH  21  22
ENDBRANCH  19  21
ENDBRANCH  17  19
ENDBRANCH  15  17
ENDBRANCH   1  15
TORSDOF 8
