REMARK  Name = ZINCpk00000kKIq2.0
REMARK                            x       y       z     vdW  Elec       q    Type
REMARK                         _______ _______ _______ _____ _____    ______ ____
ROOT
ATOM      1  C   LIG    1        1.931   4.219   0.006  0.00  0.00    +0.600 C 
ATOM      2  N   LIG    1        1.576   5.516  -0.085  0.00  0.00    -0.610 N 
ATOM      3  C   LIG    1        0.160   5.916  -0.072  0.00  0.00    +0.250 C 
ATOM      4  C   LIG    1       -0.020   7.022   0.974  0.00  0.00    +0.220 C 
ATOM      5  O   LIG    1        0.931   8.061   0.728  0.00  0.00    -0.360 OA
ATOM      6  C   LIG    1        2.294   7.648   0.851  0.00  0.00    +0.090 C 
ATOM      7  C   LIG    1        2.530   7.074   2.249  0.00  0.00    +0.040 C 
ATOM      8  C   LIG    1        2.592   6.574  -0.196  0.00  0.00    +0.280 C 
ATOM      9  O   LIG    1        3.106   3.915   0.099  0.00  0.00    -0.520 OA
ENDROOT
BRANCH   1  12
ATOM     10  C   LIG    1        2.081   1.646   1.629  0.00  0.00    +0.120 C 
ATOM     11  C   LIG    1        0.945   2.011   0.710  0.00  0.00    -0.020 A 
ATOM     12  C   LIG    1        0.903   3.174  -0.007  0.00  0.00    -0.280 A 
ATOM     13  S   LIG    1       -0.582   3.216  -0.948  0.00  0.00    +0.210 S 
ATOM     14  C   LIG    1       -1.062   1.693  -0.347  0.00  0.00    -0.060 A 
ATOM     15  C   LIG    1       -0.154   1.209   0.509  0.00  0.00    +0.000 A 
ENDBRANCH   1  12
BRANCH   6  16
ATOM     16  C   LIG    1        3.214   8.850   0.629  0.00  0.00    +0.310 C 
BRANCH  16  17
ATOM     17  N   LIG    1        3.008   9.827   1.700  0.00  0.00    -0.730 N 
ATOM     18  H   LIG    1        2.362   9.649   2.402  0.00  0.00    +0.400 HD
ATOM     19  C   LIG    1        3.716  10.974   1.712  0.00  0.00    +0.520 C 
ATOM     20  O   LIG    1        4.524  11.197   0.835  0.00  0.00    -0.520 OA
BRANCH  19  21
ATOM     21  C   LIG    1        3.504  11.979   2.814  0.00  0.00    +0.170 C 
BRANCH  21  22
ATOM     22  N   LIG    1        4.388  13.133   2.601  0.00  0.00    -0.450 NA
ATOM     23  C   LIG    1        3.712  14.177   1.808  0.00  0.00    +0.160 C 
ATOM     24  C   LIG    1        4.336  15.217   2.748  0.00  0.00    +0.040 C 
ATOM     25  C   LIG    1        4.340  14.055   3.751  0.00  0.00    +0.100 C 
ATOM     26  C   LIG    1        5.596  14.007   4.624  0.00  0.00    +0.050 C 
ENDBRANCH  21  22
ENDBRANCH  19  21
ENDBRANCH  16  17
ENDBRANCH   6  16
TORSDOF 5
