REMARK  Name = ZINCpe00000c5SAs.0
REMARK                            x       y       z     vdW  Elec       q    Type
REMARK                         _______ _______ _______ _____ _____    ______ ____
ROOT
ATOM      1  N   LIG    1        3.456   0.653  -0.027  0.00  0.00    -0.640 N 
ATOM      2  H   LIG    1        3.955   1.485  -0.028  0.00  0.00    +0.420 HD
ATOM      3  C   LIG    1        4.111  -0.525  -0.040  0.00  0.00    +0.540 C 
ATOM      4  O   LIG    1        3.487  -1.565  -0.039  0.00  0.00    -0.440 OA
ENDROOT
BRANCH   1  14
ATOM      5  C   LIG    1        1.798   3.187   0.002  0.00  0.00    +0.320 C 
ATOM      6  N   LIG    1        1.308   1.806  -0.001  0.00  0.00    -0.500 N 
ATOM      7  C   LIG    1       -0.017   1.403   0.010  0.00  0.00    +0.040 A 
ATOM      8  C   LIG    1       -1.223   2.079   0.030  0.00  0.00    +0.080 A 
ATOM      9  C   LIG    1       -2.417   1.356   0.033  0.00  0.00    -0.020 A 
ATOM     10  C   LIG    1       -2.391  -0.045   0.025  0.00  0.00    +0.060 A 
ATOM     11  C   LIG    1       -1.204  -0.714   0.010  0.00  0.00    +0.080 A 
ATOM     12  C   LIG    1        0.002  -0.004   0.002  0.00  0.00    +0.100 A 
ATOM     13  N   LIG    1        1.304  -0.384  -0.012  0.00  0.00    -0.470 NA
ATOM     14  C   LIG    1        2.073   0.676  -0.014  0.00  0.00    +0.510 A 
BRANCH   9  15
ATOM     15  C   LIG    1       -3.671   2.047   0.049  0.00  0.00    +0.260 C 
ATOM     16  N   LIG    1       -4.666   2.596   0.061  0.00  0.00    -0.410 NA
ENDBRANCH   9  15
ENDBRANCH   1  14
BRANCH   3  17
ATOM     17  C   LIG    1        5.617  -0.549  -0.054  0.00  0.00    -0.080 C 
ATOM     18  C   LIG    1        6.193   0.089   1.198  0.00  0.00    +0.050 C 
ATOM     19  C   LIG    1        7.704   0.074   1.445  0.00  0.00    +0.000 C 
ATOM     20  C   LIG    1        8.330  -1.336   1.170  0.00  0.00    +0.350 C 
ATOM     21  N   LIG    1        7.581  -1.581  -0.041  0.00  0.00    -0.980 NA
ATOM     22  S   LIG    1        7.764  -0.899  -1.545  0.00  0.00    +2.580 S 
ATOM     23  O   LIG    1        7.656  -1.960  -2.483  0.00  0.00    -0.930 OA
ATOM     24  O   LIG    1        8.908  -0.060  -1.469  0.00  0.00    -0.940 OA
ATOM     25  C   LIG    1        6.184   0.053  -1.377  0.00  0.00    -0.320 C 
ATOM     26  C   LIG    1        6.174  -2.028  -0.067  0.00  0.00    +0.340 C 
ENDBRANCH   3  17
TORSDOF 3
