REMARK  Name = ZINCtV00000L6l6e.0
REMARK                            x       y       z     vdW  Elec       q    Type
REMARK                         _______ _______ _______ _____ _____    ______ ____
ROOT
ATOM      1  P   LIG    1        2.420  -4.591  -0.022  0.00  0.00    +2.650 P 
ATOM      2  C   LIG    1        2.443  -2.763  -0.036  0.00  0.00    -0.720 C 
ATOM      3  C   LIG    1        1.248  -2.162  -0.021  0.00  0.00    +0.230 C 
ATOM      4  O   LIG    1        0.078  -2.805  -0.007  0.00  0.00    -0.270 OA
ATOM      5  C   LIG    1       -0.199  -4.062   0.341  0.00  0.00    +0.230 C 
ATOM      6  O   LIG    1        3.355  -5.108   1.002  0.00  0.00    -1.010 OA
ATOM      7  C   LIG    1        0.702  -5.049   0.400  0.00  0.00    -0.720 C 
ENDROOT
BRANCH   5   8
ATOM      8  C   LIG    1       -1.600  -4.386   0.693  0.00  0.00    -0.080 A 
ATOM      9  C   LIG    1       -1.947  -5.685   1.065  0.00  0.00    +0.050 A 
ATOM     10  C   LIG    1       -3.253  -5.979   1.396  0.00  0.00    +0.020 A 
ATOM     11  C   LIG    1       -4.221  -4.992   1.350  0.00  0.00    +0.040 A 
ATOM     12  C   LIG    1       -3.885  -3.703   0.977  0.00  0.00    +0.010 A 
ATOM     13  C   LIG    1       -2.580  -3.394   0.649  0.00  0.00    +0.040 A 
ENDBRANCH   5   8
BRANCH   3  14
ATOM     14  C   LIG    1        1.221  -0.682  -0.013  0.00  0.00    -0.080 A 
ATOM     15  C   LIG    1        0.002  -0.004   0.002  0.00  0.00    +0.050 A 
ATOM     16  C   LIG    1       -0.017   1.376   0.010  0.00  0.00    +0.010 A 
ATOM     17  C   LIG    1        1.170   2.086   0.002  0.00  0.00    +0.040 A 
ATOM     18  C   LIG    1        2.382   1.420  -0.013  0.00  0.00    +0.020 A 
ATOM     19  C   LIG    1        2.414   0.040  -0.021  0.00  0.00    +0.050 A 
ENDBRANCH   3  14
BRANCH   1  20
ATOM     20  N   LIG    1        2.816  -5.175  -1.503  0.00  0.00    -1.100 N 
ATOM     21  H   LIG    1        3.019  -4.562  -2.227  0.00  0.00    +0.420 HD
BRANCH  20  26
ATOM     22  C   LIG    1        3.239  -8.414  -3.186  0.00  0.00    -0.010 A 
ATOM     23  C   LIG    1        2.950  -9.286  -2.152  0.00  0.00    +0.070 A 
ATOM     24  C   LIG    1        2.616  -8.795  -0.903  0.00  0.00    +0.090 A 
ATOM     25  C   LIG    1        2.575  -7.432  -0.683  0.00  0.00    +0.010 A 
ATOM     26  C   LIG    1        2.861  -6.554  -1.721  0.00  0.00    +0.200 A 
ATOM     27  C   LIG    1        3.196  -7.050  -2.974  0.00  0.00    +0.050 A 
BRANCH  22  29
ATOM     28  O   LIG    1        3.852  -8.177  -5.432  0.00  0.00    -0.160 OA
ATOM     29  N   LIG    1        3.597  -8.944  -4.521  0.00  0.00    +0.030 N 
ATOM     30  O   LIG    1        3.635 -10.147  -4.708  0.00  0.00    -0.150 OA
ENDBRANCH  22  29
ENDBRANCH  20  26
ENDBRANCH   1  20
TORSDOF 5
