REMARK  Name = ZINCpe000000UVz2.0
REMARK                            x       y       z     vdW  Elec       q    Type
REMARK                         _______ _______ _______ _____ _____    ______ ____
ROOT
ATOM      1  C   LIG    1        0.001  -0.006  -0.003  0.00  0.00    +0.240 C 
ATOM      2  C   LIG    1       -0.020   1.531   0.006  0.00  0.00    +0.140 C 
ATOM      3  C   LIG    1        1.438   1.932   0.000  0.00  0.00    -0.130 A 
ATOM      4  C   LIG    1        2.035   3.177   0.005  0.00  0.00    +0.060 A 
ATOM      5  C   LIG    1        3.413   3.287  -0.002  0.00  0.00    +0.000 A 
ATOM      6  C   LIG    1        4.194   2.145  -0.014  0.00  0.00    +0.050 A 
ATOM      7  C   LIG    1        3.602   0.900  -0.019  0.00  0.00    -0.030 A 
ATOM      8  C   LIG    1        2.211   0.781  -0.012  0.00  0.00    +0.150 A 
ATOM      9  N   LIG    1        1.420  -0.370  -0.014  0.00  0.00    -0.520 N 
ATOM     10  C   LIG    1        1.894  -1.632  -0.026  0.00  0.00    +0.630 C 
ATOM     11  O   LIG    1        1.127  -2.570   0.068  0.00  0.00    -0.480 OA
ENDROOT
BRANCH  10  12
ATOM     12  C   LIG    1        3.353  -1.877  -0.153  0.00  0.00    +0.380 A 
ATOM     13  N   LIG    1        3.897  -1.917  -1.360  0.00  0.00    -0.560 NA
ATOM     14  C   LIG    1        5.199  -2.128  -1.512  0.00  0.00    +0.390 A 
ATOM     15  C   LIG    1        5.991  -2.319  -0.383  0.00  0.00    -0.080 A 
ATOM     16  C   LIG    1        5.382  -2.275   0.868  0.00  0.00    +0.390 A 
ATOM     17  N   LIG    1        4.075  -2.054   0.943  0.00  0.00    -0.570 NA
BRANCH  16  18
ATOM     18  O   LIG    1        6.114  -2.454   1.995  0.00  0.00    -0.290 OA
ATOM     19  C   LIG    1        5.414  -2.394   3.240  0.00  0.00    +0.280 C 
ENDBRANCH  16  18
BRANCH  14  20
ATOM     20  O   LIG    1        5.749  -2.163  -2.750  0.00  0.00    -0.290 OA
ATOM     21  C   LIG    1        4.892  -1.849  -3.850  0.00  0.00    +0.280 C 
ENDBRANCH  14  20
ENDBRANCH  10  12
BRANCH   1  25
ATOM     22  C   LIG    1       -2.693  -1.103  -2.492  0.00  0.00    +0.290 C 
ATOM     23  N   LIG    1       -2.028  -0.593  -1.291  0.00  0.00    -0.730 N 
ATOM     24  H   LIG    1       -2.556  -0.300  -0.531  0.00  0.00    +0.400 HD
ATOM     25  C   LIG    1       -0.683  -0.531  -1.240  0.00  0.00    +0.510 C 
ATOM     26  O   LIG    1       -0.022  -0.897  -2.189  0.00  0.00    -0.510 OA
ENDBRANCH   1  25
TORSDOF 4
