REMARK  Name = ZINCqH0000050ZQO.0
REMARK                            x       y       z     vdW  Elec       q    Type
REMARK                         _______ _______ _______ _____ _____    ______ ____
ROOT
ATOM      1  C   LIG    1       -2.545   0.987   5.559  0.00  0.00    -0.140 A 
ATOM      2  C   LIG    1       -1.759   1.316   6.645  0.00  0.00    +0.070 A 
ATOM      3  C   LIG    1       -2.303   2.015   7.707  0.00  0.00    -0.030 A 
ATOM      4  C   LIG    1       -3.634   2.386   7.685  0.00  0.00    +0.060 A 
ATOM      5  C   LIG    1       -4.425   2.059   6.600  0.00  0.00    -0.080 A 
ATOM      6  C   LIG    1       -3.881   1.363   5.531  0.00  0.00    +0.150 A 
ENDROOT
BRANCH   1   7
ATOM      7  C   LIG    1       -1.952   0.226   4.401  0.00  0.00    +0.340 C 
BRANCH   7  14
ATOM      8  C   LIG    1       -0.897   3.114  -1.147  0.00  0.00    +0.130 C 
ATOM      9  C   LIG    1       -0.754   1.593  -1.229  0.00  0.00    +0.040 C 
ATOM     10  C   LIG    1       -0.009   1.086   0.010  0.00  0.00    +0.300 C 
ATOM     11  N   LIG    1       -0.706   1.562   1.212  0.00  0.00    -0.630 N 
ATOM     12  C   LIG    1       -0.980   3.000   1.347  0.00  0.00    +0.280 C 
ATOM     13  C   LIG    1       -1.091   0.697   2.171  0.00  0.00    +0.710 C 
ATOM     14  N   LIG    1       -1.635   1.156   3.315  0.00  0.00    -0.740 N 
ATOM     15  H   LIG    1       -1.816   2.103   3.420  0.00  0.00    +0.390 HD
ATOM     16  O   LIG    1       -0.947  -0.499   2.004  0.00  0.00    -0.590 OA
ATOM     17  C   LIG    1       -1.714   3.485   0.093  0.00  0.00    +0.040 C 
BRANCH   8  19
ATOM     18  N   LIG    1       -2.114   3.989  -3.281  0.00  0.00    -0.430 NA
ATOM     19  C   LIG    1       -1.584   3.608  -2.351  0.00  0.00    +0.210 C 
ENDBRANCH   8  19
ENDBRANCH   7  14
ENDBRANCH   1   7
BRANCH   6  20
ATOM     20  O   LIG    1       -4.655   1.046   4.460  0.00  0.00    -0.300 OA
BRANCH  20  21
ATOM     21  C   LIG    1       -6.020   1.466   4.500  0.00  0.00    +0.240 C 
BRANCH  21  22
ATOM     22  C   LIG    1       -6.717   1.028   3.237  0.00  0.00    -0.100 A 
ATOM     23  C   LIG    1       -6.740   1.863   2.135  0.00  0.00    +0.030 A 
ATOM     24  C   LIG    1       -7.375   1.459   0.976  0.00  0.00    +0.000 A 
ATOM     25  C   LIG    1       -7.997   0.226   0.921  0.00  0.00    +0.010 A 
ATOM     26  C   LIG    1       -7.979  -0.606   2.025  0.00  0.00    +0.010 A 
ATOM     27  C   LIG    1       -7.339  -0.205   3.183  0.00  0.00    +0.030 A 
ENDBRANCH  21  22
ENDBRANCH  20  21
ENDBRANCH   6  20
TORSDOF 6
