REMARK  Name = ZINCvU0000000HoO.0
REMARK                            x       y       z     vdW  Elec       q    Type
REMARK                         _______ _______ _______ _____ _____    ______ ____
ROOT
ATOM      1  N   LIG    1       -0.948   1.808  -1.304  0.00  0.00    -0.380 N 
ATOM      2  N   LIG    1       -1.593   0.656  -1.770  0.00  0.00    -0.230 NA
ATOM      3  C   LIG    1       -0.933  -0.402  -1.390  0.00  0.00    +0.290 A 
ATOM      4  C   LIG    1        0.195   0.013  -0.651  0.00  0.00    -0.190 A 
ATOM      5  C   LIG    1        1.248  -0.677  -0.005  0.00  0.00    +0.010 A 
ATOM      6  C   LIG    1        2.217   0.075   0.646  0.00  0.00    -0.030 A 
ATOM      7  C   LIG    1        2.118   1.473   0.640  0.00  0.00    +0.270 A 
ATOM      8  N   LIG    1        1.120   2.091   0.025  0.00  0.00    -0.480 NA
ATOM      9  C   LIG    1        0.170   1.422  -0.611  0.00  0.00    +0.320 A 
ENDROOT
BRANCH   5  10
ATOM     10  C   LIG    1        1.314  -2.154  -0.022  0.00  0.00    +0.570 C 
ATOM     11  N   LIG    1        2.505  -2.774  -0.138  0.00  0.00    -0.610 N 
ATOM     12  C   LIG    1        3.821  -2.109  -0.159  0.00  0.00    +0.240 C 
ATOM     13  C   LIG    1        4.753  -3.097  -0.904  0.00  0.00    +0.040 C 
ATOM     14  C   LIG    1        4.227  -4.465  -0.395  0.00  0.00    +0.050 C 
ATOM     15  C   LIG    1        2.708  -4.225  -0.258  0.00  0.00    +0.270 C 
ATOM     16  O   LIG    1        0.294  -2.809   0.068  0.00  0.00    -0.500 OA
BRANCH  15  17
ATOM     17  C   LIG    1        2.185  -4.919   0.973  0.00  0.00    -0.120 A 
ATOM     18  C   LIG    1        2.392  -4.361   2.220  0.00  0.00    +0.060 A 
ATOM     19  C   LIG    1        1.909  -4.992   3.350  0.00  0.00    -0.080 A 
ATOM     20  C   LIG    1        1.226  -6.194   3.232  0.00  0.00    +0.130 A 
ATOM     21  C   LIG    1        1.025  -6.755   1.980  0.00  0.00    -0.020 A 
ATOM     22  C   LIG    1        1.505  -6.117   0.853  0.00  0.00    +0.070 A 
BRANCH  20  23
ATOM     23  O   LIG    1        0.755  -6.821   4.343  0.00  0.00    -0.320 OA
ATOM     24  C   LIG    1        0.999  -6.185   5.599  0.00  0.00    +0.250 C 
ENDBRANCH  20  23
ENDBRANCH  15  17
ENDBRANCH   5  10
BRANCH   7  25
ATOM     25  C   LIG    1        3.147   2.273   1.331  0.00  0.00    -0.170 A 
ATOM     26  C   LIG    1        3.170   3.621   1.401  0.00  0.00    +0.070 A 
ATOM     27  C   LIG    1        4.233   4.144   2.104  0.00  0.00    +0.010 A 
ATOM     28  C   LIG    1        5.078   3.239   2.610  0.00  0.00    -0.030 A 
ATOM     29  S   LIG    1        4.529   1.619   2.200  0.00  0.00    +0.140 S 
ENDBRANCH   7  25
BRANCH   1  31
ATOM     30  C   LIG    1       -0.768   3.717  -2.822  0.00  0.00    +0.030 C 
ATOM     31  C   LIG    1       -1.387   3.188  -1.527  0.00  0.00    +0.340 C 
ENDBRANCH   1  31
TORSDOF 5
