REMARK  Name = ZINCrg000000pupt.1
REMARK                            x       y       z     vdW  Elec       q    Type
REMARK                         _______ _______ _______ _____ _____    ______ ____
ROOT
ATOM      1  N   LIG    1       -1.410   2.833   5.625  0.00  0.00    -0.600 N 
ATOM      2  C   LIG    1       -1.088   4.137   5.729  0.00  0.00    +0.530 C 
ATOM      3  O   LIG    1       -0.576   4.712   4.791  0.00  0.00    -0.490 OA
ENDROOT
BRANCH   2   4
ATOM      4  C   LIG    1       -1.363   4.882   7.010  0.00  0.00    +0.160 C 
ATOM      5  C   LIG    1       -2.846   5.253   7.075  0.00  0.00    +0.060 C 
BRANCH   4   6
ATOM      6  O   LIG    1       -0.572   6.072   7.049  0.00  0.00    -0.280 OA
BRANCH   6   7
ATOM      7  C   LIG    1       -0.308   6.597   8.274  0.00  0.00    +0.120 A 
ATOM      8  C   LIG    1        0.439   7.761   8.384  0.00  0.00    -0.010 A 
ATOM      9  C   LIG    1        0.700   8.297   9.630  0.00  0.00    +0.050 A 
ATOM     10  C   LIG    1        0.229   7.668  10.768  0.00  0.00    -0.120 A 
ATOM     11  C   LIG    1       -0.511   6.505  10.660  0.00  0.00    +0.050 A 
ATOM     12  C   LIG    1        0.521   8.251  12.126  0.00  0.00    +0.100 C 
ATOM     13  C   LIG    1       -0.781   5.968   9.416  0.00  0.00    -0.080 A 
ENDBRANCH   6   7
ENDBRANCH   4   6
ENDBRANCH   2   4
BRANCH   1  14
ATOM     14  C   LIG    1       -2.117   2.164   6.720  0.00  0.00    +0.370 C 
BRANCH  14  15
ATOM     15  C   LIG    1       -1.120   1.474   7.614  0.00  0.00    +0.430 C 
ATOM     16  O   LIG    1        0.060   1.534   7.363  0.00  0.00    -0.490 OA
BRANCH  15  18
ATOM     17  C   LIG    1       -0.526   0.152   9.507  0.00  0.00    +0.270 C 
ATOM     18  O   LIG    1       -1.543   0.791   8.690  0.00  0.00    -0.360 OA
ENDBRANCH  15  18
ENDBRANCH  14  15
ENDBRANCH   1  14
BRANCH   1  19
ATOM     19  C   LIG    1       -1.054   2.084   4.417  0.00  0.00    +0.300 C 
BRANCH  19  20
ATOM     20  C   LIG    1       -2.193   2.183   3.401  0.00  0.00    +0.170 C 
BRANCH  20  21
ATOM     21  N   LIG    1       -1.835   1.432   2.190  0.00  0.00    -0.540 NA
ATOM     22  C   LIG    1       -1.288   0.112   2.531  0.00  0.00    +0.170 C 
ATOM     23  C   LIG    1       -0.856  -0.605   1.250  0.00  0.00    +0.180 C 
ATOM     24  N   LIG    1       -2.010  -0.733   0.350  0.00  0.00    -0.550 NA
ATOM     25  C   LIG    1       -2.557   0.587   0.009  0.00  0.00    +0.180 C 
ATOM     26  C   LIG    1       -1.653  -1.484  -0.861  0.00  0.00    +0.190 C 
ATOM     27  C   LIG    1       -2.990   1.304   1.290  0.00  0.00    +0.180 C 
ENDBRANCH  20  21
ENDBRANCH  19  20
ENDBRANCH   1  19
TORSDOF 9
