REMARK  Name = ZINCpk00000KfLiv.2
REMARK                            x       y       z     vdW  Elec       q    Type
REMARK                         _______ _______ _______ _____ _____    ______ ____
ROOT
ATOM      1  N   LIG    1       -3.011   4.102  -1.333  0.00  0.00    -0.500 NA
ATOM      2  C   LIG    1       -3.009   2.844  -2.123  0.00  0.00    +0.180 C 
ATOM      3  C   LIG    1       -3.960   3.164  -3.303  0.00  0.00    +0.040 C 
ATOM      4  C   LIG    1       -5.057   4.027  -2.638  0.00  0.00    +0.130 C 
ATOM      5  C   LIG    1       -4.406   4.594  -1.364  0.00  0.00    +0.180 C 
ENDROOT
BRANCH   4   6
ATOM      6  N   LIG    1       -5.462   5.119  -3.534  0.00  0.00    -0.520 NA
ATOM      7  C   LIG    1       -6.359   6.058  -2.846  0.00  0.00    +0.200 C 
BRANCH   6   8
ATOM      8  C   LIG    1       -6.086   4.594  -4.755  0.00  0.00    +0.310 C 
BRANCH   8   9
ATOM      9  C   LIG    1       -6.264   5.713  -5.749  0.00  0.00    +0.180 A 
ATOM     10  N   LIG    1       -7.304   6.482  -5.863  0.00  0.00    -0.380 NA
ATOM     11  O   LIG    1       -7.136   7.286  -6.756  0.00  0.00    +0.080 OA
ATOM     12  C   LIG    1       -5.940   7.094  -7.319  0.00  0.00    +0.180 A 
ATOM     13  C   LIG    1       -5.350   7.877  -8.464  0.00  0.00    +0.250 C 
ATOM     14  N   LIG    1       -5.376   6.094  -6.685  0.00  0.00    -0.470 NA
ENDBRANCH   8   9
ENDBRANCH   6   8
ENDBRANCH   4   6
BRANCH   1  15
ATOM     15  C   LIG    1       -2.569   3.859   0.046  0.00  0.00    +0.220 C 
BRANCH  15  20
ATOM     16  C   LIG    1        1.153   3.176   0.008  0.00  0.00    -0.140 A 
ATOM     17  C   LIG    1        1.174   1.780   0.000  0.00  0.00    +0.040 A 
ATOM     18  C   LIG    1       -0.013   1.076   0.008  0.00  0.00    +0.000 A 
ATOM     19  C   LIG    1       -1.221   1.750   0.017  0.00  0.00    +0.030 A 
ATOM     20  C   LIG    1       -1.248   3.133   0.030  0.00  0.00    -0.090 A 
ATOM     21  C   LIG    1       -0.070   3.849   0.022  0.00  0.00    +0.100 A 
BRANCH  16  25
ATOM     22  C   LIG    1        4.855   4.038  -0.021  0.00  0.00    +0.290 C 
ATOM     23  N   LIG    1        3.599   3.284  -0.014  0.00  0.00    -0.730 N 
ATOM     24  H   LIG    1        3.616   2.314  -0.019  0.00  0.00    +0.400 HD
ATOM     25  C   LIG    1        2.420   3.937   0.000  0.00  0.00    +0.560 C 
ATOM     26  O   LIG    1        2.399   5.152   0.006  0.00  0.00    -0.530 OA
ENDBRANCH  16  25
ENDBRANCH  15  20
ENDBRANCH   1  15
TORSDOF 6
