REMARK  Name = ZINCpk00000KfLIv.1
REMARK                            x       y       z     vdW  Elec       q    Type
REMARK                         _______ _______ _______ _____ _____    ______ ____
ROOT
ATOM      1  C   LIG    1       -0.156  -5.120   3.494  0.00  0.00    -0.270 C 
ATOM      2  C   LIG    1        0.583  -4.576   2.503  0.00  0.00    +0.220 C 
ATOM      3  N   LIG    1        1.882  -4.211   2.711  0.00  0.00    -0.640 N 
ATOM      4  H   LIG    1        2.375  -3.828   1.969  0.00  0.00    +0.430 HD
ATOM      5  C   LIG    1        2.512  -4.348   3.885  0.00  0.00    +0.710 C 
ATOM      6  N   LIG    1        1.907  -4.875   4.967  0.00  0.00    -0.720 N 
ATOM      7  H   LIG    1        2.383  -4.967   5.807  0.00  0.00    +0.430 HD
ATOM      8  O   LIG    1        3.670  -3.988   3.975  0.00  0.00    -0.560 OA
ATOM      9  C   LIG    1        0.504  -5.306   4.845  0.00  0.00    +0.280 C 
ATOM     10  C   LIG    1       -0.318  -4.536   5.881  0.00  0.00    +0.040 C 
ENDROOT
BRANCH   1  11
ATOM     11  C   LIG    1       -1.501  -5.503   3.278  0.00  0.00    +0.550 C 
ATOM     12  O   LIG    1       -1.778  -6.674   3.097  0.00  0.00    -0.490 OA
BRANCH  11  13
ATOM     13  O   LIG    1       -2.475  -4.570   3.272  0.00  0.00    -0.350 OA
BRANCH  13  15
ATOM     14  C   LIG    1       -4.770  -3.836   3.076  0.00  0.00    +0.060 C 
ATOM     15  C   LIG    1       -3.810  -5.028   3.048  0.00  0.00    +0.200 C 
ENDBRANCH  13  15
ENDBRANCH  11  13
ENDBRANCH   1  11
BRANCH   2  16
ATOM     16  C   LIG    1       -0.035  -4.374   1.143  0.00  0.00    +0.250 C 
BRANCH  16  17
ATOM     17  N   LIG    1       -0.109  -2.937   0.847  0.00  0.00    -0.680 NA
ATOM     18  H   LIG    1       -0.617  -2.446   1.567  0.00  0.00    +0.350 HD
BRANCH  17  19
ATOM     19  C   LIG    1       -0.707  -2.702  -0.474  0.00  0.00    +0.210 C 
BRANCH  19  20
ATOM     20  C   LIG    1       -0.767  -1.197  -0.746  0.00  0.00    +0.190 C 
BRANCH  20  21
ATOM     21  O   LIG    1        0.561  -0.676  -0.833  0.00  0.00    -0.300 OA
BRANCH  21  22
ATOM     22  C   LIG    1        0.686   0.656  -1.073  0.00  0.00    +0.130 A 
ATOM     23  C   LIG    1       -0.445   1.444  -1.227  0.00  0.00    -0.080 A 
ATOM     24  C   LIG    1       -0.315   2.798  -1.466  0.00  0.00    +0.040 A 
ATOM     25  C   LIG    1        0.941   3.367  -1.562  0.00  0.00    -0.130 A 
ATOM     26  C   LIG    1        2.071   2.583  -1.415  0.00  0.00    +0.050 A 
ATOM     27  C   LIG    1        1.080   4.843  -1.829  0.00  0.00    +0.090 C 
ATOM     28  C   LIG    1        1.946   1.229  -1.171  0.00  0.00    -0.020 A 
ENDBRANCH  21  22
ENDBRANCH  20  21
ENDBRANCH  19  20
ENDBRANCH  17  19
ENDBRANCH  16  17
ENDBRANCH   2  16
TORSDOF 9
