REMARK  Name = ZINCqH00000515Sr.1
REMARK                            x       y       z     vdW  Elec       q    Type
REMARK                         _______ _______ _______ _____ _____    ______ ____
ROOT
ATOM      1  O   LIG    1        8.223  -0.771   4.059  0.00  0.00    -0.550 OA
ATOM      2  C   LIG    1        7.356   0.061   3.863  0.00  0.00    +0.550 C 
ATOM      3  N   LIG    1        6.284  -0.247   3.107  0.00  0.00    -0.610 N 
ATOM      4  C   LIG    1        6.086  -1.613   2.600  0.00  0.00    +0.300 C 
ATOM      5  C   LIG    1        5.832  -1.539   1.090  0.00  0.00    +0.170 C 
ATOM      6  N   LIG    1        4.724  -0.612   0.827  0.00  0.00    -0.530 NA
ATOM      7  C   LIG    1        5.059   0.754   1.252  0.00  0.00    +0.170 C 
ATOM      8  C   LIG    1        5.281   0.774   2.768  0.00  0.00    +0.280 C 
ENDROOT
BRANCH   2   9
ATOM      9  C   LIG    1        7.476   1.354   4.429  0.00  0.00    -0.090 C 
ATOM     10  C   LIG    1        8.605   1.701   5.094  0.00  0.00    +0.180 C 
BRANCH  10  11
ATOM     11  C   LIG    1        8.725   2.994   5.660  0.00  0.00    -0.020 A 
ATOM     12  C   LIG    1        9.809   3.476   6.363  0.00  0.00    +0.000 A 
ATOM     13  C   LIG    1        9.493   4.793   6.729  0.00  0.00    -0.060 A 
ATOM     14  C   LIG    1        8.255   5.054   6.254  0.00  0.00    +0.200 A 
ATOM     15  O   LIG    1        7.796   3.971   5.612  0.00  0.00    -0.170 OA
ENDBRANCH  10  11
ENDBRANCH   2   9
BRANCH   6  16
ATOM     16  C   LIG    1        4.336  -0.643  -0.589  0.00  0.00    +0.230 C 
BRANCH  16  17
ATOM     17  C   LIG    1        2.973  -0.020  -0.751  0.00  0.00    -0.060 A 
ATOM     18  C   LIG    1        2.850   1.227  -1.281  0.00  0.00    +0.010 A 
ATOM     19  C   LIG    1        1.598   1.819  -1.439  0.00  0.00    +0.000 A 
ATOM     20  C   LIG    1        0.463   1.168  -1.067  0.00  0.00    +0.030 A 
ATOM     21  C   LIG    1        0.550  -0.122  -0.515  0.00  0.00    -0.050 A 
ATOM     22  C   LIG    1       -0.600  -0.826  -0.120  0.00  0.00    +0.020 A 
ATOM     23  C   LIG    1       -0.476  -2.074   0.409  0.00  0.00    +0.010 A 
ATOM     24  C   LIG    1        0.775  -2.666   0.567  0.00  0.00    +0.000 A 
ATOM     25  C   LIG    1        1.911  -2.014   0.196  0.00  0.00    +0.040 A 
ATOM     26  C   LIG    1        1.823  -0.724  -0.355  0.00  0.00    -0.030 A 
ENDBRANCH  16  17
ENDBRANCH   6  16
TORSDOF 4
