REMARK  Name = ZINCqH00000515SR.0
REMARK                            x       y       z     vdW  Elec       q    Type
REMARK                         _______ _______ _______ _____ _____    ______ ____
ROOT
ATOM      1  C   LIG    1        1.274   1.672  -0.330  0.00  0.00    +0.210 A 
ATOM      2  C   LIG    1        0.059   1.008  -0.220  0.00  0.00    +0.010 A 
ATOM      3  C   LIG    1       -1.116   1.729  -0.144  0.00  0.00    +0.150 A 
ATOM      4  C   LIG    1       -1.083   3.112  -0.166  0.00  0.00    -0.690 A 
ATOM      5  C   LIG    1        0.125   3.776  -0.274  0.00  0.00    +0.150 A 
ATOM      6  C   LIG    1        1.303   3.060  -0.356  0.00  0.00    -0.030 A 
ENDROOT
BRANCH   1   9
ATOM      7  O   LIG    1        1.656  -0.659   0.898  0.00  0.00    -0.520 OA
ATOM      8  C   LIG    1        2.600  -0.208   0.274  0.00  0.00    +0.560 C 
ATOM      9  N   LIG    1        2.465   0.944  -0.412  0.00  0.00    -0.670 N 
ATOM     10  H   LIG    1        3.195   1.269  -0.963  0.00  0.00    +0.420 HD
BRANCH   8  11
ATOM     11  C   LIG    1        3.838  -0.893   0.270  0.00  0.00    -0.090 C 
ATOM     12  C   LIG    1        3.974  -2.053   0.961  0.00  0.00    +0.200 C 
BRANCH  12  13
ATOM     13  C   LIG    1        5.212  -2.739   0.957  0.00  0.00    -0.030 A 
ATOM     14  C   LIG    1        5.489  -3.921   1.611  0.00  0.00    +0.010 A 
ATOM     15  C   LIG    1        6.829  -4.229   1.331  0.00  0.00    -0.060 A 
ATOM     16  C   LIG    1        7.306  -3.246   0.535  0.00  0.00    +0.200 A 
ATOM     17  O   LIG    1        6.331  -2.355   0.307  0.00  0.00    -0.170 OA
ENDBRANCH  12  13
ENDBRANCH   8  11
ENDBRANCH   1   9
BRANCH   4  18
ATOM     18  S   LIG    1       -2.584   4.029  -0.062  0.00  0.00    +2.690 S 
ATOM     19  O   LIG    1       -2.223   5.348   0.323  0.00  0.00    -0.950 OA
ATOM     20  O   LIG    1       -3.494   3.226   0.677  0.00  0.00    -0.950 OA
BRANCH  18  21
ATOM     21  N   LIG    1       -3.197   4.140  -1.596  0.00  0.00    -1.060 N 
ATOM     22  H   LIG    1       -3.270   5.006  -2.027  0.00  0.00    +0.430 HD
BRANCH  21  23
ATOM     23  C   LIG    1       -3.610   2.988  -2.269  0.00  0.00    +0.120 A 
ATOM     24  C   LIG    1       -2.830   2.461  -3.290  0.00  0.00    +0.020 A 
ATOM     25  C   LIG    1       -3.239   1.319  -3.950  0.00  0.00    +0.020 A 
ATOM     26  C   LIG    1       -4.428   0.705  -3.602  0.00  0.00    +0.020 A 
ATOM     27  C   LIG    1       -5.210   1.230  -2.589  0.00  0.00    +0.020 A 
ATOM     28  C   LIG    1       -4.804   2.369  -1.921  0.00  0.00    +0.040 A 
ENDBRANCH  21  23
ENDBRANCH  18  21
ENDBRANCH   4  18
TORSDOF 6
