REMARK  Name = ZINCvU0000000C56.0
REMARK                            x       y       z     vdW  Elec       q    Type
REMARK                         _______ _______ _______ _____ _____    ______ ____
ROOT
ATOM      1  C   LIG    1        1.085  -6.504  -0.107  0.00  0.00    +0.010 A 
ATOM      2  C   LIG    1        2.298  -7.055  -0.125  0.00  0.00    -0.040 A 
ATOM      3  S   LIG    1        3.547  -5.825  -0.121  0.00  0.00    +0.190 S 
ATOM      4  C   LIG    1        2.365  -4.525  -0.094  0.00  0.00    +0.060 A 
ATOM      5  N   LIG    1        2.526  -3.152  -0.083  0.00  0.00    -0.580 N 
ATOM      6  H   LIG    1        3.420  -2.776  -0.091  0.00  0.00    +0.430 HD
ATOM      7  C   LIG    1        1.451  -2.325  -0.057  0.00  0.00    +0.400 A 
ATOM      8  N   LIG    1        0.216  -2.780  -0.051  0.00  0.00    -0.590 NA
ATOM      9  C   LIG    1       -0.041  -4.093  -0.066  0.00  0.00    +0.550 A 
ATOM     10  O   LIG    1       -1.193  -4.497  -0.060  0.00  0.00    -0.470 OA
ATOM     11  C   LIG    1        1.087  -5.047  -0.088  0.00  0.00    -0.210 A 
ENDROOT
BRANCH   1  16
ATOM     12  C   LIG    1       -3.759  -9.617  -0.099  0.00  0.00    +0.090 C 
ATOM     13  C   LIG    1       -2.491  -8.802  -0.101  0.00  0.00    -0.080 A 
ATOM     14  C   LIG    1       -2.320  -7.793   0.830  0.00  0.00    +0.000 A 
ATOM     15  C   LIG    1       -1.161  -7.044   0.833  0.00  0.00    +0.060 A 
ATOM     16  C   LIG    1       -0.162  -7.306  -0.104  0.00  0.00    -0.050 A 
ATOM     17  C   LIG    1       -0.344  -8.320  -1.043  0.00  0.00    +0.020 A 
ATOM     18  C   LIG    1       -1.504  -9.067  -1.033  0.00  0.00    -0.090 A 
ATOM     19  C   LIG    1       -1.699 -10.168  -2.043  0.00  0.00    +0.080 C 
ENDBRANCH   1  16
BRANCH   7  20
ATOM     20  S   LIG    1        1.717  -0.583  -0.037  0.00  0.00    +0.090 S 
BRANCH  20  21
ATOM     21  C   LIG    1        0.003  -0.004  -0.014  0.00  0.00    +0.140 C 
BRANCH  21  22
ATOM     22  C   LIG    1       -0.018   1.503   0.006  0.00  0.00    +0.540 C 
ATOM     23  N   LIG    1       -1.195   2.161   0.019  0.00  0.00    -0.660 N 
ATOM     24  H   LIG    1       -2.027   1.667  -0.049  0.00  0.00    +0.420 HD
ATOM     25  O   LIG    1        1.024   2.124   0.004  0.00  0.00    -0.500 OA
BRANCH  23  26
ATOM     26  C   LIG    1       -1.215   3.557   0.133  0.00  0.00    +0.100 A 
ATOM     27  C   LIG    1       -0.217   4.317  -0.459  0.00  0.00    +0.100 A 
ATOM     28  C   LIG    1       -0.241   5.695  -0.350  0.00  0.00    +0.010 A 
ATOM     29  C   LIG    1       -1.256   6.317   0.357  0.00  0.00    +0.120 A 
ATOM     30  C   LIG    1       -2.251   5.561   0.954  0.00  0.00    -0.010 A 
ATOM     31  F   LIG    1       -1.275   7.664   0.466  0.00  0.00    -0.130 F 
ATOM     32  C   LIG    1       -2.234   4.183   0.844  0.00  0.00    +0.110 A 
ATOM     33  F   LIG    1       -3.205   3.446   1.425  0.00  0.00    -0.130 F 
ENDBRANCH  23  26
ENDBRANCH  21  22
ENDBRANCH  20  21
ENDBRANCH   7  20
TORSDOF 5
