REMARK  Name = ZINCvU0000000EbQ.0
REMARK                            x       y       z     vdW  Elec       q    Type
REMARK                         _______ _______ _______ _____ _____    ______ ____
ROOT
ATOM      1  N   LIG    1        7.843   0.644   4.344  0.00  0.00    -0.410 N 
ATOM      2  C   LIG    1        6.567   0.554   3.861  0.00  0.00    +0.160 A 
ATOM      3  N   LIG    1        5.913  -0.277   4.643  0.00  0.00    -0.290 NA
ATOM      4  N   LIG    1        6.684  -0.705   5.577  0.00  0.00    -0.250 NA
ATOM      5  C   LIG    1        7.879  -0.175   5.452  0.00  0.00    +0.230 A 
ENDROOT
BRANCH   1  13
ATOM      6  C   LIG    1        9.537  -0.544   2.390  0.00  0.00    +0.120 C 
ATOM      7  C   LIG    1        9.744   0.870   2.868  0.00  0.00    -0.040 A 
ATOM      8  C   LIG    1       10.779   1.629   2.356  0.00  0.00    -0.030 A 
ATOM      9  C   LIG    1       10.968   2.928   2.795  0.00  0.00    +0.070 A 
ATOM     10  C   LIG    1       10.123   3.470   3.745  0.00  0.00    +0.050 A 
ATOM     11  C   LIG    1        9.084   2.716   4.257  0.00  0.00    +0.050 A 
ATOM     12 CL   LIG    1       11.843   0.953   1.162  0.00  0.00    -0.040 Cl
ATOM     13  C   LIG    1        8.894   1.411   3.823  0.00  0.00    +0.100 A 
ENDBRANCH   1  13
BRANCH   5  14
ATOM     14  C   LIG    1        9.043  -0.417   6.328  0.00  0.00    +0.030 A 
ATOM     15  C   LIG    1       10.164   0.422   6.284  0.00  0.00    -0.020 A 
ATOM     16  C   LIG    1       11.226   0.163   7.124  0.00  0.00    +0.270 A 
ATOM     17  N   LIG    1       11.201  -0.865   7.952  0.00  0.00    -0.470 NA
ATOM     18  C   LIG    1       10.168  -1.684   8.021  0.00  0.00    +0.280 A 
ATOM     19  C   LIG    1        9.060  -1.495   7.221  0.00  0.00    +0.020 A 
ENDBRANCH   5  14
BRANCH   2  20
ATOM     20  S   LIG    1        5.922   1.390   2.450  0.00  0.00    +0.100 S 
BRANCH  20  21
ATOM     21  C   LIG    1        4.224   0.763   2.463  0.00  0.00    +0.110 C 
BRANCH  21  22
ATOM     22  C   LIG    1        3.460   1.360   1.310  0.00  0.00    +0.530 C 
ATOM     23  N   LIG    1        2.166   1.035   1.118  0.00  0.00    -0.720 N 
ATOM     24  H   LIG    1        1.726   0.417   1.723  0.00  0.00    +0.400 HD
ATOM     25  O   LIG    1        4.009   2.133   0.553  0.00  0.00    -0.520 OA
BRANCH  23  26
ATOM     26  C   LIG    1        1.423   1.615  -0.003  0.00  0.00    +0.260 C 
BRANCH  26  27
ATOM     27  C   LIG    1       -0.013   1.086   0.008  0.00  0.00    -0.020 C 
ATOM     28  C   LIG    1       -0.729   1.579   1.267  0.00  0.00    +0.010 C 
ATOM     29  C   LIG    1       -2.164   1.050   1.278  0.00  0.00    +0.000 C 
ATOM     30  C   LIG    1       -2.904   1.556   0.038  0.00  0.00    +0.000 C 
ATOM     31  C   LIG    1       -2.188   1.063  -1.221  0.00  0.00    +0.000 C 
ATOM     32  C   LIG    1       -0.753   1.593  -1.232  0.00  0.00    +0.030 C 
ENDBRANCH  26  27
ENDBRANCH  23  26
ENDBRANCH  21  22
ENDBRANCH  20  21
ENDBRANCH   2  20
TORSDOF 7
