REMARK  Name = ZINC9u0000000C3D.0
REMARK                            x       y       z     vdW  Elec       q    Type
REMARK                         _______ _______ _______ _____ _____    ______ ____
ROOT
ATOM      1  C   LIG    1        0.380   3.506   0.017  0.00  0.00    +0.060 A 
ATOM      2  N   LIG    1       -0.858   3.142   0.027  0.00  0.00    -0.470 NA
ATOM      3  C   LIG    1       -1.104   1.847   0.017  0.00  0.00    +0.220 A 
ATOM      4  C   LIG    1       -0.013   1.076   0.008  0.00  0.00    -0.090 A 
ATOM      5  S   LIG    1        1.398   2.132   0.000  0.00  0.00    +0.120 S 
ENDROOT
BRANCH   1   7
ATOM      6  C   LIG    1        0.349   5.640   1.279  0.00  0.00    +0.060 C 
ATOM      7  C   LIG    1        0.860   4.934   0.021  0.00  0.00    +0.010 C 
ATOM      8  C   LIG    1        0.327   5.654  -1.219  0.00  0.00    +0.060 C 
ATOM      9  C   LIG    1        2.389   4.959   0.007  0.00  0.00    +0.040 C 
ENDBRANCH   1   7
TORSDOF 1
