REMARK  Name = ZINCrg00000fSfX8.0
REMARK                            x       y       z     vdW  Elec       q    Type
REMARK                         _______ _______ _______ _____ _____    ______ ____
ROOT
ATOM      1  N   LIG    1        4.241   1.892   2.959  0.00  0.00    -0.710 N 
ATOM      2  H   LIG    1        5.209   1.910   2.901  0.00  0.00    +0.400 HD
ATOM      3  C   LIG    1        3.523   2.969   2.582  0.00  0.00    +0.590 C 
ATOM      4  O   LIG    1        2.308   2.915   2.566  0.00  0.00    -0.540 OA
ENDROOT
BRANCH   3   5
ATOM      5  C   LIG    1        4.207   4.205   2.190  0.00  0.00    -0.050 A 
ATOM      6  C   LIG    1        5.571   4.386   2.090  0.00  0.00    +0.110 A 
ATOM      7  C   LIG    1        5.782   5.708   1.685  0.00  0.00    -0.750 A 
ATOM      8  C   LIG    1        4.571   6.301   1.556  0.00  0.00    +0.330 A 
ATOM      9  N   LIG    1        3.606   5.399   1.860  0.00  0.00    -0.400 N 
ATOM     10  C   LIG    1        2.163   5.652   1.841  0.00  0.00    +0.340 C 
BRANCH   7  11
ATOM     11  S   LIG    1        7.345   6.469   1.399  0.00  0.00    +2.740 S 
ATOM     12  O   LIG    1        7.106   7.558   0.519  0.00  0.00    -0.960 OA
ATOM     13  O   LIG    1        8.255   5.417   1.107  0.00  0.00    -0.950 OA
BRANCH  11  14
ATOM     14  N   LIG    1        7.838   7.128   2.836  0.00  0.00    -1.010 NA
ATOM     15  C   LIG    1        7.550   8.495   3.295  0.00  0.00    +0.250 C 
ATOM     16  C   LIG    1        8.229   8.669   4.670  0.00  0.00    +0.030 C 
ATOM     17  C   LIG    1        9.340   7.587   4.647  0.00  0.00    +0.030 C 
ATOM     18  C   LIG    1        8.645   6.445   3.863  0.00  0.00    +0.260 C 
ENDBRANCH  11  14
ENDBRANCH   7  11
ENDBRANCH   3   5
BRANCH   1  19
ATOM     19  C   LIG    1        3.558   0.696   3.458  0.00  0.00    +0.350 C 
BRANCH  19  24
ATOM     20  C   LIG    1        7.461  -3.337   4.750  0.00  0.00    +0.150 C 
ATOM     21  C   LIG    1        6.440  -2.280   4.417  0.00  0.00    +0.180 A 
ATOM     22  C   LIG    1        5.985  -1.459   5.393  0.00  0.00    -0.090 A 
ATOM     23  C   LIG    1        5.030  -0.477   5.092  0.00  0.00    +0.050 A 
ATOM     24  C   LIG    1        4.580  -0.355   3.810  0.00  0.00    -0.260 A 
ATOM     25  C   LIG    1        5.079  -1.220   2.821  0.00  0.00    +0.530 A 
ATOM     26  O   LIG    1        4.684  -1.122   1.670  0.00  0.00    -0.540 OA
ATOM     27  C   LIG    1        4.512   0.438   6.171  0.00  0.00    +0.120 C 
ATOM     28  N   LIG    1        5.990  -2.157   3.142  0.00  0.00    -0.610 N 
ATOM     29  H   LIG    1        6.330  -2.751   2.455  0.00  0.00    +0.420 HD
ENDBRANCH  19  24
ENDBRANCH   1  19
TORSDOF 5
