REMARK  Name = ZINCpe000000Y6pL.0
REMARK                            x       y       z     vdW  Elec       q    Type
REMARK                         _______ _______ _______ _____ _____    ______ ____
ROOT
ATOM      1  C   LIG    1       -3.854  -6.167   0.007  0.00  0.00    +0.260 C 
ENDROOT
BRANCH   1   3
ATOM      2  C   LIG    1       -5.356  -8.086   0.012  0.00  0.00    +0.510 C 
ATOM      3  N   LIG    1       -5.199  -6.747   0.018  0.00  0.00    -0.730 N 
ATOM      4  H   LIG    1       -5.977  -6.167   0.028  0.00  0.00    +0.400 HD
ATOM      5  O   LIG    1       -4.384  -8.810  -0.002  0.00  0.00    -0.520 OA
BRANCH   2   6
ATOM      6  C   LIG    1       -6.740  -8.682   0.022  0.00  0.00    +0.140 C 
BRANCH   6  14
ATOM      7  C   LIG    1       -6.591 -10.554   2.575  0.00  0.00    +0.150 C 
ATOM      8  C   LIG    1       -6.574 -11.013   1.139  0.00  0.00    +0.090 A 
ATOM      9  N   LIG    1       -6.495 -12.253   0.731  0.00  0.00    -0.300 NA
ATOM     10  N   LIG    1       -6.508 -12.255  -0.670  0.00  0.00    -0.370 N 
ATOM     11  C   LIG    1       -6.603 -10.974  -1.085  0.00  0.00    +0.100 A 
ATOM     12  C   LIG    1       -6.654 -10.507  -2.517  0.00  0.00    +0.140 C 
ATOM     13  C   LIG    1       -6.437 -13.438  -1.531  0.00  0.00    +0.350 C 
ATOM     14  C   LIG    1       -6.639 -10.185   0.013  0.00  0.00    -0.230 A 
ENDBRANCH   6  14
ENDBRANCH   2   6
ENDBRANCH   1   3
BRANCH   1  15
ATOM     15  C   LIG    1       -3.956  -4.641   0.016  0.00  0.00    +0.270 C 
BRANCH  15  16
ATOM     16  N   LIG    1       -2.610  -4.061   0.006  0.00  0.00    -0.730 N 
ATOM     17  H   LIG    1       -1.833  -4.641  -0.005  0.00  0.00    +0.410 HD
ATOM     18  C   LIG    1       -2.453  -2.723   0.012  0.00  0.00    +0.520 C 
ATOM     19  O   LIG    1       -3.426  -1.998   0.025  0.00  0.00    -0.510 OA
BRANCH  18  20
ATOM     20  C   LIG    1       -1.069  -2.126   0.001  0.00  0.00    +0.240 C 
BRANCH  20  21
ATOM     21  O   LIG    1       -1.165  -0.701   0.010  0.00  0.00    -0.290 OA
BRANCH  21  22
ATOM     22  C   LIG    1        0.002  -0.004   0.002  0.00  0.00    +0.130 A 
ATOM     23  C   LIG    1       -0.017   1.383   0.010  0.00  0.00    -0.020 A 
ATOM     24  C   LIG    1        1.171   2.089   0.002  0.00  0.00    +0.050 A 
ATOM     25  C   LIG    1        2.377   1.414  -0.013  0.00  0.00    -0.030 A 
ATOM     26  C   LIG    1        2.399   0.031  -0.021  0.00  0.00    +0.050 A 
ATOM     27  C   LIG    1        1.214  -0.679  -0.013  0.00  0.00    -0.080 A 
ENDBRANCH  21  22
ENDBRANCH  20  21
ENDBRANCH  18  20
ENDBRANCH  15  16
ENDBRANCH   1  15
TORSDOF 8
