REMARK  Name = ZINC9p0000002o0z.0
REMARK                            x       y       z     vdW  Elec       q    Type
REMARK                         _______ _______ _______ _____ _____    ______ ____
ROOT
ATOM      1  C   LIG    1        0.742  -0.511   1.242  0.00  0.00    -0.010 C 
ATOM      2  C   LIG    1        0.763  -2.041   1.233  0.00  0.00    +0.050 C 
ATOM      3  C   LIG    1        1.479  -2.534  -0.026  0.00  0.00    +0.020 C 
ATOM      4  C   LIG    1        0.739  -2.027  -1.265  0.00  0.00    +0.050 C 
ATOM      5  C   LIG    1        0.718  -0.497  -1.257  0.00  0.00    +0.040 C 
ATOM      6  C   LIG    1        0.002  -0.004   0.002  0.00  0.00    +0.170 C 
ENDROOT
BRANCH   6   7
ATOM      7  N   LIG    1       -0.018   1.465   0.010  0.00  0.00    -0.640 N 
ATOM      8  H   LIG    1       -0.490   1.790   0.840  0.00  0.00    +0.430 HD
ATOM      9  H   LIG    1       -0.506   1.799  -0.807  0.00  0.00    +0.440 HD
ATOM     10  H   LIG    1        0.929   1.814   0.003  0.00  0.00    +0.430 HD
ENDBRANCH   6   7
BRANCH   1  12
ATOM     11  C   LIG    1        0.833  -0.418   3.737  0.00  0.00    +0.040 C 
ATOM     12  C   LIG    1        0.026  -0.018   2.500  0.00  0.00    +0.010 C 
ENDBRANCH   1  12
TORSDOF 2
