REMARK  Name = ZINCrH000004rxig.1
REMARK                            x       y       z     vdW  Elec       q    Type
REMARK                         _______ _______ _______ _____ _____    ______ ____
ROOT
ATOM      1  N   LIG    1        0.711  -0.489   1.189  0.00  0.00    -0.740 N 
ATOM      2  H   LIG    1        0.213  -0.731   1.986  0.00  0.00    +0.390 HD
ATOM      3  C   LIG    1        2.054  -0.600   1.174  0.00  0.00    +0.710 C 
ATOM      4  N   LIG    1        2.706  -1.046   2.266  0.00  0.00    -0.740 N 
ATOM      5  H   LIG    1        2.208  -1.288   3.062  0.00  0.00    +0.400 HD
ATOM      6  O   LIG    1        2.677  -0.297   0.175  0.00  0.00    -0.590 OA
ENDROOT
BRANCH   4   7
ATOM      7  C   LIG    1        4.166  -1.166   2.249  0.00  0.00    +0.250 C 
ATOM      8  C   LIG    1        4.561  -2.517   1.645  0.00  0.00    +0.010 C 
ATOM      9  C   LIG    1        6.084  -2.663   1.688  0.00  0.00    +0.170 C 
ATOM     10  N   LIG    1        6.548  -2.571   3.078  0.00  0.00    -0.530 NA
ATOM     11  C   LIG    1        6.221  -1.264   3.663  0.00  0.00    +0.180 C 
ATOM     12  C   LIG    1        4.703  -1.077   3.680  0.00  0.00    +0.040 C 
BRANCH  10  13
ATOM     13  C   LIG    1        7.989  -2.844   3.171  0.00  0.00    +0.230 C 
BRANCH  13  14
ATOM     14  C   LIG    1        8.254  -4.279   2.793  0.00  0.00    -0.030 A 
ATOM     15  C   LIG    1        8.249  -5.279   3.753  0.00  0.00    -0.010 A 
ATOM     16  C   LIG    1        8.491  -6.583   3.367  0.00  0.00    +0.260 A 
ATOM     17  N   LIG    1        8.735  -6.880   2.106  0.00  0.00    -0.490 NA
ATOM     18  C   LIG    1        8.753  -5.954   1.167  0.00  0.00    +0.260 A 
ATOM     19  C   LIG    1        8.514  -4.629   1.476  0.00  0.00    -0.040 A 
ENDBRANCH  13  14
ENDBRANCH  10  13
ENDBRANCH   4   7
BRANCH   1  20
ATOM     20  C   LIG    1        0.002  -0.004   0.002  0.00  0.00    +0.300 C 
ATOM     21  C   LIG    1       -0.019   1.526   0.010  0.00  0.00    +0.040 C 
BRANCH  20  26
ATOM     22  C   LIG    1       -5.419  -2.006   0.043  0.00  0.00    +0.090 C 
ATOM     23  C   LIG    1       -4.005  -1.483   0.033  0.00  0.00    -0.090 A 
ATOM     24  C   LIG    1       -3.417  -1.056   1.208  0.00  0.00    +0.010 A 
ATOM     25  C   LIG    1       -2.119  -0.582   1.199  0.00  0.00    +0.000 A 
ATOM     26  C   LIG    1       -1.412  -0.526   0.013  0.00  0.00    -0.090 A 
ATOM     27  C   LIG    1       -2.000  -0.954  -1.163  0.00  0.00    +0.020 A 
ATOM     28  C   LIG    1       -3.296  -1.433  -1.153  0.00  0.00    -0.080 A 
ATOM     29  C   LIG    1       -3.937  -1.899  -2.435  0.00  0.00    +0.090 C 
ENDBRANCH  20  26
ENDBRANCH   1  20
TORSDOF 5
