REMARK  Name = ZINCqH0000001oIP.0
REMARK                            x       y       z     vdW  Elec       q    Type
REMARK                         _______ _______ _______ _____ _____    ______ ____
ROOT
ATOM      1  N   LIG    1       -0.348  -0.038   0.206  0.00  0.00    -0.410 N 
ATOM      2  N   LIG    1       -0.567  -1.413   0.299  0.00  0.00    -0.210 NA
ATOM      3  C   LIG    1        0.370  -2.294   0.046  0.00  0.00    +0.210 A 
ATOM      4  C   LIG    1        1.712  -1.840  -0.353  0.00  0.00    -0.060 A 
ATOM      5  C   LIG    1        2.738  -2.740  -0.633  0.00  0.00    +0.040 A 
ATOM      6  C   LIG    1        3.977  -2.265  -1.003  0.00  0.00    +0.060 A 
ATOM      7  C   LIG    1        4.214  -0.901  -1.101  0.00  0.00    +0.030 A 
ATOM      8  C   LIG    1        3.214   0.007  -0.830  0.00  0.00    +0.090 A 
ATOM      9  C   LIG    1        1.953  -0.452  -0.453  0.00  0.00    -0.120 A 
ATOM     10  C   LIG    1        0.849   0.470  -0.152  0.00  0.00    +0.530 A 
ATOM     11  O   LIG    1        1.013   1.675  -0.226  0.00  0.00    -0.520 OA
ENDROOT
BRANCH   3  12
ATOM     12  C   LIG    1        0.081  -3.736   0.162  0.00  0.00    -0.150 A 
ATOM     13  C   LIG    1       -1.092  -4.323  -0.157  0.00  0.00    +0.070 A 
ATOM     14  C   LIG    1       -1.122  -5.688   0.033  0.00  0.00    +0.010 A 
ATOM     15  C   LIG    1        0.008  -6.219   0.512  0.00  0.00    -0.030 A 
ATOM     16  S   LIG    1        1.208  -4.954   0.744  0.00  0.00    +0.150 S 
ENDBRANCH   3  12
BRANCH   1  17
ATOM     17  C   LIG    1       -1.451   0.880   0.500  0.00  0.00    +0.360 C 
BRANCH  17  19
ATOM     18  N   LIG    1       -3.194   2.094  -0.766  0.00  0.00    -0.600 N 
ATOM     19  C   LIG    1       -2.219   1.164  -0.765  0.00  0.00    +0.510 C 
ATOM     20  O   LIG    1       -1.959   0.556  -1.782  0.00  0.00    -0.530 OA
BRANCH  18  22
ATOM     21  C   LIG    1       -3.615   2.016   1.642  0.00  0.00    +0.030 C 
ATOM     22  C   LIG    1       -3.421   2.920   0.422  0.00  0.00    +0.230 C 
ATOM     23  C   LIG    1       -2.213   3.830   0.649  0.00  0.00    +0.030 C 
ENDBRANCH  18  22
BRANCH  18  24
ATOM     24  C   LIG    1       -4.028   2.279  -1.957  0.00  0.00    +0.230 C 
ATOM     25  C   LIG    1       -3.799   3.681  -2.527  0.00  0.00    +0.030 C 
ATOM     26  C   LIG    1       -5.501   2.118  -1.578  0.00  0.00    +0.030 C 
ENDBRANCH  18  24
ENDBRANCH  17  19
ENDBRANCH   1  17
TORSDOF 5
