REMARK  Name = ZINCqH0000038rEu.0
REMARK                            x       y       z     vdW  Elec       q    Type
REMARK                         _______ _______ _______ _____ _____    ______ ____
ROOT
ATOM      1  C   LIG    1       -0.605  -6.408   0.061  0.00  0.00    +0.200 A 
ATOM      2  C   LIG    1        0.704  -6.866   0.137  0.00  0.00    -0.020 A 
ATOM      3  C   LIG    1        0.957  -8.221   0.220  0.00  0.00    +0.150 A 
ATOM      4  C   LIG    1       -0.092  -9.123   0.218  0.00  0.00    -0.670 A 
ATOM      5  C   LIG    1       -1.396  -8.670   0.139  0.00  0.00    +0.150 A 
ATOM      6  C   LIG    1       -1.656  -7.316   0.060  0.00  0.00    +0.010 A 
ENDROOT
BRANCH   1   8
ATOM      7  C   LIG    1       -1.956  -4.520   0.580  0.00  0.00    +0.520 C 
ATOM      8  N   LIG    1       -0.864  -5.036  -0.019  0.00  0.00    -0.670 N 
ATOM      9  H   LIG    1       -0.258  -4.455  -0.505  0.00  0.00    +0.420 HD
ATOM     10  O   LIG    1       -2.758  -5.255   1.115  0.00  0.00    -0.480 OA
BRANCH   7  11
ATOM     11  C   LIG    1       -2.181  -3.030   0.583  0.00  0.00    +0.240 C 
BRANCH  11  12
ATOM     12  O   LIG    1       -3.397  -2.733   1.273  0.00  0.00    -0.290 OA
BRANCH  12  19
ATOM     13  C   LIG    1       -5.796  -2.124   2.634  0.00  0.00    +0.100 C 
ATOM     14  C   LIG    1       -4.917  -1.064   2.023  0.00  0.00    -0.110 A 
ATOM     15  C   LIG    1       -5.272   0.268   2.118  0.00  0.00    +0.050 A 
ATOM     16  C   LIG    1       -4.465   1.241   1.558  0.00  0.00    -0.020 A 
ATOM     17  C   LIG    1       -3.301   0.885   0.903  0.00  0.00    +0.040 A 
ATOM     18  C   LIG    1       -2.941  -0.445   0.806  0.00  0.00    -0.080 A 
ATOM     19  C   LIG    1       -3.749  -1.424   1.367  0.00  0.00    +0.120 A 
ENDBRANCH  12  19
ENDBRANCH  11  12
ENDBRANCH   7  11
ENDBRANCH   1   8
BRANCH   4  20
ATOM     20  S   LIG    1        0.235 -10.851   0.319  0.00  0.00    +2.490 S 
ATOM     21  O   LIG    1       -0.941 -11.397   0.901  0.00  0.00    -0.930 OA
ATOM     22  O   LIG    1        1.488 -10.933   0.984  0.00  0.00    -0.940 OA
BRANCH  20  23
ATOM     23  C   LIG    1        0.395 -11.382  -1.409  0.00  0.00    -0.430 C 
ATOM     24  C   LIG    1       -0.885 -11.027  -2.192  0.00  0.00    +0.050 C 
ATOM     25  C   LIG    1       -1.080 -12.220  -3.161  0.00  0.00    +0.030 C 
ATOM     26  C   LIG    1       -0.653 -13.434  -2.300  0.00  0.00    +0.030 C 
ATOM     27  C   LIG    1        0.543 -12.912  -1.478  0.00  0.00    +0.060 C 
ENDBRANCH  20  23
ENDBRANCH   4  20
TORSDOF 6
