REMARK  Name = ZINCpk00000y6vc2.1
REMARK                            x       y       z     vdW  Elec       q    Type
REMARK                         _______ _______ _______ _____ _____    ______ ____
ROOT
ATOM      1  C   LIG    1        2.505   1.143   5.068  0.00  0.00    +0.210 C 
ATOM      2  C   LIG    1        2.607  -0.020   6.090  0.00  0.00    +0.110 C 
ATOM      3  C   LIG    1        4.095   0.011   6.501  0.00  0.00    +0.240 C 
ATOM      4  N   LIG    1        4.831   0.689   5.424  0.00  0.00    -0.610 N 
ATOM      5  C   LIG    1        6.156   0.935   5.412  0.00  0.00    +0.610 C 
ATOM      6  O   LIG    1        6.660   1.507   4.463  0.00  0.00    -0.510 OA
ATOM      7  C   LIG    1        3.879   1.057   4.359  0.00  0.00    +0.270 C 
ENDROOT
BRANCH   5   8
ATOM      8  C   LIG    1        6.988   0.515   6.541  0.00  0.00    -0.040 A 
ATOM      9  C   LIG    1        8.372   0.691   6.676  0.00  0.00    -0.090 A 
ATOM     10  C   LIG    1        9.401   1.256   5.913  0.00  0.00    +0.070 A 
ATOM     11  C   LIG    1       10.675   1.240   6.391  0.00  0.00    +0.010 A 
ATOM     12  C   LIG    1       10.984   0.673   7.627  0.00  0.00    +0.030 A 
ATOM     13  C   LIG    1       10.031   0.117   8.418  0.00  0.00    +0.060 A 
ATOM     14  C   LIG    1        8.691   0.095   7.982  0.00  0.00    +0.050 A 
ATOM     15  N   LIG    1        7.550  -0.359   8.469  0.00  0.00    -0.260 NA
ATOM     16  N   LIG    1        6.574  -0.130   7.666  0.00  0.00    -0.330 N 
ATOM     17  H   LIG    1        5.654  -0.386   7.840  0.00  0.00    +0.450 HD
ENDBRANCH   5   8
BRANCH   1  20
ATOM     18  N   LIG    1       -0.020   1.094   2.454  0.00  0.00    -0.280 N 
ATOM     19  C   LIG    1        1.049   1.685   3.036  0.00  0.00    +0.160 A 
ATOM     20  C   LIG    1        1.379   0.909   4.094  0.00  0.00    -0.050 A 
ATOM     21  N   LIG    1        0.511  -0.110   4.104  0.00  0.00    -0.250 NA
ATOM     22  N   LIG    1       -0.304   0.029   3.119  0.00  0.00    -0.080 NA
BRANCH  18  24
ATOM     23  C   LIG    1       -0.013   1.086   0.008  0.00  0.00    +0.060 C 
ATOM     24  C   LIG    1       -0.729   1.579   1.267  0.00  0.00    +0.250 C 
ATOM     25  C   LIG    1       -0.750   3.109   1.275  0.00  0.00    +0.060 C 
ENDBRANCH  18  24
ENDBRANCH   1  20
BRANCH   1  26
ATOM     26  O   LIG    1        2.350   2.398   5.734  0.00  0.00    -0.530 OA
ATOM     27  H   LIG    1        2.330   3.160   5.138  0.00  0.00    +0.380 HD
ENDBRANCH   1  26
TORSDOF 4
