REMARK  Name = ZINCpk00000y6vc2.0
REMARK                            x       y       z     vdW  Elec       q    Type
REMARK                         _______ _______ _______ _____ _____    ______ ____
ROOT
ATOM      1  C   LIG    1        7.701   4.674  -0.074  0.00  0.00    +0.210 C 
ATOM      2  C   LIG    1        6.491   5.460  -0.644  0.00  0.00    +0.090 C 
ATOM      3  C   LIG    1        5.299   4.688  -0.024  0.00  0.00    +0.280 C 
ATOM      4  N   LIG    1        5.718   3.275  -0.036  0.00  0.00    -0.600 N 
ATOM      5  C   LIG    1        4.891   2.211  -0.033  0.00  0.00    +0.620 C 
ATOM      6  O   LIG    1        5.350   1.084  -0.043  0.00  0.00    -0.530 OA
ATOM      7  C   LIG    1        7.187   3.219  -0.044  0.00  0.00    +0.260 C 
ENDROOT
BRANCH   5   8
ATOM      8  C   LIG    1        3.431   2.412  -0.018  0.00  0.00    +0.010 A 
ATOM      9  N   LIG    1        2.794   3.563  -0.006  0.00  0.00    -0.200 NA
ATOM     10  N   LIG    1        1.520   3.406   0.005  0.00  0.00    -0.410 N 
ATOM     11  H   LIG    1        0.879   4.134   0.015  0.00  0.00    +0.450 HD
ATOM     12  C   LIG    1        1.183   2.078   0.002  0.00  0.00    +0.070 A 
ATOM     13  C   LIG    1       -0.017   1.373   0.010  0.00  0.00    +0.010 A 
ATOM     14  C   LIG    1        0.002  -0.004   0.002  0.00  0.00    +0.050 A 
ATOM     15  C   LIG    1        1.205  -0.698  -0.013  0.00  0.00    -0.010 A 
ATOM     16  C   LIG    1        2.395  -0.025  -0.021  0.00  0.00    +0.090 A 
ATOM     17  C   LIG    1        2.399   1.367  -0.013  0.00  0.00    -0.110 A 
ENDBRANCH   5   8
BRANCH   1  20
ATOM     18  N   LIG    1       10.868   4.629  -1.859  0.00  0.00    -0.280 N 
ATOM     19  C   LIG    1       10.117   4.248  -0.799  0.00  0.00    +0.150 A 
ATOM     20  C   LIG    1        8.896   4.802  -0.983  0.00  0.00    -0.040 A 
ATOM     21  N   LIG    1        8.957   5.481  -2.135  0.00  0.00    -0.250 NA
ATOM     22  N   LIG    1       10.140   5.363  -2.625  0.00  0.00    -0.080 NA
BRANCH  18  24
ATOM     23  C   LIG    1       13.179   5.245  -1.348  0.00  0.00    +0.060 C 
ATOM     24  C   LIG    1       12.268   4.267  -2.093  0.00  0.00    +0.250 C 
ATOM     25  C   LIG    1       12.520   2.847  -1.584  0.00  0.00    +0.060 C 
ENDBRANCH  18  24
ENDBRANCH   1  20
BRANCH   1  26
ATOM     26  O   LIG    1        8.021   5.123   1.244  0.00  0.00    -0.530 OA
ATOM     27  H   LIG    1        8.771   4.662   1.645  0.00  0.00    +0.380 HD
ENDBRANCH   1  26
TORSDOF 4
