REMARK  Name = ZINCpk00000KfLBJ.0
REMARK                            x       y       z     vdW  Elec       q    Type
REMARK                         _______ _______ _______ _____ _____    ______ ____
ROOT
ATOM      1  C   LIG    1        0.762   2.311  -0.746  0.00  0.00    +0.190 A 
ATOM      2  C   LIG    1       -0.017   1.470   0.024  0.00  0.00    -0.290 A 
ATOM      3  C   LIG    1       -0.840   2.287   0.832  0.00  0.00    +0.300 A 
ATOM      4  N   LIG    1       -0.560   3.533   0.565  0.00  0.00    -0.280 NA
ATOM      5  N   LIG    1        0.434   3.574  -0.419  0.00  0.00    -0.310 N 
ENDROOT
BRANCH   2   6
ATOM      6  C   LIG    1        0.002  -0.004   0.002  0.00  0.00    +0.600 C 
ATOM      7  N   LIG    1       -1.150  -0.694   0.111  0.00  0.00    -0.610 N 
ATOM      8  C   LIG    1       -2.449  -0.002   0.130  0.00  0.00    +0.250 C 
ATOM      9  C   LIG    1       -3.366  -0.667  -0.903  0.00  0.00    +0.220 C 
ATOM     10  O   LIG    1       -3.395  -2.077  -0.669  0.00  0.00    -0.370 OA
ATOM     11  C   LIG    1       -2.128  -2.722  -0.822  0.00  0.00    +0.140 C 
ATOM     12  C   LIG    1       -1.148  -2.163   0.209  0.00  0.00    +0.260 C 
ATOM     13  O   LIG    1        1.057  -0.597  -0.114  0.00  0.00    -0.530 OA
BRANCH  11  14
ATOM     14  C   LIG    1       -2.292  -4.228  -0.611  0.00  0.00    +0.030 C 
ATOM     15  C   LIG    1       -3.176  -4.805  -1.718  0.00  0.00    +0.020 C 
ENDBRANCH  11  14
ENDBRANCH   2   6
BRANCH   5  16
ATOM     16  C   LIG    1        0.992   4.733  -0.970  0.00  0.00    +0.270 A 
ATOM     17  C   LIG    1        0.270   5.925  -0.970  0.00  0.00    +0.100 A 
ATOM     18  C   LIG    1        0.864   7.045  -1.525  0.00  0.00    +0.060 A 
ATOM     19  C   LIG    1        2.148   6.912  -2.050  0.00  0.00    +0.260 A 
ATOM     20  N   LIG    1        2.759   5.739  -2.006  0.00  0.00    -0.270 NA
ATOM     21  N   LIG    1        2.210   4.702  -1.486  0.00  0.00    -0.200 NA
BRANCH  19  22
ATOM     22  O   LIG    1        2.771   7.982  -2.604  0.00  0.00    -0.290 OA
ATOM     23  C   LIG    1        4.087   7.771  -3.122  0.00  0.00    +0.280 C 
ENDBRANCH  19  22
ENDBRANCH   5  16
BRANCH   1  25
ATOM     24  C   LIG    1        3.154   1.748  -1.082  0.00  0.00    +0.060 C 
ATOM     25  C   LIG    1        1.792   1.891  -1.764  0.00  0.00    +0.110 C 
ENDBRANCH   1  25
TORSDOF 5
