REMARK  Name = ZINC65000000000i.0
REMARK                            x       y       z     vdW  Elec       q    Type
REMARK                         _______ _______ _______ _____ _____    ______ ____
ROOT
ATOM      1  C   LIG    1        1.631  -1.836  -0.023  0.00  0.00    +0.370 C 
ATOM      2  N   LIG    1        1.216  -0.432  -0.012  0.00  0.00    -0.300 N 
ATOM      3  C   LIG    1        2.043   0.640  -0.014  0.00  0.00    +0.140 A 
ATOM      4  C   LIG    1        1.244   1.732  -0.001  0.00  0.00    +0.140 A 
ATOM      5  N   LIG    1       -0.015   1.282   0.009  0.00  0.00    -0.270 NA
ATOM      6  N   LIG    1        0.002  -0.004   0.002  0.00  0.00    -0.090 NA
ENDROOT
TORSDOF 0
