REMARK  Name = ZINCpe00000FUh4J.0
REMARK                            x       y       z     vdW  Elec       q    Type
REMARK                         _______ _______ _______ _____ _____    ______ ____
ROOT
ATOM      1  C   LIG    1       -2.529   0.186  -1.154  0.00  0.00    +0.150 C 
ATOM      2  C   LIG    1       -3.616  -0.831  -0.725  0.00  0.00    +0.050 C 
ATOM      3  C   LIG    1       -3.325  -1.034   0.780  0.00  0.00    +0.190 C 
ATOM      4  C   LIG    1       -2.541   0.220   1.210  0.00  0.00    +0.190 C 
ATOM      5  F   LIG    1       -4.521  -1.129   1.499  0.00  0.00    -0.200 F 
ATOM      6  N   LIG    1       -2.427   1.091   0.020  0.00  0.00    -0.460 N 
ENDROOT
BRANCH   6   7
ATOM      7  C   LIG    1       -1.222   1.774   0.017  0.00  0.00    +0.420 A 
ATOM      8  C   LIG    1       -0.013   1.076   0.008  0.00  0.00    -0.210 A 
ATOM      9  C   LIG    1        1.165   1.798   0.001  0.00  0.00    +0.360 A 
ATOM     10  N   LIG    1        1.113   3.122   0.008  0.00  0.00    -0.580 NA
ATOM     11  C   LIG    1       -0.049   3.758   0.022  0.00  0.00    +0.580 A 
ATOM     12  N   LIG    1       -1.200   3.103   0.029  0.00  0.00    -0.520 NA
BRANCH  11  13
ATOM     13  N   LIG    1       -0.061   5.142   0.029  0.00  0.00    -0.590 N 
ATOM     14  C   LIG    1       -1.336   5.864   0.045  0.00  0.00    +0.300 C 
ATOM     15  C   LIG    1        1.201   5.885   0.022  0.00  0.00    +0.300 C 
ENDBRANCH  11  13
ENDBRANCH   6   7
BRANCH   1  16
ATOM     16  C   LIG    1       -2.975   0.961  -2.396  0.00  0.00    +0.200 C 
BRANCH  16  18
ATOM     17  C   LIG    1       -0.716   1.617  -2.971  0.00  0.00    +0.180 C 
ATOM     18  N   LIG    1       -2.063   2.090  -2.623  0.00  0.00    -0.530 NA
BRANCH  18  19
ATOM     19  C   LIG    1       -2.588   2.992  -3.656  0.00  0.00    +0.190 C 
BRANCH  19  20
ATOM     20  C   LIG    1       -1.750   4.271  -3.690  0.00  0.00    +0.050 C 
BRANCH  20  21
ATOM     21  C   LIG    1       -2.296   5.211  -4.767  0.00  0.00    -0.350 C 
BRANCH  21  22
ATOM     22  S   LIG    1       -1.303   6.728  -4.808  0.00  0.00    +2.420 S 
ATOM     23  O   LIG    1        0.013   6.396  -5.231  0.00  0.00    -0.940 OA
ATOM     24  O   LIG    1       -1.483   7.420  -3.579  0.00  0.00    -0.930 OA
ATOM     25  C   LIG    1       -2.114   7.672  -6.127  0.00  0.00    -0.270 C 
ENDBRANCH  21  22
ENDBRANCH  20  21
ENDBRANCH  19  20
ENDBRANCH  18  19
ENDBRANCH  16  18
ENDBRANCH   1  16
TORSDOF 8
