REMARK  Name = ZINCvU0000000AqX.0
REMARK                            x       y       z     vdW  Elec       q    Type
REMARK                         _______ _______ _______ _____ _____    ______ ____
ROOT
ATOM      1  C   LIG    1        1.960   3.329  -2.495  0.00  0.00    +0.000 C 
ATOM      2  C   LIG    1        2.406   2.036  -1.798  0.00  0.00    +0.210 C 
ATOM      3  N   LIG    1        1.110   1.446  -2.180  0.00  0.00    -0.420 N 
ATOM      4  C   LIG    1        1.087   2.377  -3.324  0.00  0.00    +0.200 C 
ENDROOT
BRANCH   3   5
ATOM      5  C   LIG    1        1.267   0.138  -2.608  0.00  0.00    +0.340 A 
ATOM      6  N   LIG    1        2.471  -0.421  -2.635  0.00  0.00    -0.540 NA
ATOM      7  C   LIG    1        2.622  -1.667  -3.043  0.00  0.00    +0.380 A 
ATOM      8  N   LIG    1        1.597  -2.396  -3.433  0.00  0.00    -0.520 NA
ATOM      9  C   LIG    1        0.359  -1.906  -3.431  0.00  0.00    +0.200 A 
ATOM     10  C   LIG    1       -0.766  -2.800  -3.877  0.00  0.00    +0.130 C 
ATOM     11  C   LIG    1       -2.001  -1.970  -4.225  0.00  0.00    +0.030 C 
ATOM     12  C   LIG    1       -2.298  -1.025  -3.055  0.00  0.00    -0.020 C 
ATOM     13  C   LIG    1       -3.654  -0.349  -3.272  0.00  0.00    +0.030 C 
ATOM     14  C   LIG    1       -1.199   0.035  -2.998  0.00  0.00    +0.110 C 
ATOM     15 CL   LIG    1        4.213  -2.362  -3.067  0.00  0.00    +0.030 Cl
ATOM     16  C   LIG    1        0.158  -0.612  -3.020  0.00  0.00    -0.170 A 
ENDBRANCH   3   5
BRANCH   1  22
ATOM     17  C   LIG    1        6.504   4.800  -3.135  0.00  0.00    +0.520 C 
ATOM     18  N   LIG    1        5.209   5.173  -3.114  0.00  0.00    -0.610 N 
ATOM     19  C   LIG    1        4.761   6.365  -3.847  0.00  0.00    +0.260 C 
ATOM     20  C   LIG    1        3.601   5.971  -4.767  0.00  0.00    +0.010 C 
ATOM     21  C   LIG    1        2.506   5.294  -3.940  0.00  0.00    +0.030 C 
ATOM     22  C   LIG    1        3.064   4.023  -3.295  0.00  0.00    -0.010 C 
ATOM     23  C   LIG    1        4.219   4.394  -2.358  0.00  0.00    +0.280 C 
ATOM     24  O   LIG    1        6.872   3.848  -2.479  0.00  0.00    -0.520 OA
BRANCH  17  25
ATOM     25  C   LIG    1        7.495   5.566  -3.973  0.00  0.00    -0.080 C 
ATOM     26  C   LIG    1        7.529   7.026  -3.515  0.00  0.00    +0.050 C 
ATOM     27  C   LIG    1        7.078   5.502  -5.443  0.00  0.00    +0.050 C 
BRANCH  25  28
ATOM     28  C   LIG    1        8.886   4.949  -3.809  0.00  0.00    +0.050 C 
BRANCH  28  30
ATOM     29  C   LIG    1        8.623   4.705  -1.337  0.00  0.00    +0.020 C 
ATOM     30  C   LIG    1        9.461   5.341  -2.447  0.00  0.00    -0.030 C 
ATOM     31  C   LIG    1       10.905   4.846  -2.342  0.00  0.00    +0.000 C 
ENDBRANCH  28  30
ENDBRANCH  25  28
ENDBRANCH  17  25
ENDBRANCH   1  22
TORSDOF 5
