REMARK  Name = ZINCqH0000002s5o.0
REMARK                            x       y       z     vdW  Elec       q    Type
REMARK                         _______ _______ _______ _____ _____    ______ ____
ROOT
ATOM      1  C   LIG    1       -4.115  -1.295   0.057  0.00  0.00    -0.080 C 
ATOM      2  C   LIG    1       -3.914  -0.460  -1.211  0.00  0.00    +0.070 C 
ATOM      3  C   LIG    1       -2.530   0.192  -1.172  0.00  0.00    +0.200 C 
ATOM      4  N   LIG    1       -2.421   1.043   0.019  0.00  0.00    -0.510 N 
ATOM      5  C   LIG    1       -2.564   0.255   1.250  0.00  0.00    +0.180 C 
ATOM      6  C   LIG    1       -5.521  -1.899   0.053  0.00  0.00    +0.050 C 
ATOM      7  C   LIG    1       -3.949  -0.394   1.284  0.00  0.00    +0.070 C 
ENDROOT
BRANCH   4   8
ATOM      8  C   LIG    1       -1.225   1.753   0.017  0.00  0.00    +0.150 A 
ATOM      9  C   LIG    1       -0.013   1.076   0.008  0.00  0.00    +0.000 A 
ATOM     10  C   LIG    1        1.174   1.781   0.000  0.00  0.00    +0.070 A 
ATOM     11  C   LIG    1        1.166   3.168   0.008  0.00  0.00    -0.040 A 
ATOM     12  C   LIG    1       -0.028   3.857   0.022  0.00  0.00    +0.090 A 
ATOM     13 CL   LIG    1        2.667   4.040  -0.001  0.00  0.00    -0.050 Cl
ATOM     14  C   LIG    1       -1.237   3.156   0.029  0.00  0.00    +0.010 A 
BRANCH  14  15
ATOM     15  C   LIG    1       -2.481   3.866   0.045  0.00  0.00    +0.260 C 
ATOM     16  N   LIG    1       -3.467   4.428   0.057  0.00  0.00    -0.400 NA
ENDBRANCH  14  15
ENDBRANCH   4   8
BRANCH   1  19
ATOM     17  N   LIG    1       -3.077  -3.265   1.133  0.00  0.00    -0.720 N 
ATOM     18  H   LIG    1       -3.726  -3.178   1.848  0.00  0.00    +0.400 HD
ATOM     19  C   LIG    1       -3.091  -2.399   0.100  0.00  0.00    +0.520 C 
ATOM     20  O   LIG    1       -2.279  -2.508  -0.794  0.00  0.00    -0.540 OA
BRANCH  17  21
ATOM     21  C   LIG    1       -2.081  -4.339   1.175  0.00  0.00    +0.280 C 
BRANCH  21  22
ATOM     22  C   LIG    1       -2.283  -5.172   2.442  0.00  0.00    +0.180 C 
BRANCH  22  23
ATOM     23  O   LIG    1       -3.548  -5.833   2.380  0.00  0.00    -0.390 OA
BRANCH  23  24
ATOM     24  C   LIG    1       -3.837  -6.643   3.522  0.00  0.00    +0.160 C 
BRANCH  24  25
ATOM     25  C   LIG    1       -5.209  -7.298   3.348  0.00  0.00    +0.020 C 
BRANCH  25  27
ATOM     26  C   LIG    1       -6.890  -8.821   4.396  0.00  0.00    +0.030 C 
ATOM     27  C   LIG    1       -5.518  -8.165   4.570  0.00  0.00    +0.000 C 
ENDBRANCH  25  27
ENDBRANCH  24  25
ENDBRANCH  23  24
ENDBRANCH  22  23
ENDBRANCH  21  22
ENDBRANCH  17  21
ENDBRANCH   1  19
TORSDOF 9
