REMARK  Name = ZINCtV000002FnBW.0
REMARK                            x       y       z     vdW  Elec       q    Type
REMARK                         _______ _______ _______ _____ _____    ______ ____
ROOT
ATOM      1  N   LIG    1        5.167   7.167  -0.010  0.00  0.00    -0.480 N 
ATOM      2  C   LIG    1        6.495   7.428  -0.021  0.00  0.00    +0.560 A 
ATOM      3  C   LIG    1        7.413   6.282  -0.035  0.00  0.00    -0.200 A 
ATOM      4  C   LIG    1        8.797   6.449  -0.047  0.00  0.00    +0.100 A 
ATOM      5  C   LIG    1        9.615   5.341  -0.059  0.00  0.00    +0.000 A 
ATOM      6  C   LIG    1        9.074   4.062  -0.060  0.00  0.00    +0.070 A 
ATOM      7  C   LIG    1        7.710   3.874  -0.049  0.00  0.00    +0.030 A 
ATOM      8  C   LIG    1        6.858   4.982  -0.036  0.00  0.00    +0.160 A 
ATOM      9  N   LIG    1        5.512   4.839  -0.019  0.00  0.00    -0.530 NA
ATOM     10  O   LIG    1        6.913   8.572  -0.018  0.00  0.00    -0.490 OA
ATOM     11  C   LIG    1        4.713   5.877  -0.012  0.00  0.00    +0.360 A 
ENDROOT
BRANCH   1  19
ATOM     12  C   LIG    1        4.263   8.197  -2.505  0.00  0.00    +0.110 C 
ATOM     13  C   LIG    1        3.784   8.759  -1.191  0.00  0.00    -0.040 A 
ATOM     14  C   LIG    1        2.880   9.803  -1.174  0.00  0.00    -0.030 A 
ATOM     15  C   LIG    1        2.439  10.319   0.033  0.00  0.00    +0.060 A 
ATOM     16  C   LIG    1        2.902   9.790   1.224  0.00  0.00    +0.050 A 
ATOM     17  C   LIG    1        3.802   8.743   1.212  0.00  0.00    +0.060 A 
ATOM     18 CL   LIG    1        2.296  10.470  -2.666  0.00  0.00    -0.050 Cl
ATOM     19  C   LIG    1        4.251   8.227   0.004  0.00  0.00    +0.100 A 
ENDBRANCH   1  19
BRANCH  11  20
ATOM     20  S   LIG    1        2.973   5.598   0.003  0.00  0.00    +0.080 S 
BRANCH  20  21
ATOM     21  C   LIG    1        2.945   3.789  -0.006  0.00  0.00    +0.100 C 
BRANCH  21  22
ATOM     22  C   LIG    1        1.516   3.309   0.005  0.00  0.00    +0.440 C 
ATOM     23  O   LIG    1        0.606   4.112   0.018  0.00  0.00    -0.430 OA
BRANCH  22  24
ATOM     24  C   LIG    1        1.237   1.926   0.001  0.00  0.00    -0.310 A 
ATOM     25  C   LIG    1       -0.017   1.367   0.010  0.00  0.00    +0.150 A 
ATOM     26  C   LIG    1        0.002  -0.004   0.002  0.00  0.00    +0.010 A 
ATOM     27  C   LIG    1        1.225  -0.557  -0.013  0.00  0.00    -0.160 A 
ATOM     28 CL   LIG    1        1.531  -2.266  -0.024  0.00  0.00    +0.000 Cl
ATOM     29  S   LIG    1        2.438   0.642  -0.018  0.00  0.00    +0.290 S 
ENDBRANCH  22  24
ENDBRANCH  21  22
ENDBRANCH  20  21
ENDBRANCH  11  20
TORSDOF 5
