REMARK  Name = ZINCpe000000XdMn.0
REMARK                            x       y       z     vdW  Elec       q    Type
REMARK                         _______ _______ _______ _____ _____    ______ ____
ROOT
ATOM      1  N   LIG    1        2.317   1.424   0.011  0.00  0.00    -0.680 N 
ATOM      2  H   LIG    1        2.314   0.457   0.082  0.00  0.00    +0.420 HD
ENDROOT
BRANCH   1   3
ATOM      3  C   LIG    1        1.139   2.112   0.013  0.00  0.00    +0.540 A 
ATOM      4  C   LIG    1        1.134   3.510   0.040  0.00  0.00    -0.320 A 
ATOM      5  C   LIG    1       -0.118   4.183   0.046  0.00  0.00    +0.590 A 
ATOM      6  N   LIG    1       -1.255   3.460   0.016  0.00  0.00    -0.560 N 
ATOM      7  C   LIG    1       -1.218   2.116  -0.010  0.00  0.00    +0.710 A 
ATOM      8  O   LIG    1       -2.263   1.495  -0.032  0.00  0.00    -0.520 OA
ATOM      9  C   LIG    1       -2.549   4.147   0.018  0.00  0.00    +0.350 C 
ATOM     10  O   LIG    1       -0.163   5.399   0.074  0.00  0.00    -0.510 OA
ATOM     11  N   LIG    1       -0.055   1.443  -0.012  0.00  0.00    -0.540 N 
ATOM     12  C   LIG    1       -0.065  -0.022  -0.040  0.00  0.00    +0.360 C 
BRANCH   4  13
ATOM     13  C   LIG    1        2.361   4.247   0.066  0.00  0.00    +0.300 C 
ATOM     14  N   LIG    1        3.335   4.831   0.087  0.00  0.00    -0.440 NA
ENDBRANCH   4  13
ENDBRANCH   1   3
BRANCH   1  15
ATOM     15  C   LIG    1        3.587   2.147  -0.099  0.00  0.00    +0.290 C 
BRANCH  15  17
ATOM     16  C   LIG    1        6.071   1.895  -0.194  0.00  0.00    +0.020 C 
ATOM     17  C   LIG    1        4.737   1.144  -0.205  0.00  0.00    +0.170 C 
BRANCH  17  18
ATOM     18  N   LIG    1        4.687   0.219   0.935  0.00  0.00    -0.490 N 
ATOM     19  C   LIG    1        5.712  -0.839   0.805  0.00  0.00    +0.230 C 
ATOM     20  C   LIG    1        6.893  -0.268   1.624  0.00  0.00    +0.060 C 
ATOM     21  C   LIG    1        6.204   0.659   2.606  0.00  0.00    -0.130 A 
ATOM     22  C   LIG    1        6.641   1.238   3.778  0.00  0.00    +0.030 A 
ATOM     23  C   LIG    1        5.795   2.056   4.505  0.00  0.00    +0.010 A 
ATOM     24  C   LIG    1        4.510   2.293   4.053  0.00  0.00    +0.030 A 
ATOM     25  C   LIG    1        4.069   1.718   2.880  0.00  0.00    +0.010 A 
ATOM     26  C   LIG    1        4.916   0.895   2.140  0.00  0.00    +0.080 A 
ENDBRANCH  17  18
ENDBRANCH  15  17
ENDBRANCH   1  15
TORSDOF 5
