REMARK  Name = ZINCvU00000004zT.0
REMARK                            x       y       z     vdW  Elec       q    Type
REMARK                         _______ _______ _______ _____ _____    ______ ____
ROOT
ATOM      1  C   LIG    1        0.675   8.425  -1.146  0.00  0.00    +0.580 C 
ATOM      2  N   LIG    1        0.697   9.770  -1.054  0.00  0.00    -0.660 N 
ATOM      3  H   LIG    1        0.626  10.197  -0.186  0.00  0.00    +0.410 HD
ATOM      4  O   LIG    1        0.806   7.888  -2.230  0.00  0.00    -0.510 OA
ENDROOT
BRANCH   2   5
ATOM      5  C   LIG    1        0.823  10.549  -2.210  0.00  0.00    +0.140 A 
ATOM      6  C   LIG    1        1.460  10.035  -3.330  0.00  0.00    +0.040 A 
ATOM      7  C   LIG    1        1.583  10.806  -4.471  0.00  0.00    +0.040 A 
ATOM      8  C   LIG    1        1.072  12.091  -4.499  0.00  0.00    +0.010 A 
ATOM      9  C   LIG    1        0.436  12.611  -3.387  0.00  0.00    +0.040 A 
ATOM     10  C   LIG    1        0.304  11.842  -2.241  0.00  0.00    +0.050 A 
BRANCH  10  11
ATOM     11  O   LIG    1       -0.326  12.350  -1.149  0.00  0.00    -0.250 OA
BRANCH  11  12
ATOM     12  C   LIG    1        0.441  12.788  -0.116  0.00  0.00    +0.110 A 
ATOM     13  C   LIG    1        1.823  12.807  -0.236  0.00  0.00    -0.070 A 
ATOM     14  C   LIG    1        2.600  13.257   0.813  0.00  0.00    +0.050 A 
ATOM     15  C   LIG    1        2.003  13.678   1.986  0.00  0.00    -0.020 A 
ATOM     16  C   LIG    1        0.626  13.655   2.111  0.00  0.00    +0.050 A 
ATOM     17  C   LIG    1       -0.156  13.211   1.062  0.00  0.00    -0.010 A 
ENDBRANCH  11  12
ENDBRANCH  10  11
ENDBRANCH   2   5
BRANCH   1  19
ATOM     18  C   LIG    1        0.471   6.233  -0.032  0.00  0.00    +0.260 C 
ATOM     19  C   LIG    1        0.494   7.608   0.063  0.00  0.00    -0.140 C 
BRANCH  18  23
ATOM     20  C   LIG    1       -0.429   3.892   3.387  0.00  0.00    +0.140 A 
ATOM     21  C   LIG    1       -1.006   5.147   3.234  0.00  0.00    -0.040 A 
ATOM     22  C   LIG    1       -0.717   5.911   2.126  0.00  0.00    +0.050 A 
ATOM     23  C   LIG    1        0.162   5.423   1.148  0.00  0.00    -0.110 A 
ATOM     24  C   LIG    1        0.747   4.159   1.307  0.00  0.00    +0.020 A 
ATOM     25  C   LIG    1        0.447   3.399   2.419  0.00  0.00    +0.100 A 
BRANCH  25  26
ATOM     26  O   LIG    1        1.010   2.171   2.574  0.00  0.00    -0.300 OA
ATOM     27  C   LIG    1        1.897   1.728   1.545  0.00  0.00    +0.240 C 
ENDBRANCH  25  26
BRANCH  20  28
ATOM     28  O   LIG    1       -0.718   3.144   4.482  0.00  0.00    -0.300 OA
BRANCH  28  30
ATOM     29  C   LIG    1       -1.824   2.728   6.590  0.00  0.00    +0.070 C 
ATOM     30  C   LIG    1       -1.622   3.709   5.434  0.00  0.00    +0.190 C 
ENDBRANCH  28  30
ENDBRANCH  20  28
ENDBRANCH  18  23
BRANCH  19  31
ATOM     31  C   LIG    1        0.340   8.240   1.338  0.00  0.00    +0.240 C 
ATOM     32  N   LIG    1        0.218   8.742   2.350  0.00  0.00    -0.390 NA
ENDBRANCH  19  31
ENDBRANCH   1  19
TORSDOF 9
