REMARK  Name = ZINCvU0000000GgW.0
REMARK                            x       y       z     vdW  Elec       q    Type
REMARK                         _______ _______ _______ _____ _____    ______ ____
ROOT
ATOM      1  C   LIG    1       -3.413  -3.749   0.015  0.00  0.00    +0.160 C 
ATOM      2  C   LIG    1       -2.740  -2.401   0.016  0.00  0.00    +0.020 A 
ATOM      3  C   LIG    1       -1.406  -2.168  -0.002  0.00  0.00    +0.000 A 
ATOM      4  C   LIG    1       -1.267  -0.760   0.010  0.00  0.00    -0.000 A 
ATOM      5  N   LIG    1       -2.482  -0.249   0.024  0.00  0.00    -0.260 NA
ATOM      6  N   LIG    1       -3.357  -1.190   0.027  0.00  0.00    -0.240 N 
ENDROOT
BRANCH   6   7
ATOM      7  C   LIG    1       -4.744  -0.997   0.041  0.00  0.00    +0.130 A 
ATOM      8  C   LIG    1       -5.576  -1.872  -0.645  0.00  0.00    +0.060 A 
ATOM      9  C   LIG    1       -6.943  -1.678  -0.629  0.00  0.00    +0.050 A 
ATOM     10  C   LIG    1       -7.485  -0.615   0.069  0.00  0.00    +0.090 A 
ATOM     11  C   LIG    1       -6.659   0.258   0.754  0.00  0.00    -0.170 A 
ATOM     12  C   LIG    1       -5.292   0.067   0.746  0.00  0.00    +0.100 A 
BRANCH  11  13
ATOM     13  C   LIG    1       -7.253   1.416   1.514  0.00  0.00    +0.510 C 
ATOM     14  F   LIG    1       -6.751   2.617   1.001  0.00  0.00    -0.170 F 
ATOM     15  F   LIG    1       -6.914   1.309   2.867  0.00  0.00    -0.170 F 
ATOM     16  F   LIG    1       -8.646   1.397   1.379  0.00  0.00    -0.170 F 
ENDBRANCH  11  13
ENDBRANCH   6   7
BRANCH   4  17
ATOM     17  C   LIG    1        0.002  -0.004   0.002  0.00  0.00    +0.610 C 
ATOM     18  N   LIG    1       -0.016   1.344   0.009  0.00  0.00    -0.710 N 
ATOM     19  H   LIG    1       -0.863   1.817   0.016  0.00  0.00    +0.410 HD
ATOM     20  O   LIG    1        1.063  -0.598  -0.011  0.00  0.00    -0.520 OA
BRANCH  18  21
ATOM     21  C   LIG    1        1.242   2.093   0.001  0.00  0.00    +0.410 C 
BRANCH  21  22
ATOM     22  C   LIG    1        1.021   3.453   0.611  0.00  0.00    -0.100 A 
ATOM     23  C   LIG    1       -0.135   4.158   0.329  0.00  0.00    +0.020 A 
ATOM     24  C   LIG    1       -0.340   5.403   0.892  0.00  0.00    +0.010 A 
ATOM     25  C   LIG    1        0.615   5.949   1.730  0.00  0.00    +0.020 A 
ATOM     26  C   LIG    1        1.772   5.247   2.008  0.00  0.00    +0.010 A 
ATOM     27  C   LIG    1        1.976   3.999   1.449  0.00  0.00    +0.030 A 
ENDBRANCH  21  22
BRANCH  21  28
ATOM     28  C   LIG    1        1.724   2.252  -1.418  0.00  0.00    -0.020 A 
ATOM     29  C   LIG    1        3.001   2.156  -1.831  0.00  0.00    -0.040 A 
ATOM     30  C   LIG    1        2.996   2.372  -3.228  0.00  0.00    -0.060 A 
ATOM     31  C   LIG    1        1.717   2.586  -3.585  0.00  0.00    +0.160 A 
ATOM     32  O   LIG    1        0.950   2.506  -2.486  0.00  0.00    -0.170 OA
ENDBRANCH  21  28
ENDBRANCH  18  21
ENDBRANCH   4  17
TORSDOF 6
