REMARK  Name = ZINCrH000004quK3.0
REMARK                            x       y       z     vdW  Elec       q    Type
REMARK                         _______ _______ _______ _____ _____    ______ ____
ROOT
ATOM      1  N   LIG    1        1.643  -1.857   2.272  0.00  0.00    -0.720 N 
ATOM      2  H   LIG    1        2.153  -2.490   1.742  0.00  0.00    +0.410 HD
ATOM      3  C   LIG    1        1.780  -0.534   2.059  0.00  0.00    +0.520 C 
ATOM      4  O   LIG    1        1.141   0.257   2.722  0.00  0.00    -0.530 OA
ENDROOT
BRANCH   1   5
ATOM      5  C   LIG    1        0.723  -2.342   3.305  0.00  0.00    +0.300 C 
BRANCH   5   8
ATOM      6  N   LIG    1       -0.015  -4.518   4.219  0.00  0.00    -0.670 N 
ATOM      7  H   LIG    1       -0.552  -4.031   4.864  0.00  0.00    +0.410 HD
ATOM      8  C   LIG    1        0.756  -3.848   3.340  0.00  0.00    +0.510 C 
ATOM      9  O   LIG    1        1.477  -4.457   2.578  0.00  0.00    -0.510 OA
BRANCH   6  14
ATOM     10  C   LIG    1       -0.125 -10.190   4.147  0.00  0.00    +0.090 C 
ATOM     11  C   LIG    1       -0.096  -8.683   4.167  0.00  0.00    -0.080 A 
ATOM     12  C   LIG    1        0.158  -8.013   5.349  0.00  0.00    +0.010 A 
ATOM     13  C   LIG    1        0.185  -6.632   5.370  0.00  0.00    -0.090 A 
ATOM     14  C   LIG    1       -0.043  -5.917   4.201  0.00  0.00    +0.130 A 
ATOM     15  C   LIG    1       -0.303  -6.593   3.017  0.00  0.00    -0.060 A 
ATOM     16  C   LIG    1       -0.556  -5.821   1.748  0.00  0.00    +0.080 C 
ATOM     17  C   LIG    1        0.463  -5.903   6.659  0.00  0.00    +0.080 C 
ATOM     18  C   LIG    1       -0.324  -7.974   3.001  0.00  0.00    +0.010 A 
ENDBRANCH   6  14
ENDBRANCH   5   8
ENDBRANCH   1   5
BRANCH   3  19
ATOM     19  C   LIG    1        2.725  -0.036   0.997  0.00  0.00    +0.120 C 
BRANCH  19  20
ATOM     20  C   LIG    1        2.692   1.471   0.961  0.00  0.00    -0.070 A 
ATOM     21  C   LIG    1        1.798   2.125   0.136  0.00  0.00    +0.010 A 
ATOM     22  C   LIG    1        1.772   3.505   0.110  0.00  0.00    +0.000 A 
ATOM     23  C   LIG    1        2.646   4.241   0.899  0.00  0.00    -0.070 A 
ATOM     24  C   LIG    1        2.577   5.743   0.808  0.00  0.00    +0.070 C 
ATOM     25  C   LIG    1        3.258   6.386   2.015  0.00  0.00    +0.020 C 
ATOM     26  C   LIG    1        4.655   5.774   2.165  0.00  0.00    +0.020 C 
ATOM     27  C   LIG    1        4.500   4.323   2.618  0.00  0.00    +0.070 C 
ATOM     28  C   LIG    1        3.537   3.589   1.722  0.00  0.00    -0.070 A 
ATOM     29  C   LIG    1        3.559   2.201   1.748  0.00  0.00    +0.020 A 
ENDBRANCH  19  20
ENDBRANCH   3  19
TORSDOF 5
