REMARK  Name = ZINCrD000000fP9A.0
REMARK                            x       y       z     vdW  Elec       q    Type
REMARK                         _______ _______ _______ _____ _____    ______ ____
ROOT
ATOM      1  C   LIG    1        2.656   3.330  -0.122  0.00  0.00    +0.060 A 
ATOM      2  C   LIG    1        3.355   2.156  -0.113  0.00  0.00    -0.030 A 
ATOM      3  C   LIG    1        2.417   1.121  -0.053  0.00  0.00    +0.060 A 
ATOM      4  C   LIG    1        1.173   1.711  -0.036  0.00  0.00    -0.070 A 
ATOM      5  O   LIG    1        1.343   3.049  -0.075  0.00  0.00    -0.160 OA
ENDROOT
BRANCH   1   9
ATOM      6  C   LIG    1        4.349   7.215  -0.270  0.00  0.00    -0.160 A 
ATOM      7  C   LIG    1        2.958   7.058  -0.225  0.00  0.00    +0.080 A 
ATOM      8  C   LIG    1        2.414   5.807  -0.177  0.00  0.00    +0.030 A 
ATOM      9  C   LIG    1        3.245   4.682  -0.173  0.00  0.00    +0.010 A 
ATOM     10  C   LIG    1        4.634   4.838  -0.213  0.00  0.00    +0.040 A 
ATOM     11  C   LIG    1        5.180   6.088  -0.267  0.00  0.00    +0.070 A 
BRANCH   6  13
ATOM     12  C   LIG    1        6.431   8.736  -0.248  0.00  0.00    +0.080 C 
ATOM     13  C   LIG    1        4.936   8.562  -0.322  0.00  0.00    +0.390 C 
ATOM     14  O   LIG    1        4.217   9.533  -0.424  0.00  0.00    -0.450 OA
ENDBRANCH   6  13
ENDBRANCH   1   9
BRANCH   4  15
ATOM     15  C   LIG    1       -0.114   1.008   0.021  0.00  0.00    +0.610 C 
ATOM     16  N   LIG    1       -1.265   1.709   0.033  0.00  0.00    -0.720 N 
ATOM     17  H   LIG    1       -1.242   2.678   0.007  0.00  0.00    +0.410 HD
ATOM     18  O   LIG    1       -0.141  -0.208   0.054  0.00  0.00    -0.510 OA
BRANCH  16  19
ATOM     19  C   LIG    1       -2.549   1.007   0.084  0.00  0.00    +0.420 C 
BRANCH  19  20
ATOM     20  C   LIG    1       -3.672   2.012   0.086  0.00  0.00    +0.150 A 
ATOM     21  N   LIG    1       -4.275   2.501  -0.963  0.00  0.00    -0.260 NA
ATOM     22  N   LIG    1       -5.184   3.332  -0.592  0.00  0.00    -0.290 NA
ATOM     23  C   LIG    1       -5.201   3.411   0.711  0.00  0.00    +0.190 A 
ATOM     24  C   LIG    1       -6.118   4.272   1.541  0.00  0.00    +0.200 C 
ATOM     25  N   LIG    1       -4.246   2.572   1.179  0.00  0.00    -0.440 N 
BRANCH  25  26
ATOM     26  C   LIG    1       -3.901   2.324   2.581  0.00  0.00    +0.180 C 
ATOM     27  C   LIG    1       -3.783   0.866   3.031  0.00  0.00    +0.060 C 
ATOM     28  C   LIG    1       -4.980   1.711   3.476  0.00  0.00    +0.070 C 
ENDBRANCH  25  26
ENDBRANCH  19  20
ENDBRANCH  16  19
ENDBRANCH   4  15
TORSDOF 6
