REMARK  Name = ZINCrH000008uzlu.0
REMARK                            x       y       z     vdW  Elec       q    Type
REMARK                         _______ _______ _______ _____ _____    ______ ____
ROOT
ATOM      1  C   LIG    1       -0.000  -0.000  -0.004  0.00  0.00    +0.200 A 
ATOM      2  C   LIG    1       -0.024   1.388  -0.006  0.00  0.00    -0.030 A 
ATOM      3  C   LIG    1        1.162   2.102  -0.020  0.00  0.00    +0.150 A 
ATOM      4  C   LIG    1        2.374   1.433  -0.033  0.00  0.00    -0.080 A 
ATOM      5  C   LIG    1        2.402   0.044  -0.031  0.00  0.00    +0.160 A 
ATOM      6  F   LIG    1        1.137   3.453  -0.022  0.00  0.00    -0.130 F 
ATOM      7  C   LIG    1        1.213  -0.673  -0.017  0.00  0.00    -0.040 A 
ENDROOT
BRANCH   5   8
ATOM      8  N   LIG    1        3.625  -0.630  -0.044  0.00  0.00    -0.490 N 
ATOM      9  C   LIG    1        3.732  -1.549   1.098  0.00  0.00    +0.180 C 
ATOM     10  C   LIG    1        5.058  -2.309   1.012  0.00  0.00    +0.160 C 
ATOM     11  O   LIG    1        6.137  -1.371   0.968  0.00  0.00    -0.380 OA
ATOM     12  C   LIG    1        6.065  -0.461  -0.133  0.00  0.00    +0.160 C 
ATOM     13  C   LIG    1        7.241   0.515  -0.066  0.00  0.00    +0.060 C 
ATOM     14  C   LIG    1        5.213  -3.209   2.239  0.00  0.00    +0.050 C 
ATOM     15  C   LIG    1        4.749   0.317  -0.058  0.00  0.00    +0.180 C 
ENDBRANCH   5   8
BRANCH   1  17
ATOM     16  C   LIG    1       -2.262  -0.248   0.691  0.00  0.00    +0.520 C 
ATOM     17  N   LIG    1       -1.200  -0.721   0.009  0.00  0.00    -0.670 N 
ATOM     18  H   LIG    1       -1.267  -1.560  -0.472  0.00  0.00    +0.420 HD
ATOM     19  O   LIG    1       -2.206   0.841   1.223  0.00  0.00    -0.510 OA
BRANCH  16  20
ATOM     20  C   LIG    1       -3.519  -1.072   0.793  0.00  0.00    +0.050 C 
BRANCH  20  21
ATOM     21  C   LIG    1       -4.563  -0.311   1.614  0.00  0.00    +0.130 C 
BRANCH  21  22
ATOM     22  C   LIG    1       -5.839  -1.148   1.717  0.00  0.00    +0.040 C 
ATOM     23  N   LIG    1       -5.742  -2.600   1.543  0.00  0.00    -0.120 NA
ATOM     24  N   LIG    1       -6.222  -1.987   0.578  0.00  0.00    -0.120 NA
BRANCH  22  25
ATOM     25  C   LIG    1       -6.942  -0.590   2.619  0.00  0.00    +0.120 C 
BRANCH  25  26
ATOM     26  C   LIG    1       -8.140  -1.543   2.609  0.00  0.00    +0.160 C 
BRANCH  26  28
ATOM     27  C   LIG    1      -10.047  -0.577   4.168  0.00  0.00    +0.030 C 
ATOM     28  C   LIG    1       -9.201  -1.006   3.476  0.00  0.00    -0.200 C 
ENDBRANCH  26  28
ENDBRANCH  25  26
ENDBRANCH  22  25
ENDBRANCH  21  22
ENDBRANCH  20  21
ENDBRANCH  16  20
ENDBRANCH   1  17
TORSDOF 8
