REMARK  Name = ZINCpk00000y6vuw.0
REMARK                            x       y       z     vdW  Elec       q    Type
REMARK                         _______ _______ _______ _____ _____    ______ ____
ROOT
ATOM      1  N   LIG    1        1.708   0.480  -2.018  0.00  0.00    -0.440 N 
ATOM      2  C   LIG    1        0.361   0.006  -1.702  0.00  0.00    +0.210 C 
ATOM      3  C   LIG    1       -0.050   0.230  -0.302  0.00  0.00    +0.040 C 
ATOM      4  C   LIG    1       -0.077   1.750  -0.002  0.00  0.00    +0.280 C 
ATOM      5  N   LIG    1        1.276   2.264   0.011  0.00  0.00    -0.600 N 
ATOM      6  C   LIG    1        1.954   2.770  -1.201  0.00  0.00    +0.280 C 
ATOM      7  C   LIG    1        1.947   2.282   1.179  0.00  0.00    +0.520 C 
ATOM      8  O   LIG    1        1.385   1.965   2.207  0.00  0.00    -0.510 OA
ATOM      9  C   LIG    1        1.678   1.871  -2.421  0.00  0.00    +0.200 C 
ENDROOT
BRANCH   1  11
ATOM     10  C   LIG    1        3.571  -0.134  -3.537  0.00  0.00    -0.070 A 
ATOM     11  C   LIG    1        2.297  -0.309  -2.998  0.00  0.00    +0.340 A 
ATOM     12  N   LIG    1        1.742  -1.361  -3.592  0.00  0.00    -0.520 NA
ATOM     13  C   LIG    1        2.588  -1.878  -4.480  0.00  0.00    +0.280 A 
ATOM     14  C   LIG    1        2.475  -2.979  -5.349  0.00  0.00    +0.070 A 
ATOM     15  C   LIG    1        3.516  -3.294  -6.170  0.00  0.00    +0.070 A 
ATOM     16  C   LIG    1        4.684  -2.519  -6.136  0.00  0.00    +0.030 A 
ATOM     17  C   LIG    1        4.775  -1.464  -5.294  0.00  0.00    +0.230 A 
ATOM     18  N   LIG    1        3.740  -1.143  -4.472  0.00  0.00    -0.330 N 
BRANCH  10  20
ATOM     19  N   LIG    1        5.267   1.692  -2.916  0.00  0.00    -0.400 NA
ATOM     20  C   LIG    1        4.517   0.884  -3.191  0.00  0.00    +0.290 C 
ENDBRANCH  10  20
ENDBRANCH   1  11
BRANCH   7  21
ATOM     21  C   LIG    1        3.395   2.697   1.210  0.00  0.00    +0.150 C 
ATOM     22  C   LIG    1        4.280   1.610   0.561  0.00  0.00    +0.020 C 
ATOM     23  C   LIG    1        5.563   1.607   1.421  0.00  0.00    +0.010 C 
ATOM     24  C   LIG    1        5.302   2.693   2.489  0.00  0.00    +0.200 C 
ATOM     25  O   LIG    1        3.862   2.791   2.574  0.00  0.00    -0.340 OA
ENDBRANCH   7  21
TORSDOF 3
