REMARK  Name = ZINCrH00000tj105.0
REMARK                            x       y       z     vdW  Elec       q    Type
REMARK                         _______ _______ _______ _____ _____    ______ ____
ROOT
ATOM      1  C   LIG    1        6.285  -4.725  -0.118  0.00  0.00    +0.520 C 
ATOM      2  N   LIG    1        6.479  -6.059  -0.117  0.00  0.00    -0.720 N 
ATOM      3  H   LIG    1        5.717  -6.660  -0.109  0.00  0.00    +0.410 HD
ATOM      4  O   LIG    1        7.237  -3.974  -0.129  0.00  0.00    -0.530 OA
ENDROOT
BRANCH   1   5
ATOM      5  C   LIG    1        4.885  -4.167  -0.106  0.00  0.00    +0.060 C 
BRANCH   5   6
ATOM      6  C   LIG    1        4.946  -2.638  -0.110  0.00  0.00    +0.060 C 
BRANCH   6   7
ATOM      7  C   LIG    1        3.525  -2.071  -0.098  0.00  0.00    +0.180 C 
BRANCH   7   8
ATOM      8  O   LIG    1        3.581  -0.644  -0.101  0.00  0.00    -0.300 OA
BRANCH   8  14
ATOM      9  C   LIG    1        2.376   1.413  -0.094  0.00  0.00    +0.100 A 
ATOM     10  C   LIG    1        1.165   2.086  -0.084  0.00  0.00    -0.040 A 
ATOM     11  C   LIG    1       -0.021   1.375  -0.072  0.00  0.00    +0.010 A 
ATOM     12  C   LIG    1       -0.002  -0.007  -0.069  0.00  0.00    +0.010 A 
ATOM     13  C   LIG    1        1.204  -0.685  -0.078  0.00  0.00    -0.040 A 
ATOM     14  C   LIG    1        2.395   0.021  -0.091  0.00  0.00    +0.100 A 
BRANCH   9  15
ATOM     15  O   LIG    1        3.543   2.111  -0.106  0.00  0.00    -0.300 OA
BRANCH  15  17
ATOM     16  C   LIG    1        4.851   4.143  -0.123  0.00  0.00    +0.070 C 
ATOM     17  C   LIG    1        3.446   3.537  -0.109  0.00  0.00    +0.170 C 
ENDBRANCH  15  17
ENDBRANCH   9  15
ENDBRANCH   8  14
ENDBRANCH   7   8
ENDBRANCH   6   7
ENDBRANCH   5   6
ENDBRANCH   1   5
BRANCH   2  18
ATOM     18  C   LIG    1        7.839  -6.602  -0.129  0.00  0.00    +0.320 C 
BRANCH  18  19
ATOM     19  C   LIG    1        7.779  -8.108  -0.126  0.00  0.00    +0.510 C 
ATOM     20  N   LIG    1        8.919  -8.827  -0.135  0.00  0.00    -0.670 N 
ATOM     21  H   LIG    1        9.776  -8.378  -0.210  0.00  0.00    +0.420 HD
ATOM     22  O   LIG    1        6.706  -8.672  -0.115  0.00  0.00    -0.510 OA
BRANCH  20  23
ATOM     23  C   LIG    1        8.867 -10.222  -0.037  0.00  0.00    +0.170 A 
ATOM     24  C   LIG    1        7.820 -10.922  -0.622  0.00  0.00    +0.030 A 
ATOM     25  C   LIG    1        7.771 -12.299  -0.523  0.00  0.00    +0.060 A 
ATOM     26  C   LIG    1        8.762 -12.981   0.158  0.00  0.00    +0.010 A 
ATOM     27  C   LIG    1        9.807 -12.288   0.742  0.00  0.00    +0.070 A 
ATOM     28  C   LIG    1        9.865 -10.911   0.641  0.00  0.00    -0.120 A 
ATOM     29 BR   LIG    1       11.297  -9.964   1.433  0.00  0.00    -0.040 Br
ENDBRANCH  20  23
ENDBRANCH  18  19
ENDBRANCH   2  18
TORSDOF 10
