REMARK  Name = ZINCvU00000006gT.0
REMARK                            x       y       z     vdW  Elec       q    Type
REMARK                         _______ _______ _______ _____ _____    ______ ____
ROOT
ATOM      1  C   LIG    1       -5.380   7.858   0.553  0.00  0.00    -0.680 A 
ATOM      2  C   LIG    1       -6.526   7.084   0.503  0.00  0.00    +0.160 A 
ATOM      3  C   LIG    1       -6.435   5.712   0.349  0.00  0.00    +0.000 A 
ATOM      4  C   LIG    1       -5.200   5.107   0.238  0.00  0.00    +0.100 A 
ATOM      5  C   LIG    1       -4.040   5.882   0.293  0.00  0.00    -0.160 A 
ATOM      6  C   LIG    1       -4.138   7.266   0.449  0.00  0.00    +0.200 A 
ENDROOT
BRANCH   5   7
ATOM      7  C   LIG    1       -2.713   5.240   0.181  0.00  0.00    +0.560 C 
ATOM      8  N   LIG    1       -2.621   3.904   0.031  0.00  0.00    -0.660 N 
ATOM      9  H   LIG    1       -3.425   3.371  -0.069  0.00  0.00    +0.410 HD
ATOM     10  O   LIG    1       -1.704   5.918   0.225  0.00  0.00    -0.510 OA
BRANCH   8  11
ATOM     11  C   LIG    1       -1.364   3.286   0.018  0.00  0.00    +0.140 A 
ATOM     12  C   LIG    1       -0.276   3.934  -0.545  0.00  0.00    +0.060 A 
ATOM     13  C   LIG    1        0.964   3.321  -0.557  0.00  0.00    -0.040 A 
ATOM     14  C   LIG    1        1.123   2.061  -0.008  0.00  0.00    +0.050 A 
ATOM     15  C   LIG    1        0.042   1.408   0.556  0.00  0.00    +0.000 A 
ATOM     16 CL   LIG    1        2.326   4.135  -1.262  0.00  0.00    -0.060 Cl
ATOM     17  C   LIG    1       -1.206   2.013   0.567  0.00  0.00    +0.080 A 
BRANCH  17  18
ATOM     18  N   LIG    1       -2.301   1.351   1.132  0.00  0.00    -0.470 N 
ATOM     19  C   LIG    1       -1.876   0.101   1.812  0.00  0.00    +0.180 C 
ATOM     20  C   LIG    1       -3.047  -0.192   2.783  0.00  0.00    +0.040 C 
ATOM     21  C   LIG    1       -3.459   1.219   3.262  0.00  0.00    +0.020 C 
ATOM     22  C   LIG    1       -2.941   2.180   2.177  0.00  0.00    +0.180 C 
ENDBRANCH  17  18
ENDBRANCH   8  11
ENDBRANCH   5   7
BRANCH   1  23
ATOM     23  S   LIG    1       -5.507   9.604   0.750  0.00  0.00    +2.690 S 
ATOM     24  O   LIG    1       -4.273  10.036   1.307  0.00  0.00    -0.950 OA
ATOM     25  O   LIG    1       -6.765   9.849   1.364  0.00  0.00    -0.950 OA
BRANCH  23  26
ATOM     26  N   LIG    1       -5.591  10.263  -0.767  0.00  0.00    -0.990 NA
BRANCH  26  27
ATOM     27  C   LIG    1       -6.893  10.460  -1.409  0.00  0.00    +0.280 C 
BRANCH  27  29
ATOM     28  C   LIG    1       -8.735  12.095  -1.829  0.00  0.00    +0.030 C 
ATOM     29  C   LIG    1       -7.375  11.890  -1.159  0.00  0.00    -0.010 C 
ENDBRANCH  27  29
ENDBRANCH  26  27
BRANCH  26  30
ATOM     30  C   LIG    1       -4.364  10.650  -1.467  0.00  0.00    +0.300 C 
BRANCH  30  31
ATOM     31  C   LIG    1       -3.919   9.509  -2.385  0.00  0.00    -0.020 C 
ATOM     32  C   LIG    1       -2.637   9.913  -3.116  0.00  0.00    +0.030 C 
ENDBRANCH  30  31
ENDBRANCH  26  30
ENDBRANCH  23  26
ENDBRANCH   1  23
TORSDOF 9
