REMARK  Name = ZINCrH00000No4U3.0
REMARK                            x       y       z     vdW  Elec       q    Type
REMARK                         _______ _______ _______ _____ _____    ______ ____
ROOT
ATOM      1  N   LIG    1        1.160   2.288   0.033  0.00  0.00    -0.600 N 
ATOM      2  C   LIG    1        0.079   1.530  -0.237  0.00  0.00    +0.560 C 
ATOM      3  O   LIG    1       -1.028   2.032  -0.248  0.00  0.00    -0.510 OA
ATOM      4  C   LIG    1        2.502   1.710  -0.062  0.00  0.00    +0.300 C 
ENDROOT
BRANCH   2   5
ATOM      5  C   LIG    1        0.240   0.089  -0.525  0.00  0.00    -0.120 A 
ATOM      6  C   LIG    1       -0.693  -0.837  -0.057  0.00  0.00    +0.340 A 
ATOM      7  N   LIG    1       -0.551  -2.120  -0.312  0.00  0.00    -0.410 NA
ATOM      8  C   LIG    1        0.466  -2.583  -1.014  0.00  0.00    +0.030 A 
ATOM      9  C   LIG    1        1.435  -1.730  -1.515  0.00  0.00    +0.100 A 
ATOM     10  F   LIG    1        2.471  -2.218  -2.232  0.00  0.00    -0.110 F 
ATOM     11  C   LIG    1        1.328  -0.369  -1.278  0.00  0.00    +0.100 A 
BRANCH   8  12
ATOM     12  C   LIG    1        0.575  -4.064  -1.274  0.00  0.00    +0.520 C 
ATOM     13  F   LIG    1        1.713  -4.567  -0.635  0.00  0.00    -0.160 F 
ATOM     14  F   LIG    1        0.674  -4.289  -2.651  0.00  0.00    -0.160 F 
ATOM     15  F   LIG    1       -0.562  -4.709  -0.776  0.00  0.00    -0.150 F 
ENDBRANCH   8  12
ENDBRANCH   2   5
BRANCH   1  16
ATOM     16  C   LIG    1        0.992   3.691   0.421  0.00  0.00    +0.300 C 
BRANCH  16  17
ATOM     17  C   LIG    1        0.863   3.787   1.943  0.00  0.00    +0.120 C 
BRANCH  17  20
ATOM     18  C   LIG    1        1.429   7.213   3.030  0.00  0.00    +0.050 A 
ATOM     19  N   LIG    1        1.699   5.992   2.715  0.00  0.00    -0.460 NA
ATOM     20  C   LIG    1        0.690   5.230   2.342  0.00  0.00    +0.070 A 
ATOM     21  C   LIG    1       -0.498   5.840   2.353  0.00  0.00    -0.070 A 
ATOM     22  S   LIG    1       -0.249   7.504   2.877  0.00  0.00    +0.130 S 
BRANCH  18  23
ATOM     23  C   LIG    1        2.444   8.235   3.474  0.00  0.00    +0.100 C 
ATOM     24  C   LIG    1        2.432   9.420   2.507  0.00  0.00    +0.060 C 
BRANCH  23  25
ATOM     25  C   LIG    1        2.095   8.722   4.882  0.00  0.00    +0.170 C 
BRANCH  25  27
ATOM     26  C   LIG    1        2.889  10.116   6.663  0.00  0.00    +0.200 C 
ATOM     27  O   LIG    1        3.119   9.601   5.350  0.00  0.00    -0.390 OA
ENDBRANCH  25  27
ENDBRANCH  23  25
ENDBRANCH  18  23
ENDBRANCH  17  20
ENDBRANCH  16  17
ENDBRANCH   1  16
TORSDOF 8
