REMARK  Name = ZINCpk00000eb7i1.0
REMARK                            x       y       z     vdW  Elec       q    Type
REMARK                         _______ _______ _______ _____ _____    ______ ____
ROOT
ATOM      1  C   LIG    1       -2.611   1.290   2.726  0.00  0.00    -0.010 C 
ATOM      2  C   LIG    1       -2.804   2.809   2.751  0.00  0.00    +0.020 C 
ATOM      3  C   LIG    1       -1.452   3.491   2.523  0.00  0.00    +0.030 C 
ATOM      4  C   LIG    1       -0.866   3.018   1.190  0.00  0.00    +0.180 C 
ATOM      5  N   LIG    1       -0.700   1.560   1.217  0.00  0.00    -0.510 NA
ATOM      6  C   LIG    1       -1.991   0.881   1.388  0.00  0.00    +0.180 C 
ENDROOT
BRANCH   5   7
ATOM      7  C   LIG    1       -0.013   1.086   0.008  0.00  0.00    +0.190 C 
ATOM      8  C   LIG    1       -0.753   1.593  -1.232  0.00  0.00    +0.020 C 
BRANCH   7   9
ATOM      9  C   LIG    1        1.401   1.607  -0.003  0.00  0.00    +0.510 C 
ATOM     10  N   LIG    1        2.226   1.299  -1.023  0.00  0.00    -0.640 N 
ATOM     11  H   LIG    1        1.909   0.741  -1.751  0.00  0.00    +0.420 HD
ATOM     12  O   LIG    1        1.797   2.305   0.907  0.00  0.00    -0.440 OA
BRANCH  10  13
ATOM     13  C   LIG    1        3.529   1.780  -1.033  0.00  0.00    +0.540 A 
ATOM     14  N   LIG    1        3.943   2.544  -0.035  0.00  0.00    -0.500 NA
ATOM     15  C   LIG    1        5.179   3.015  -0.011  0.00  0.00    +0.350 A 
ATOM     16  C   LIG    1        6.040   2.707  -1.052  0.00  0.00    -0.110 A 
ATOM     17  C   LIG    1        5.572   1.908  -2.084  0.00  0.00    +0.350 A 
ATOM     18  N   LIG    1        4.326   1.466  -2.043  0.00  0.00    -0.550 NA
ENDBRANCH  10  13
ENDBRANCH   7   9
ENDBRANCH   5   7
BRANCH   1  19
ATOM     19  C   LIG    1       -3.966   0.600   2.894  0.00  0.00    +0.330 C 
BRANCH  19  23
ATOM     20  C   LIG    1       -6.426   2.815   6.663  0.00  0.00    +0.190 C 
ATOM     21  C   LIG    1       -5.578   1.871   5.850  0.00  0.00    +0.220 A 
ATOM     22  N   LIG    1       -5.330   1.982   4.572  0.00  0.00    -0.320 NA
ATOM     23  N   LIG    1       -4.505   0.900   4.223  0.00  0.00    -0.370 N 
ATOM     24  C   LIG    1       -4.314   0.191   5.349  0.00  0.00    +0.280 A 
ATOM     25  C   LIG    1       -3.496  -1.069   5.473  0.00  0.00    +0.190 C 
ATOM     26  N   LIG    1       -4.959   0.787   6.318  0.00  0.00    -0.540 NA
ENDBRANCH  19  23
ENDBRANCH   1  19
TORSDOF 5
