REMARK  Name = ZINCqH0000037YgE.2
REMARK                            x       y       z     vdW  Elec       q    Type
REMARK                         _______ _______ _______ _____ _____    ______ ____
ROOT
ATOM      1  N   LIG    1        4.612   7.709  -1.096  0.00  0.00    -0.510 NA
ATOM      2  C   LIG    1        3.380   7.324  -1.831  0.00  0.00    +0.170 C 
ATOM      3  C   LIG    1        3.446   8.192  -3.112  0.00  0.00    +0.050 C 
ATOM      4  C   LIG    1        4.029   9.527  -2.596  0.00  0.00    -0.030 C 
ATOM      5  C   LIG    1        4.755   9.169  -1.286  0.00  0.00    +0.190 C 
ENDROOT
BRANCH   4   6
ATOM      6  C   LIG    1        5.004  10.096  -3.595  0.00  0.00    -0.060 A 
ATOM      7  C   LIG    1        6.006   9.298  -4.114  0.00  0.00    +0.010 A 
ATOM      8  C   LIG    1        6.897   9.819  -5.034  0.00  0.00    +0.000 A 
ATOM      9  C   LIG    1        6.792  11.140  -5.427  0.00  0.00    +0.000 A 
ATOM     10  C   LIG    1        5.793  11.939  -4.904  0.00  0.00    +0.000 A 
ATOM     11  C   LIG    1        4.899  11.417  -3.988  0.00  0.00    +0.020 A 
ENDBRANCH   4   6
BRANCH   1  12
ATOM     12  C   LIG    1        4.502   7.371   0.329  0.00  0.00    +0.290 C 
BRANCH  12  15
ATOM     13  C   LIG    1        2.924   4.130   0.600  0.00  0.00    +0.240 A 
ATOM     14  N   LIG    1        2.867   5.431   0.441  0.00  0.00    -0.470 NA
ATOM     15  C   LIG    1        4.115   5.922   0.474  0.00  0.00    -0.010 A 
ATOM     16  C   LIG    1        4.959   4.891   0.658  0.00  0.00    +0.170 A 
ATOM     17  O   LIG    1        4.212   3.772   0.743  0.00  0.00    -0.200 OA
BRANCH  13  22
ATOM     18  C   LIG    1       -1.584   0.554   0.686  0.00  0.00    +0.100 C 
ATOM     19  C   LIG    1       -0.404   1.491   0.667  0.00  0.00    -0.060 A 
ATOM     20  C   LIG    1        0.876   0.989   0.826  0.00  0.00    +0.010 A 
ATOM     21  C   LIG    1        1.962   1.841   0.803  0.00  0.00    +0.050 A 
ATOM     22  C   LIG    1        1.766   3.211   0.626  0.00  0.00    -0.030 A 
ATOM     23  C   LIG    1        0.472   3.711   0.472  0.00  0.00    +0.070 A 
ATOM     24  C   LIG    1       -0.605   2.849   0.496  0.00  0.00    +0.010 A 
ENDBRANCH  13  22
ENDBRANCH  12  15
ENDBRANCH   1  12
BRANCH   4  25
ATOM     25  C   LIG    1        2.905  10.528  -2.323  0.00  0.00    +0.190 C 
BRANCH  25  26
ATOM     26  O   LIG    1        2.244  10.848  -3.549  0.00  0.00    -0.560 OA
ATOM     27  H   LIG    1        1.518  11.479  -3.451  0.00  0.00    +0.380 HD
ENDBRANCH  25  26
ENDBRANCH   4  25
TORSDOF 6
