REMARK  Name = ZINCpk00000jhDiV.0
REMARK                            x       y       z     vdW  Elec       q    Type
REMARK                         _______ _______ _______ _____ _____    ______ ____
ROOT
ATOM      1  C   LIG    1        3.917   0.957  -0.786  0.00  0.00    +0.580 C 
ATOM      2  N   LIG    1        4.877   0.021  -0.924  0.00  0.00    -0.620 N 
ATOM      3  C   LIG    1        4.538  -1.410  -0.967  0.00  0.00    +0.300 C 
ATOM      4  C   LIG    1        5.225  -2.030  -2.194  0.00  0.00    +0.250 C 
ATOM      5  N   LIG    1        6.665  -1.749  -2.139  0.00  0.00    -0.380 N 
ATOM      6  C   LIG    1        7.217  -2.244  -0.872  0.00  0.00    +0.250 C 
ATOM      7  C   LIG    1        8.734  -2.046  -0.862  0.00  0.00    -0.090 C 
ATOM      8  C   LIG    1        9.050  -0.554  -1.011  0.00  0.00    +0.060 C 
ATOM      9  C   LIG    1        8.403  -0.031  -2.296  0.00  0.00    +0.060 C 
ATOM     10  C   LIG    1        6.897  -0.303  -2.249  0.00  0.00    +0.160 C 
ATOM     11  H   LIG    1        7.120  -2.219  -2.908  0.00  0.00    +0.420 HD
ATOM     12  C   LIG    1        6.294   0.402  -1.028  0.00  0.00    +0.340 C 
ATOM     13  O   LIG    1        4.203   2.136  -0.852  0.00  0.00    -0.500 OA
ENDROOT
BRANCH   1  18
ATOM     14  C   LIG    1        0.884  -0.880   0.459  0.00  0.00    +0.090 A 
ATOM     15  C   LIG    1       -0.099  -0.140  -0.183  0.00  0.00    +0.280 A 
ATOM     16  N   LIG    1        0.216   0.878  -0.961  0.00  0.00    -0.440 NA
ATOM     17  C   LIG    1        1.466   1.239  -1.164  0.00  0.00    +0.290 A 
ATOM     18  C   LIG    1        2.514   0.548  -0.555  0.00  0.00    -0.150 A 
ATOM     19  C   LIG    1        2.218  -0.537   0.276  0.00  0.00    +0.000 A 
BRANCH  14  20
ATOM     20  O   LIG    1        0.546  -1.923   1.262  0.00  0.00    -0.300 OA
BRANCH  20  22
ATOM     21  C   LIG    1        1.079  -3.307   3.170  0.00  0.00    +0.070 C 
ATOM     22  C   LIG    1        1.614  -2.610   1.917  0.00  0.00    +0.140 C 
ATOM     23  C   LIG    1        2.208  -3.652   0.968  0.00  0.00    +0.030 C 
ENDBRANCH  20  22
ENDBRANCH  14  20
ENDBRANCH   1  18
BRANCH   7  24
ATOM     24  C   LIG    1        9.299  -2.551   0.441  0.00  0.00    +0.500 C 
ATOM     25  O   LIG    1        9.157  -3.721   0.754  0.00  0.00    -0.680 OA
ATOM     26  O   LIG    1        9.899  -1.791   1.181  0.00  0.00    -0.670 OA
ENDBRANCH   7  24
TORSDOF 4
