REMARK  Name = ZINCpk00000jhDiV.1
REMARK                            x       y       z     vdW  Elec       q    Type
REMARK                         _______ _______ _______ _____ _____    ______ ____
ROOT
ATOM      1  C   LIG    1        0.277   1.473  -0.390  0.00  0.00    +0.580 C 
ATOM      2  N   LIG    1        0.254   0.218   0.101  0.00  0.00    -0.620 N 
ATOM      3  C   LIG    1        1.472  -0.412   0.638  0.00  0.00    +0.310 C 
ATOM      4  C   LIG    1        1.140  -0.938   2.041  0.00  0.00    +0.250 C 
ATOM      5  N   LIG    1       -0.007  -1.857   1.966  0.00  0.00    -0.380 N 
ATOM      6  C   LIG    1       -0.218  -2.421   3.308  0.00  0.00    +0.260 C 
ATOM      7  C   LIG    1       -1.364  -3.432   3.283  0.00  0.00    -0.080 C 
ATOM      8  C   LIG    1       -2.643  -2.715   2.838  0.00  0.00    +0.060 C 
ATOM      9  C   LIG    1       -2.406  -2.088   1.463  0.00  0.00    +0.060 C 
ATOM     10  C   LIG    1       -1.206  -1.138   1.523  0.00  0.00    +0.150 C 
ATOM     11  H   LIG    1        0.200  -2.601   1.315  0.00  0.00    +0.430 HD
ATOM     12  C   LIG    1       -0.985  -0.571   0.114  0.00  0.00    +0.330 C 
ATOM     13  O   LIG    1       -0.726   1.951  -0.883  0.00  0.00    -0.510 OA
ENDROOT
BRANCH   1  18
ATOM     14  C   LIG    1        2.676   4.353  -0.129  0.00  0.00    +0.090 A 
ATOM     15  C   LIG    1        3.870   3.655  -0.245  0.00  0.00    +0.270 A 
ATOM     16  N   LIG    1        3.879   2.344  -0.395  0.00  0.00    -0.440 NA
ATOM     17  C   LIG    1        2.767   1.641  -0.443  0.00  0.00    +0.250 A 
ATOM     18  C   LIG    1        1.524   2.266  -0.335  0.00  0.00    -0.150 A 
ATOM     19  C   LIG    1        1.476   3.656  -0.180  0.00  0.00    +0.040 A 
BRANCH  14  20
ATOM     20  O   LIG    1        2.681   5.703   0.026  0.00  0.00    -0.300 OA
BRANCH  20  22
ATOM     21  C   LIG    1        1.540   7.693   0.787  0.00  0.00    +0.070 C 
ATOM     22  C   LIG    1        1.411   6.358   0.051  0.00  0.00    +0.140 C 
ATOM     23  C   LIG    1        0.939   6.609  -1.383  0.00  0.00    +0.030 C 
ENDBRANCH  20  22
ENDBRANCH  14  20
ENDBRANCH   1  18
BRANCH   7  24
ATOM     24  C   LIG    1       -1.039  -4.540   2.314  0.00  0.00    +0.480 C 
ATOM     25  O   LIG    1       -1.929  -5.061   1.663  0.00  0.00    -0.660 OA
ATOM     26  O   LIG    1        0.113  -4.916   2.182  0.00  0.00    -0.690 OA
ENDBRANCH   7  24
TORSDOF 4
