REMARK  Name = ZINCvU0000000H4q.0
REMARK                            x       y       z     vdW  Elec       q    Type
REMARK                         _______ _______ _______ _____ _____    ______ ____
ROOT
ATOM      1  C   LIG    1       -2.271   1.423  -2.829  0.00  0.00    +0.130 A 
ATOM      2  N   LIG    1       -1.706   0.896  -1.780  0.00  0.00    -0.450 NA
ATOM      3  C   LIG    1       -0.742   1.585  -1.213  0.00  0.00    +0.070 A 
ATOM      4  C   LIG    1       -0.444   2.754  -1.789  0.00  0.00    -0.040 A 
ATOM      5  S   LIG    1       -1.510   2.973  -3.175  0.00  0.00    +0.110 S 
ENDROOT
BRANCH   1   9
ATOM      6  C   LIG    1       -5.437  -0.331  -5.061  0.00  0.00    +0.130 A 
ATOM      7  C   LIG    1       -4.920  -0.990  -3.955  0.00  0.00    -0.040 A 
ATOM      8  C   LIG    1       -3.893  -0.424  -3.229  0.00  0.00    +0.080 A 
ATOM      9  C   LIG    1       -3.372   0.815  -3.606  0.00  0.00    -0.040 A 
ATOM     10  C   LIG    1       -3.896   1.481  -4.715  0.00  0.00    -0.010 A 
ATOM     11  C   LIG    1       -4.921   0.906  -5.442  0.00  0.00    +0.100 A 
BRANCH  11  12
ATOM     12  O   LIG    1       -5.430   1.549  -6.527  0.00  0.00    -0.300 OA
ATOM     13  C   LIG    1       -4.854   2.813  -6.861  0.00  0.00    +0.240 C 
ENDBRANCH  11  12
BRANCH   6  14
ATOM     14  O   LIG    1       -6.449  -0.893  -5.774  0.00  0.00    -0.300 OA
BRANCH  14  16
ATOM     15  C   LIG    1       -8.059  -2.632  -6.246  0.00  0.00    +0.070 C 
ATOM     16  C   LIG    1       -6.930  -2.163  -5.327  0.00  0.00    +0.170 C 
ENDBRANCH  14  16
ENDBRANCH   6  14
ENDBRANCH   1   9
BRANCH   3  17
ATOM     17  C   LIG    1       -0.013   1.086   0.008  0.00  0.00    +0.210 C 
BRANCH  17  18
ATOM     18  S   LIG    1       -0.860   1.669   1.497  0.00  0.00    +0.030 S 
BRANCH  18  19
ATOM     19  C   LIG    1        0.174   0.961   2.735  0.00  0.00    +0.370 A 
ATOM     20  N   LIG    1        1.209   0.243   2.370  0.00  0.00    -0.510 NA
ATOM     21  C   LIG    1        2.034  -0.318   3.277  0.00  0.00    +0.090 A 
ATOM     22  C   LIG    1        1.785  -0.145   4.637  0.00  0.00    -0.230 A 
ATOM     23  C   LIG    1        2.768  -0.821   5.462  0.00  0.00    -0.030 A 
ATOM     24  C   LIG    1        3.704  -1.466   4.793  0.00  0.00    -0.200 A 
ATOM     25  C   LIG    1        4.827  -2.239   5.433  0.00  0.00    +0.150 C 
ATOM     26  C   LIG    1        2.723  -0.790   6.968  0.00  0.00    +0.120 C 
ATOM     27  C   LIG    1        0.651   0.635   5.015  0.00  0.00    +0.560 A 
ATOM     28  O   LIG    1        0.389   0.816   6.192  0.00  0.00    -0.510 OA
ATOM     29  S   LIG    1        3.473  -1.307   3.062  0.00  0.00    +0.200 S 
ATOM     30  N   LIG    1       -0.124   1.167   4.051  0.00  0.00    -0.520 N 
ATOM     31  C   LIG    1       -1.293   1.971   4.416  0.00  0.00    +0.330 C 
ENDBRANCH  18  19
ENDBRANCH  17  18
ENDBRANCH   3  17
TORSDOF 7
