REMARK  Name = ZINCrD00000F5LFP.0
REMARK                            x       y       z     vdW  Elec       q    Type
REMARK                         _______ _______ _______ _____ _____    ______ ____
ROOT
ATOM      1  C   LIG    1        6.047   8.930  -0.503  0.00  0.00    +0.560 C 
ATOM      2  N   LIG    1        5.687   7.728  -0.012  0.00  0.00    -0.720 N 
ATOM      3  H   LIG    1        6.362   7.123   0.334  0.00  0.00    +0.410 HD
ATOM      4  O   LIG    1        5.201   9.689  -0.936  0.00  0.00    -0.540 OA
ENDROOT
BRANCH   1   6
ATOM      5  C   LIG    1        7.817  10.527  -1.005  0.00  0.00    +0.140 C 
ATOM      6  C   LIG    1        7.456   9.323  -0.514  0.00  0.00    -0.100 C 
BRANCH   5  10
ATOM      7  C   LIG    1       11.903  11.666  -1.037  0.00  0.00    +0.140 A 
ATOM      8  C   LIG    1       10.938  12.535  -1.534  0.00  0.00    -0.020 A 
ATOM      9  C   LIG    1        9.611  12.170  -1.526  0.00  0.00    +0.090 A 
ATOM     10  C   LIG    1        9.233  10.922  -1.017  0.00  0.00    -0.120 A 
ATOM     11  C   LIG    1       10.209  10.053  -0.513  0.00  0.00    +0.070 A 
ATOM     12  C   LIG    1       11.534  10.426  -0.530  0.00  0.00    -0.080 A 
BRANCH   7  14
ATOM     13  C   LIG    1       14.150  11.091  -0.521  0.00  0.00    +0.240 C 
ATOM     14  O   LIG    1       13.210  12.031  -1.046  0.00  0.00    -0.310 OA
ENDBRANCH   7  14
ENDBRANCH   5  10
ENDBRANCH   1   6
BRANCH   2  15
ATOM     15  C   LIG    1        4.276   7.335  -0.001  0.00  0.00    +0.290 C 
ATOM     16  C   LIG    1        3.603   7.886   1.258  0.00  0.00    +0.070 C 
BRANCH  15  17
ATOM     17  C   LIG    1        4.173   5.831  -0.007  0.00  0.00    +0.460 C 
ATOM     18  O   LIG    1        5.176   5.157  -0.020  0.00  0.00    -0.500 OA
BRANCH  17  19
ATOM     19  O   LIG    1        2.968   5.240   0.001  0.00  0.00    -0.330 OA
BRANCH  19  20
ATOM     20  C   LIG    1        2.945   3.789  -0.006  0.00  0.00    +0.240 C 
BRANCH  20  21
ATOM     21  C   LIG    1        1.516   3.309   0.005  0.00  0.00    +0.430 C 
ATOM     22  O   LIG    1        0.606   4.112   0.018  0.00  0.00    -0.420 OA
BRANCH  21  23
ATOM     23  C   LIG    1        1.237   1.926   0.001  0.00  0.00    -0.310 A 
ATOM     24  C   LIG    1       -0.017   1.367   0.010  0.00  0.00    +0.150 A 
ATOM     25  C   LIG    1        0.002  -0.004   0.002  0.00  0.00    +0.020 A 
ATOM     26  C   LIG    1        1.225  -0.557  -0.013  0.00  0.00    -0.150 A 
ATOM     27 CL   LIG    1        1.531  -2.266  -0.024  0.00  0.00    +0.010 Cl
ATOM     28  S   LIG    1        2.438   0.642  -0.018  0.00  0.00    +0.280 S 
ENDBRANCH  21  23
ENDBRANCH  20  21
ENDBRANCH  19  20
ENDBRANCH  17  19
ENDBRANCH  15  17
ENDBRANCH   2  15
TORSDOF 9
