REMARK  Name = ZINCqH0000002YMc.0
REMARK                            x       y       z     vdW  Elec       q    Type
REMARK                         _______ _______ _______ _____ _____    ______ ____
ROOT
ATOM      1  C   LIG    1       -3.007   0.611   3.079  0.00  0.00    -0.690 A 
ATOM      2  C   LIG    1       -4.306   1.079   3.122  0.00  0.00    +0.160 A 
ATOM      3  C   LIG    1       -4.819   1.597   4.296  0.00  0.00    -0.060 A 
ATOM      4  C   LIG    1       -4.029   1.647   5.434  0.00  0.00    +0.160 A 
ATOM      5  C   LIG    1       -2.722   1.177   5.390  0.00  0.00    +0.050 A 
ATOM      6  F   LIG    1       -1.948   1.224   6.497  0.00  0.00    -0.120 F 
ATOM      7  C   LIG    1       -2.216   0.655   4.213  0.00  0.00    +0.140 A 
ENDROOT
BRANCH   1   8
ATOM      8  S   LIG    1       -2.358  -0.049   1.580  0.00  0.00    +2.690 S 
ATOM      9  O   LIG    1       -1.293  -0.914   1.950  0.00  0.00    -0.950 OA
ATOM     10  O   LIG    1       -3.475  -0.476   0.813  0.00  0.00    -0.950 OA
BRANCH   8  11
ATOM     11  N   LIG    1       -1.672   1.208   0.748  0.00  0.00    -0.990 NA
BRANCH  11  12
ATOM     12  C   LIG    1       -2.476   1.986  -0.198  0.00  0.00    +0.250 C 
ATOM     13  C   LIG    1       -1.918   1.806  -1.611  0.00  0.00    +0.020 C 
ATOM     14  C   LIG    1       -2.758   2.618  -2.598  0.00  0.00    +0.020 C 
ATOM     15  C   LIG    1       -2.707   4.099  -2.214  0.00  0.00    +0.000 C 
ATOM     16  C   LIG    1       -3.265   4.278  -0.801  0.00  0.00    +0.010 C 
ATOM     17  C   LIG    1       -2.425   3.466   0.186  0.00  0.00    +0.010 C 
ENDBRANCH  11  12
BRANCH  11  19
ATOM     18  C   LIG    1        0.596   0.806  -0.076  0.00  0.00    +0.020 C 
ATOM     19  C   LIG    1       -0.261   1.541   0.957  0.00  0.00    +0.280 C 
ENDBRANCH  11  19
ENDBRANCH   8  11
ENDBRANCH   1   8
BRANCH   4  20
ATOM     20  O   LIG    1       -4.531   2.155   6.590  0.00  0.00    -0.290 OA
BRANCH  20  21
ATOM     21  C   LIG    1       -5.854   2.693   6.542  0.00  0.00    +0.160 C 
ATOM     22  C   LIG    1       -5.803   4.135   6.027  0.00  0.00    -0.010 C 
ATOM     23  C   LIG    1       -7.214   4.729   6.055  0.00  0.00    +0.220 C 
ATOM     24  O   LIG    1       -7.733   4.661   7.385  0.00  0.00    -0.380 OA
ATOM     25  C   LIG    1       -7.848   3.333   7.899  0.00  0.00    +0.230 C 
ATOM     26  C   LIG    1       -6.463   2.684   7.948  0.00  0.00    +0.030 C 
ENDBRANCH  20  21
ENDBRANCH   4  20
TORSDOF 6
