REMARK  Name = ZINCrD000000BoyC.0
REMARK                            x       y       z     vdW  Elec       q    Type
REMARK                         _______ _______ _______ _____ _____    ______ ____
ROOT
ATOM      1  O   LIG    1        0.023   3.388  -3.124  0.00  0.00    -0.580 OA
ATOM      2  C   LIG    1       -0.519   3.859  -2.143  0.00  0.00    +0.710 C 
ATOM      3  N   LIG    1       -0.893   3.055  -1.128  0.00  0.00    -0.630 N 
ATOM      4  C   LIG    1       -0.759   1.594  -1.234  0.00  0.00    +0.320 C 
ATOM      5  C   LIG    1       -0.015   1.082   0.004  0.00  0.00    +0.220 C 
ATOM      6  N   LIG    1       -0.699   1.557   1.214  0.00  0.00    -0.430 N 
ATOM      7  C   LIG    1       -0.674   3.023   1.299  0.00  0.00    +0.210 C 
ATOM      8  C   LIG    1       -1.445   3.615   0.115  0.00  0.00    +0.300 C 
ATOM      9  N   LIG    1       -0.746   5.185  -2.071  0.00  0.00    -0.740 N 
ATOM     10  H   LIG    1       -1.112   5.571  -1.260  0.00  0.00    +0.400 HD
ENDROOT
BRANCH   6  11
ATOM     11  C   LIG    1       -0.152   0.983   2.352  0.00  0.00    +0.230 A 
ATOM     12  N   LIG    1        0.835   0.134   2.386  0.00  0.00    -0.300 NA
ATOM     13  N   LIG    1        1.206  -0.287   3.515  0.00  0.00    -0.170 NA
ATOM     14  C   LIG    1        0.582   0.151   4.560  0.00  0.00    -0.120 A 
ATOM     15  S   LIG    1       -0.662   1.277   4.016  0.00  0.00    +0.180 S 
BRANCH  14  16
ATOM     16  C   LIG    1        0.872  -0.228   5.990  0.00  0.00    +0.570 C 
ATOM     17  F   LIG    1       -0.225  -0.914   6.521  0.00  0.00    -0.160 F 
ATOM     18  F   LIG    1        1.106   0.929   6.741  0.00  0.00    -0.160 F 
ATOM     19  F   LIG    1        2.003  -1.050   6.035  0.00  0.00    -0.150 F 
ENDBRANCH  14  16
ENDBRANCH   6  11
BRANCH   9  20
ATOM     20  C   LIG    1       -0.440   6.045  -3.217  0.00  0.00    +0.350 C 
BRANCH  20  21
ATOM     21  C   LIG    1       -0.783   7.473  -2.880  0.00  0.00    -0.080 A 
ATOM     22  C   LIG    1        0.169   8.294  -2.304  0.00  0.00    +0.040 A 
ATOM     23  C   LIG    1       -0.144   9.605  -1.995  0.00  0.00    +0.070 A 
ATOM     24  C   LIG    1       -1.409  10.096  -2.261  0.00  0.00    -0.070 A 
ATOM     25  C   LIG    1       -2.363   9.273  -2.838  0.00  0.00    +0.110 A 
ATOM     26  F   LIG    1       -3.600   9.751  -3.098  0.00  0.00    -0.120 F 
ATOM     27 CL   LIG    1       -1.802  11.741  -1.871  0.00  0.00    -0.040 Cl
ATOM     28  C   LIG    1       -2.047   7.962  -3.151  0.00  0.00    +0.030 A 
ENDBRANCH  20  21
ENDBRANCH   9  20
TORSDOF 4
