REMARK  Name = ZINCpe000000SzVf.0
REMARK                            x       y       z     vdW  Elec       q    Type
REMARK                         _______ _______ _______ _____ _____    ______ ____
ROOT
ATOM      1  S   LIG    1       -1.083   1.806   5.215  0.00  0.00    +2.710 S 
ATOM      2  O   LIG    1       -1.724   2.894   5.867  0.00  0.00    -0.930 OA
ATOM      3  O   LIG    1        0.304   1.528   5.349  0.00  0.00    -0.950 OA
ENDROOT
BRANCH   1  11
ATOM      4  C   LIG    1       -2.827   2.981  -2.844  0.00  0.00    +0.110 C 
ATOM      5  C   LIG    1       -2.869   3.010  -1.338  0.00  0.00    +0.520 C 
ATOM      6  N   LIG    1       -1.920   2.372  -0.625  0.00  0.00    -0.560 N 
ATOM      7  C   LIG    1       -0.803   1.618  -1.199  0.00  0.00    +0.280 C 
ATOM      8  C   LIG    1       -0.013   1.086   0.008  0.00  0.00    +0.110 C 
ATOM      9  C   LIG    1       -0.767   1.596   1.215  0.00  0.00    -0.160 A 
ATOM     10  C   LIG    1       -0.533   1.437   2.565  0.00  0.00    +0.160 A 
ATOM     11  C   LIG    1       -1.385   2.011   3.491  0.00  0.00    -0.700 A 
ATOM     12  C   LIG    1       -2.475   2.745   3.061  0.00  0.00    +0.150 A 
ATOM     13  C   LIG    1       -2.714   2.907   1.713  0.00  0.00    +0.000 A 
ATOM     14  C   LIG    1       -1.859   2.331   0.772  0.00  0.00    +0.200 A 
ATOM     15  O   LIG    1       -3.757   3.609  -0.767  0.00  0.00    -0.510 OA
ENDBRANCH   1  11
BRANCH   1  16
ATOM     16  N   LIG    1       -1.883   0.437   5.693  0.00  0.00    -0.990 NA
ATOM     17  C   LIG    1       -1.326  -0.928   5.694  0.00  0.00    +0.280 C 
ATOM     18  C   LIG    1       -2.560  -1.860   5.608  0.00  0.00    +0.040 C 
ATOM     19  C   LIG    1       -3.588  -1.098   6.486  0.00  0.00    +0.050 C 
ATOM     20  C   LIG    1       -3.264   0.383   6.194  0.00  0.00    +0.240 C 
BRANCH  20  21
ATOM     21  C   LIG    1       -3.384   1.195   7.457  0.00  0.00    +0.500 C 
ATOM     22  N   LIG    1       -4.571   1.285   8.091  0.00  0.00    -0.620 N 
ATOM     23  C   LIG    1       -5.743   0.593   7.551  0.00  0.00    +0.280 C 
ATOM     24  C   LIG    1       -4.687   2.075   9.319  0.00  0.00    +0.300 C 
ATOM     25  O   LIG    1       -2.413   1.769   7.904  0.00  0.00    -0.510 OA
ENDBRANCH  20  21
ENDBRANCH   1  16
TORSDOF 3
