REMARK  Name = ZINCvU00000006mW.0
REMARK                            x       y       z     vdW  Elec       q    Type
REMARK                         _______ _______ _______ _____ _____    ______ ____
ROOT
ATOM      1  C   LIG    1       -0.013   1.086   0.008  0.00  0.00    +0.000 C 
ATOM      2  C   LIG    1       -0.729   1.579   1.267  0.00  0.00    +0.100 C 
ENDROOT
BRANCH   1   3
ATOM      3  C   LIG    1       -0.742   1.585  -1.213  0.00  0.00    +0.460 C 
ATOM      4  O   LIG    1       -0.381   2.607  -1.759  0.00  0.00    -0.450 OA
BRANCH   3   5
ATOM      5  C   LIG    1       -1.885   0.837  -1.740  0.00  0.00    -0.260 A 
ATOM      6  C   LIG    1       -2.654   1.159  -2.843  0.00  0.00    +0.130 A 
ATOM      7  N   LIG    1       -3.601   0.212  -2.984  0.00  0.00    -0.390 N 
ATOM      8  C   LIG    1       -3.481  -0.732  -2.003  0.00  0.00    +0.020 A 
ATOM      9  C   LIG    1       -4.366  -1.941  -1.841  0.00  0.00    +0.130 C 
ATOM     10  C   LIG    1       -2.464   2.361  -3.732  0.00  0.00    +0.150 C 
ATOM     11  C   LIG    1       -2.445  -0.413  -1.209  0.00  0.00    +0.000 A 
BRANCH   7  12
ATOM     12  C   LIG    1       -4.572   0.197  -3.995  0.00  0.00    +0.100 A 
ATOM     13  C   LIG    1       -5.538   1.193  -4.047  0.00  0.00    +0.020 A 
ATOM     14  C   LIG    1       -6.490   1.178  -5.048  0.00  0.00    +0.020 A 
ATOM     15  C   LIG    1       -6.489   0.166  -5.990  0.00  0.00    +0.020 A 
ATOM     16  C   LIG    1       -5.532  -0.831  -5.937  0.00  0.00    +0.020 A 
ATOM     17  C   LIG    1       -4.574  -0.818  -4.942  0.00  0.00    +0.020 A 
ENDBRANCH   7  12
ENDBRANCH   3   5
ENDBRANCH   1   3
BRANCH   1  18
ATOM     18  S   LIG    1        1.685   1.712  -0.005  0.00  0.00    +0.110 S 
BRANCH  18  22
ATOM     19  C   LIG    1        3.642   0.168   2.969  0.00  0.00    +0.220 A 
ATOM     20  N   LIG    1        2.457  -0.374   3.116  0.00  0.00    -0.240 NA
ATOM     21  N   LIG    1        1.673   0.053   2.188  0.00  0.00    -0.280 NA
ATOM     22  C   LIG    1        2.330   0.877   1.406  0.00  0.00    +0.120 A 
ATOM     23  O   LIG    1        3.587   0.971   1.883  0.00  0.00    -0.200 OA
BRANCH  19  29
ATOM     24  C   LIG    1        4.731  -0.918   4.933  0.00  0.00    +0.180 A 
ATOM     25  C   LIG    1        5.843  -1.128   5.731  0.00  0.00    -0.070 A 
ATOM     26  C   LIG    1        7.031  -0.481   5.448  0.00  0.00    +0.080 A 
ATOM     27  C   LIG    1        7.121   0.374   4.364  0.00  0.00    -0.020 A 
ATOM     28  C   LIG    1        6.024   0.589   3.555  0.00  0.00    +0.100 A 
ATOM     29  C   LIG    1        4.819  -0.058   3.831  0.00  0.00    -0.060 A 
BRANCH  24  31
ATOM     30  C   LIG    1        3.546  -2.410   6.353  0.00  0.00    +0.250 C 
ATOM     31  O   LIG    1        3.561  -1.548   5.213  0.00  0.00    -0.290 OA
ENDBRANCH  24  31
ENDBRANCH  19  29
ENDBRANCH  18  22
ENDBRANCH   1  18
TORSDOF 7
