REMARK  Name = ZINCpk000004ANOs.0
REMARK                            x       y       z     vdW  Elec       q    Type
REMARK                         _______ _______ _______ _____ _____    ______ ____
ROOT
ATOM      1  C   LIG    1       -1.481   7.169  -1.767  0.00  0.00    +0.520 C 
ATOM      2  N   LIG    1       -0.490   8.078  -1.860  0.00  0.00    -0.720 N 
ATOM      3  H   LIG    1        0.268   8.032  -1.257  0.00  0.00    +0.410 HD
ATOM      4  O   LIG    1       -2.430   7.226  -2.521  0.00  0.00    -0.520 OA
ENDROOT
BRANCH   2   5
ATOM      5  C   LIG    1       -0.559   9.134  -2.873  0.00  0.00    +0.290 C 
ATOM      6  C   LIG    1        0.856   9.522  -3.264  0.00  0.00    +0.090 C 
ATOM      7  C   LIG    1        0.797  10.583  -4.374  0.00  0.00    -0.300 C 
ATOM      8  S   LIG    1        0.211  12.124  -3.607  0.00  0.00    +2.490 S 
ATOM      9  C   LIG    1       -1.138  11.600  -2.596  0.00  0.00    -0.630 A 
ATOM     10  C   LIG    1       -1.964  12.577  -2.058  0.00  0.00    +0.110 A 
ATOM     11  C   LIG    1       -3.015  12.234  -1.233  0.00  0.00    +0.010 A 
ATOM     12  C   LIG    1       -3.244  10.902  -0.944  0.00  0.00    +0.060 A 
ATOM     13  C   LIG    1       -2.430   9.932  -1.485  0.00  0.00    +0.010 A 
ATOM     14  O   LIG    1        1.172  12.620  -2.684  0.00  0.00    -0.930 OA
ATOM     15  O   LIG    1       -0.384  12.973  -4.578  0.00  0.00    -0.930 OA
ATOM     16  C   LIG    1       -1.370  10.271  -2.325  0.00  0.00    -0.020 A 
ENDBRANCH   2   5
BRANCH   1  21
ATOM     17  C   LIG    1       -1.300   2.044   0.019  0.00  0.00    +0.550 C 
ATOM     18  N   LIG    1       -1.320   3.387   0.128  0.00  0.00    -0.610 N 
ATOM     19  C   LIG    1       -0.068   4.156   0.135  0.00  0.00    +0.290 C 
ATOM     20  C   LIG    1       -0.154   5.239  -0.952  0.00  0.00    +0.030 C 
ATOM     21  C   LIG    1       -1.411   6.082  -0.725  0.00  0.00    -0.010 C 
ATOM     22  C   LIG    1       -2.651   5.192  -0.833  0.00  0.00    +0.060 C 
ATOM     23  C   LIG    1       -2.593   4.109   0.250  0.00  0.00    +0.280 C 
ATOM     24  O   LIG    1       -2.343   1.426  -0.075  0.00  0.00    -0.540 OA
BRANCH  17  26
ATOM     25  C   LIG    1        0.002  -0.004   0.007  0.00  0.00    +0.140 C 
ATOM     26  C   LIG    1       -0.016   1.325   0.014  0.00  0.00    -0.090 C 
ENDBRANCH  17  26
ENDBRANCH   1  21
TORSDOF 3
