REMARK  Name = ZINCpk00000e9YOD.0
REMARK                            x       y       z     vdW  Elec       q    Type
REMARK                         _______ _______ _______ _____ _____    ______ ____
ROOT
ATOM      1  C   LIG    1        2.689   4.033  -0.002  0.00  0.00    +0.330 C 
ATOM      2  C   LIG    1        2.748   5.536  -0.118  0.00  0.00    -0.090 A 
ATOM      3  C   LIG    1        2.390   6.103  -1.334  0.00  0.00    -0.020 A 
ATOM      4  C   LIG    1        2.414   7.476  -1.503  0.00  0.00    +0.100 A 
ATOM      5  C   LIG    1        2.799   8.291  -0.444  0.00  0.00    +0.110 A 
ATOM      6  C   LIG    1        3.157   7.721   0.764  0.00  0.00    -0.030 A 
ATOM      7  C   LIG    1        3.136   6.341   0.929  0.00  0.00    -0.060 A 
ATOM      8  C   LIG    1        3.552   5.795   2.269  0.00  0.00    +0.080 C 
ATOM      9  C   LIG    1        3.033   4.371   2.462  0.00  0.00    +0.280 C 
ATOM     10  N   LIG    1        3.342   3.608   1.241  0.00  0.00    -0.610 N 
ATOM     11  C   LIG    1        4.191   2.561   1.265  0.00  0.00    +0.540 C 
ATOM     12  O   LIG    1        4.429   1.950   0.244  0.00  0.00    -0.480 OA
ENDROOT
BRANCH  11  13
ATOM     13  C   LIG    1        4.845   2.151   2.559  0.00  0.00    +0.120 C 
ATOM     14  O   LIG    1        4.800   0.768   2.918  0.00  0.00    -0.320 OA
ATOM     15  C   LIG    1        3.944   1.624   3.677  0.00  0.00    +0.120 C 
ATOM     16  C   LIG    1        4.344   1.935   5.121  0.00  0.00    +0.080 C 
ENDBRANCH  11  13
BRANCH   5  17
ATOM     17  O   LIG    1        2.823   9.643  -0.595  0.00  0.00    -0.300 OA
ATOM     18  C   LIG    1        3.228  10.415   0.537  0.00  0.00    +0.250 C 
ENDBRANCH   5  17
BRANCH   4  19
ATOM     19  O   LIG    1        2.063   8.024  -2.697  0.00  0.00    -0.300 OA
ATOM     20  C   LIG    1        1.680   7.123  -3.738  0.00  0.00    +0.240 C 
ENDBRANCH   4  19
BRANCH   1  21
ATOM     21  C   LIG    1        1.228   3.579   0.010  0.00  0.00    +0.110 C 
BRANCH  21  22
ATOM     22  C   LIG    1        1.170   2.073   0.002  0.00  0.00    +0.440 C 
ATOM     23  O   LIG    1        2.192   1.429  -0.011  0.00  0.00    -0.470 OA
BRANCH  22  25
ATOM     24  C   LIG    1        0.002  -0.004   0.002  0.00  0.00    +0.260 C 
ATOM     25  O   LIG    1       -0.018   1.448   0.010  0.00  0.00    -0.360 OA
ENDBRANCH  22  25
ENDBRANCH  21  22
ENDBRANCH   1  21
TORSDOF 6
