REMARK  Name = ZINCvU0000000FbW.0
REMARK                            x       y       z     vdW  Elec       q    Type
REMARK                         _______ _______ _______ _____ _____    ______ ____
ROOT
ATOM      1  C   LIG    1        1.211   3.577   0.010  0.00  0.00    +0.520 C 
ATOM      2  O   LIG    1        2.272   4.162   0.095  0.00  0.00    -0.480 OA
ENDROOT
BRANCH   1   3
ATOM      3  C   LIG    1        1.182   2.099   0.002  0.00  0.00    -0.070 A 
ATOM      4  C   LIG    1       -0.017   1.402   0.023  0.00  0.00    +0.060 A 
ATOM      5  C   LIG    1        0.002  -0.004   0.015  0.00  0.00    +0.230 A 
ATOM      6  N   LIG    1        1.127  -0.692  -0.012  0.00  0.00    -0.440 NA
ATOM      7  C   LIG    1        2.324  -0.101  -0.034  0.00  0.00    +0.130 A 
ATOM      8  C   LIG    1        3.507  -0.862  -0.063  0.00  0.00    +0.050 A 
ATOM      9  C   LIG    1        4.714  -0.232  -0.084  0.00  0.00    +0.040 A 
ATOM     10  C   LIG    1        4.799   1.158  -0.077  0.00  0.00    +0.030 A 
ATOM     11  C   LIG    1        3.673   1.927  -0.050  0.00  0.00    +0.050 A 
ATOM     12  C   LIG    1        2.417   1.313  -0.028  0.00  0.00    -0.060 A 
BRANCH   5  13
ATOM     13  C   LIG    1       -1.279  -0.735   0.037  0.00  0.00    -0.170 A 
ATOM     14  C   LIG    1       -1.411  -2.078   0.027  0.00  0.00    +0.070 A 
ATOM     15  C   LIG    1       -2.712  -2.529   0.058  0.00  0.00    +0.010 A 
ATOM     16  C   LIG    1       -3.645  -1.570   0.082  0.00  0.00    -0.030 A 
ATOM     17  S   LIG    1       -2.872   0.010   0.074  0.00  0.00    +0.140 S 
ENDBRANCH   5  13
ENDBRANCH   1   3
BRANCH   1  18
ATOM     18  O   LIG    1        0.062   4.274  -0.076  0.00  0.00    -0.350 OA
BRANCH  18  19
ATOM     19  C   LIG    1        0.167   5.722  -0.063  0.00  0.00    +0.320 C 
BRANCH  19  25
ATOM     20  C   LIG    1       -2.005  12.012  -0.206  0.00  0.00    +0.120 C 
ATOM     21  C   LIG    1       -1.795  10.520  -0.196  0.00  0.00    -0.030 A 
ATOM     22  C   LIG    1       -0.510  10.008  -0.099  0.00  0.00    +0.000 A 
ATOM     23  C   LIG    1       -0.302   8.647  -0.088  0.00  0.00    +0.080 A 
ATOM     24  C   LIG    1       -1.395   7.781  -0.176  0.00  0.00    -0.150 A 
ATOM     25  C   LIG    1       -1.210   6.326  -0.167  0.00  0.00    +0.010 A 
ATOM     26  C   LIG    1       -2.312   5.539  -0.261  0.00  0.00    -0.050 A 
ATOM     27  C   LIG    1       -3.590   6.130  -0.354  0.00  0.00    +0.510 A 
ATOM     28  O   LIG    1       -3.752   7.462  -0.360  0.00  0.00    -0.270 OA
ATOM     29  O   LIG    1       -4.571   5.413  -0.433  0.00  0.00    -0.450 OA
ATOM     30  C   LIG    1       -2.698   8.301  -0.275  0.00  0.00    +0.160 A 
ATOM     31  C   LIG    1       -2.884   9.678  -0.284  0.00  0.00    +0.020 A 
ENDBRANCH  19  25
ENDBRANCH  18  19
ENDBRANCH   1  18
TORSDOF 5
