REMARK  Name = ZINCrD00000hQ5Ou.0
REMARK                            x       y       z     vdW  Elec       q    Type
REMARK                         _______ _______ _______ _____ _____    ______ ____
ROOT
ATOM      1  C   LIG    1        0.050   2.175   2.454  0.00  0.00    +0.250 C 
ATOM      2  C   LIG    1       -0.074   3.599   2.987  0.00  0.00    +0.010 C 
ATOM      3  C   LIG    1        1.028   4.015   3.868  0.00  0.00    +0.010 C 
ATOM      4  C   LIG    1        1.063   3.132   5.139  0.00  0.00    +0.260 C 
ATOM      5  N   LIG    1        1.517   1.803   4.794  0.00  0.00    -0.610 N 
ATOM      6  C   LIG    1        0.593   0.719   4.409  0.00  0.00    +0.270 C 
ATOM      7  C   LIG    1        2.840   1.544   4.824  0.00  0.00    +0.510 C 
ATOM      8  O   LIG    1        3.248   0.438   4.539  0.00  0.00    -0.540 OA
ATOM      9  C   LIG    1       -0.518   1.211   3.465  0.00  0.00    +0.020 C 
ENDROOT
BRANCH   1  10
ATOM     10  N   LIG    1       -0.692   2.058   1.196  0.00  0.00    -0.610 N 
ATOM     11  C   LIG    1       -2.017   2.301   1.169  0.00  0.00    +0.590 C 
ATOM     12  O   LIG    1       -2.577   2.725   2.162  0.00  0.00    -0.530 OA
BRANCH  11  13
ATOM     13  C   LIG    1       -2.787   2.054  -0.062  0.00  0.00    -0.240 A 
ATOM     14  C   LIG    1       -2.347   1.447  -1.202  0.00  0.00    +0.220 A 
ATOM     15  O   LIG    1       -3.355   1.417  -2.080  0.00  0.00    -0.170 OA
ATOM     16  C   LIG    1       -4.454   1.992  -1.567  0.00  0.00    +0.170 A 
ATOM     17  C   LIG    1       -4.189   2.414  -0.322  0.00  0.00    -0.010 A 
ENDBRANCH  11  13
BRANCH  10  19
ATOM     18  C   LIG    1       -0.014   0.153  -0.181  0.00  0.00    +0.030 C 
ATOM     19  C   LIG    1        0.008   1.676  -0.034  0.00  0.00    +0.260 C 
ENDBRANCH  10  19
ENDBRANCH   1  10
BRANCH   7  20
ATOM     20  C   LIG    1        3.811   2.629   5.212  0.00  0.00    +0.050 C 
BRANCH  20  21
ATOM     21  C   LIG    1        5.237   2.077   5.166  0.00  0.00    +0.040 C 
BRANCH  21  22
ATOM     22  C   LIG    1        6.224   3.178   5.560  0.00  0.00    -0.020 C 
ATOM     23  C   LIG    1        6.197   4.290   4.507  0.00  0.00    -0.010 C 
ATOM     24  C   LIG    1        7.242   5.349   4.867  0.00  0.00    +0.200 C 
ATOM     25  O   LIG    1        8.530   4.736   4.952  0.00  0.00    -0.380 OA
ATOM     26  C   LIG    1        8.628   3.720   5.953  0.00  0.00    +0.200 C 
ATOM     27  C   LIG    1        7.638   2.596   5.636  0.00  0.00    -0.010 C 
ENDBRANCH  21  22
ENDBRANCH  20  21
ENDBRANCH   7  20
TORSDOF 6
