REMARK  Name = ZINCrH000004s1A2.0
REMARK                            x       y       z     vdW  Elec       q    Type
REMARK                         _______ _______ _______ _____ _____    ______ ____
ROOT
ATOM      1  C   LIG    1       -0.983   1.647   3.583  0.00  0.00    +0.130 A 
ATOM      2  C   LIG    1       -2.168   2.352   3.415  0.00  0.00    +0.050 A 
ATOM      3  C   LIG    1       -2.900   2.741   4.519  0.00  0.00    +0.020 A 
ATOM      4  C   LIG    1       -2.449   2.440   5.791  0.00  0.00    +0.100 A 
ATOM      5  C   LIG    1       -1.266   1.743   5.962  0.00  0.00    -0.660 A 
ATOM      6  C   LIG    1       -0.532   1.346   4.862  0.00  0.00    +0.140 A 
ENDROOT
BRANCH   1   8
ATOM      7  C   LIG    1        0.428   0.076   2.486  0.00  0.00    +0.510 C 
ATOM      8  N   LIG    1       -0.242   1.246   2.466  0.00  0.00    -0.680 N 
ATOM      9  H   LIG    1       -0.209   1.810   1.677  0.00  0.00    +0.410 HD
ATOM     10  O   LIG    1        0.457  -0.588   3.500  0.00  0.00    -0.500 OA
BRANCH   7  11
ATOM     11  C   LIG    1        1.140  -0.405   1.248  0.00  0.00    +0.120 C 
BRANCH  11  18
ATOM     12  C   LIG    1       -0.363  -2.861   1.003  0.00  0.00    +0.080 C 
ATOM     13  C   LIG    1        1.086  -2.902   1.416  0.00  0.00    -0.070 A 
ATOM     14  C   LIG    1        1.695  -4.115   1.678  0.00  0.00    +0.000 A 
ATOM     15  C   LIG    1        3.024  -4.153   2.057  0.00  0.00    +0.010 A 
ATOM     16  C   LIG    1        3.743  -2.978   2.175  0.00  0.00    +0.000 A 
ATOM     17  C   LIG    1        3.135  -1.766   1.908  0.00  0.00    +0.020 A 
ATOM     18  C   LIG    1        1.805  -1.728   1.534  0.00  0.00    -0.080 A 
ENDBRANCH  11  18
ENDBRANCH   7  11
ENDBRANCH   1   8
BRANCH   5  19
ATOM     19  S   LIG    1       -0.696   1.362   7.585  0.00  0.00    +2.680 S 
ATOM     20  O   LIG    1        0.159   0.234   7.455  0.00  0.00    -0.940 OA
ATOM     21  O   LIG    1       -1.841   1.376   8.426  0.00  0.00    -0.950 OA
BRANCH  19  22
ATOM     22  N   LIG    1        0.261   2.620   8.076  0.00  0.00    -0.990 NA
ATOM     23  C   LIG    1        1.678   2.565   7.794  0.00  0.00    +0.280 C 
ATOM     24  C   LIG    1        2.417   1.858   8.950  0.00  0.00    +0.010 C 
ATOM     25  C   LIG    1        2.440   2.718  10.143  0.00  0.00    +0.000 C 
ATOM     26  C   LIG    1        1.061   3.039  10.713  0.00  0.00    +0.010 C 
ATOM     27  C   LIG    1        0.482   4.225   9.983  0.00  0.00    +0.020 C 
ATOM     28  C   LIG    1       -0.366   3.750   8.790  0.00  0.00    +0.270 C 
ENDBRANCH  19  22
ENDBRANCH   5  19
TORSDOF 5
