REMARK  Name = ZINCqH0000004Bb3.0
REMARK                            x       y       z     vdW  Elec       q    Type
REMARK                         _______ _______ _______ _____ _____    ______ ____
ROOT
ATOM      1  C   LIG    1       -1.090   7.376   1.540  0.00  0.00    +0.100 A 
ATOM      2  N   LIG    1       -1.260   7.984   0.400  0.00  0.00    -0.470 NA
ATOM      3  C   LIG    1       -0.957   9.254   0.348  0.00  0.00    +0.160 A 
ATOM      4  C   LIG    1       -0.493   9.766   1.530  0.00  0.00    -0.320 A 
ATOM      5  C   LIG    1       -1.103  10.081  -0.903  0.00  0.00    +0.170 C 
ATOM      6  S   LIG    1       -0.492   8.463   2.716  0.00  0.00    +0.200 S 
ENDROOT
BRANCH   4   7
ATOM      7  C   LIG    1       -0.078  11.151   1.768  0.00  0.00    +0.600 C 
ATOM      8  N   LIG    1        1.020  11.408   2.507  0.00  0.00    -0.610 N 
ATOM      9  C   LIG    1        1.875  10.313   2.982  0.00  0.00    +0.270 C 
ATOM     10  C   LIG    1        3.321  10.597   2.547  0.00  0.00    +0.060 C 
ATOM     11  C   LIG    1        3.736  11.982   3.049  0.00  0.00    +0.030 C 
ATOM     12  C   LIG    1        2.828  13.045   2.427  0.00  0.00    +0.050 C 
ATOM     13  C   LIG    1        1.380  12.789   2.857  0.00  0.00    +0.290 C 
ATOM     14  O   LIG    1       -0.724  12.069   1.298  0.00  0.00    -0.510 OA
BRANCH  11  15
ATOM     15  C   LIG    1        5.165  12.251   2.656  0.00  0.00    +0.460 C 
ATOM     16  O   LIG    1        5.431  13.195   1.951  0.00  0.00    -0.500 OA
BRANCH  15  17
ATOM     17  O   LIG    1        6.144  11.441   3.089  0.00  0.00    -0.360 OA
ATOM     18  C   LIG    1        7.498  11.760   2.671  0.00  0.00    +0.250 C 
ENDBRANCH  15  17
ENDBRANCH  11  15
ENDBRANCH   4   7
BRANCH   1  22
ATOM     19  C   LIG    1       -1.924   3.270   2.241  0.00  0.00    -0.060 A 
ATOM     20  C   LIG    1       -1.440   4.060   3.269  0.00  0.00    +0.010 A 
ATOM     21  C   LIG    1       -1.162   5.393   3.046  0.00  0.00    +0.040 A 
ATOM     22  C   LIG    1       -1.380   5.947   1.784  0.00  0.00    -0.050 A 
ATOM     23  C   LIG    1       -1.873   5.146   0.752  0.00  0.00    +0.080 A 
ATOM     24  C   LIG    1       -2.142   3.813   0.987  0.00  0.00    +0.010 A 
BRANCH  19  26
ATOM     25  C   LIG    1       -0.972   0.981   2.192  0.00  0.00    +0.030 C 
ATOM     26  C   LIG    1       -2.221   1.814   2.489  0.00  0.00    +0.070 C 
ENDBRANCH  19  26
ENDBRANCH   1  22
TORSDOF 5
