REMARK  Name = ZINCrH000004rMdM.0
REMARK                            x       y       z     vdW  Elec       q    Type
REMARK                         _______ _______ _______ _____ _____    ______ ____
ROOT
ATOM      1  N   LIG    1       -1.559  -2.476   1.597  0.00  0.00    -0.720 N 
ATOM      2  H   LIG    1       -0.859  -2.927   2.095  0.00  0.00    +0.410 HD
ATOM      3  C   LIG    1       -1.760  -1.154   1.763  0.00  0.00    +0.600 C 
ATOM      4  O   LIG    1       -2.638  -0.589   1.138  0.00  0.00    -0.530 OA
ENDROOT
BRANCH   3   5
ATOM      5  C   LIG    1       -0.916  -0.393   2.700  0.00  0.00    -0.290 A 
ATOM      6  C   LIG    1        0.113  -0.887   3.474  0.00  0.00    +0.310 A 
ATOM      7  N   LIG    1        0.621   0.132   4.184  0.00  0.00    -0.460 N 
ATOM      8  H   LIG    1        1.358   0.063   4.811  0.00  0.00    +0.450 HD
ATOM      9  N   LIG    1       -0.071   1.307   3.881  0.00  0.00    -0.280 NA
ATOM     10  C   LIG    1       -1.003   1.041   2.994  0.00  0.00    +0.180 A 
BRANCH  10  11
ATOM     11  C   LIG    1       -1.958   2.007   2.400  0.00  0.00    -0.030 A 
ATOM     12  C   LIG    1       -2.351   1.873   1.069  0.00  0.00    +0.110 A 
ATOM     13  C   LIG    1       -3.245   2.772   0.523  0.00  0.00    +0.020 A 
ATOM     14  C   LIG    1       -3.740   3.812   1.290  0.00  0.00    -0.020 A 
ATOM     15  C   LIG    1       -3.348   3.953   2.610  0.00  0.00    +0.020 A 
ATOM     16 CL   LIG    1       -4.858   4.944   0.594  0.00  0.00    -0.070 Cl
ATOM     17  C   LIG    1       -2.460   3.056   3.168  0.00  0.00    +0.060 A 
ENDBRANCH  10  11
ENDBRANCH   3   5
BRANCH   1  18
ATOM     18  C   LIG    1       -2.398  -3.233   0.664  0.00  0.00    +0.310 C 
BRANCH  18  21
ATOM     19  N   LIG    1       -2.606  -5.569  -0.123  0.00  0.00    -0.670 N 
ATOM     20  H   LIG    1       -3.372  -5.291  -0.650  0.00  0.00    +0.410 HD
ATOM     21  C   LIG    1       -1.971  -4.679   0.665  0.00  0.00    +0.510 C 
ATOM     22  O   LIG    1       -1.056  -5.041   1.374  0.00  0.00    -0.520 OA
BRANCH  19  30
ATOM     23  C   LIG    1        0.143  -6.042  -0.686  0.00  0.00    +0.090 C 
ATOM     24  C   LIG    1       -0.829  -7.170  -0.452  0.00  0.00    -0.070 A 
ATOM     25  C   LIG    1       -0.392  -8.480  -0.503  0.00  0.00    +0.020 A 
ATOM     26  C   LIG    1       -1.284  -9.516  -0.294  0.00  0.00    +0.020 A 
ATOM     27  C   LIG    1       -2.613  -9.245  -0.028  0.00  0.00    +0.020 A 
ATOM     28  C   LIG    1       -3.055  -7.937   0.030  0.00  0.00    -0.090 A 
ATOM     29  C   LIG    1       -4.504  -7.643   0.319  0.00  0.00    +0.080 C 
ATOM     30  C   LIG    1       -2.162  -6.894  -0.180  0.00  0.00    +0.130 A 
ENDBRANCH  19  30
ENDBRANCH  18  21
ENDBRANCH   1  18
TORSDOF 5
