REMARK  Name = ZINCqH00000073YN.0
REMARK                            x       y       z     vdW  Elec       q    Type
REMARK                         _______ _______ _______ _____ _____    ______ ____
ROOT
ATOM      1  C   LIG    1        0.873   7.061  -1.467  0.00  0.00    +0.570 C 
ATOM      2  N   LIG    1        0.987   5.844  -0.899  0.00  0.00    -0.720 N 
ATOM      3  H   LIG    1        1.765   5.294  -1.083  0.00  0.00    +0.400 HD
ATOM      4  O   LIG    1       -0.102   7.750  -1.238  0.00  0.00    -0.530 OA
ENDROOT
BRANCH   1   8
ATOM      5  C   LIG    1        3.925   8.484  -4.061  0.00  0.00    +0.130 A 
ATOM      6  C   LIG    1        4.041   7.231  -3.474  0.00  0.00    -0.040 A 
ATOM      7  C   LIG    1        3.055   6.769  -2.629  0.00  0.00    +0.050 A 
ATOM      8  C   LIG    1        1.932   7.557  -2.369  0.00  0.00    -0.140 A 
ATOM      9  C   LIG    1        1.815   8.819  -2.958  0.00  0.00    +0.040 A 
ATOM     10  C   LIG    1        2.809   9.278  -3.800  0.00  0.00    +0.090 A 
BRANCH   5  12
ATOM     11  C   LIG    1        6.016   8.072  -5.111  0.00  0.00    +0.240 C 
ATOM     12  O   LIG    1        4.901   8.937  -4.889  0.00  0.00    -0.300 OA
ENDBRANCH   5  12
BRANCH  10  13
ATOM     13  O   LIG    1        2.698  10.505  -4.376  0.00  0.00    -0.300 OA
ATOM     14  C   LIG    1        1.528  11.265  -4.066  0.00  0.00    +0.240 C 
ENDBRANCH  10  13
ENDBRANCH   1   8
BRANCH   2  15
ATOM     15  C   LIG    1       -0.064   5.352  -0.005  0.00  0.00    +0.290 C 
ATOM     16  C   LIG    1        0.186   5.874   1.411  0.00  0.00    +0.040 C 
BRANCH  15  17
ATOM     17  C   LIG    1       -0.049   3.845   0.006  0.00  0.00    -0.090 A 
ATOM     18  C   LIG    1        1.155   3.166   0.007  0.00  0.00    +0.000 A 
ATOM     19  C   LIG    1        1.173   1.783   0.017  0.00  0.00    +0.020 A 
ATOM     20  C   LIG    1       -0.013   1.076   0.025  0.00  0.00    -0.030 A 
ATOM     21  C   LIG    1       -1.225   1.755   0.017  0.00  0.00    +0.090 A 
ATOM     22  C   LIG    1       -1.239   3.144   0.014  0.00  0.00    +0.050 A 
BRANCH  21  23
ATOM     23  N   LIG    1       -2.426   1.042   0.020  0.00  0.00    -0.490 N 
ATOM     24  C   LIG    1       -2.562   0.225  -1.213  0.00  0.00    +0.180 C 
ATOM     25  C   LIG    1       -3.611  -0.844  -0.815  0.00  0.00    +0.030 C 
ATOM     26  C   LIG    1       -3.251  -1.150   0.657  0.00  0.00    +0.020 C 
ATOM     27  C   LIG    1       -2.472   0.085   1.146  0.00  0.00    +0.170 C 
ENDBRANCH  21  23
ENDBRANCH  15  17
ENDBRANCH   2  15
TORSDOF 6
