REMARK  Name = ZINCpk00000KfKzR.0
REMARK                            x       y       z     vdW  Elec       q    Type
REMARK                         _______ _______ _______ _____ _____    ______ ____
ROOT
ATOM      1  C   LIG    1       -1.419   9.394  -1.389  0.00  0.00    +0.040 C 
ENDROOT
BRANCH   1   2
ATOM      2  C   LIG    1       -0.777  10.411  -0.443  0.00  0.00    +0.290 C 
BRANCH   2  13
ATOM      3  O   LIG    1       -2.960  11.296   0.920  0.00  0.00    -0.510 OA
ATOM      4  C   LIG    1       -2.489  12.060   0.097  0.00  0.00    +0.550 A 
ATOM      5  C   LIG    1       -3.077  13.387  -0.137  0.00  0.00    -0.200 A 
ATOM      6  C   LIG    1       -4.194  13.833   0.565  0.00  0.00    +0.100 A 
ATOM      7  C   LIG    1       -4.704  15.087   0.305  0.00  0.00    -0.010 A 
ATOM      8  C   LIG    1       -4.114  15.905  -0.649  0.00  0.00    +0.070 A 
ATOM      9  C   LIG    1       -3.010  15.483  -1.355  0.00  0.00    +0.030 A 
ATOM     10  C   LIG    1       -2.474  14.217  -1.109  0.00  0.00    +0.150 A 
ATOM     11  N   LIG    1       -1.387  13.762  -1.780  0.00  0.00    -0.520 NA
ATOM     12  C   LIG    1       -0.886  12.586  -1.547  0.00  0.00    +0.580 A 
ATOM     13  N   LIG    1       -1.404  11.721  -0.637  0.00  0.00    -0.550 N 
ENDBRANCH   2  13
ENDBRANCH   1   2
BRANCH   1  14
ATOM     14  C   LIG    1       -0.765   8.026  -1.187  0.00  0.00    +0.060 C 
BRANCH  14  15
ATOM     15  C   LIG    1       -1.398   7.024  -2.118  0.00  0.00    +0.520 C 
ATOM     16  N   LIG    1       -0.978   5.743  -2.116  0.00  0.00    -0.620 N 
ATOM     17  C   LIG    1       -1.582   4.750  -3.017  0.00  0.00    +0.300 C 
ATOM     18  C   LIG    1       -1.997   3.530  -2.188  0.00  0.00    +0.170 C 
ATOM     19  N   LIG    1       -0.842   3.049  -1.418  0.00  0.00    -0.510 NA
ATOM     20  C   LIG    1       -0.386   4.060  -0.455  0.00  0.00    +0.170 C 
ATOM     21  C   LIG    1        0.096   5.302  -1.213  0.00  0.00    +0.280 C 
ATOM     22  O   LIG    1       -2.285   7.370  -2.870  0.00  0.00    -0.540 OA
BRANCH  19  23
ATOM     23  C   LIG    1       -1.150   1.781  -0.743  0.00  0.00    +0.140 C 
ATOM     24  C   LIG    1       -0.013   1.086   0.008  0.00  0.00    +0.030 C 
ATOM     25  C   LIG    1       -1.136   1.773   0.788  0.00  0.00    -0.020 C 
ENDBRANCH  19  23
ENDBRANCH  14  15
ENDBRANCH   1  14
TORSDOF 5
