REMARK  Name = ZINCpk00000xI53V.0
REMARK                            x       y       z     vdW  Elec       q    Type
REMARK                         _______ _______ _______ _____ _____    ______ ____
ROOT
ATOM      1  C   LIG    1       -2.526  -2.787   0.012  0.00  0.00    +0.270 C 
ENDROOT
BRANCH   1   7
ATOM      2  N   LIG    1       -4.221  -7.286   0.004  0.00  0.00    -0.740 N 
ATOM      3  H   LIG    1       -5.123  -6.929   0.015  0.00  0.00    +0.400 HD
ATOM      4  C   LIG    1       -3.165  -6.449  -0.001  0.00  0.00    +0.690 C 
ATOM      5  N   LIG    1       -3.362  -5.116   0.008  0.00  0.00    -0.690 N 
ATOM      6  H   LIG    1       -4.264  -4.759   0.018  0.00  0.00    +0.410 HD
ATOM      7  C   LIG    1       -2.306  -4.278   0.002  0.00  0.00    +0.520 C 
ATOM      8  O   LIG    1       -1.179  -4.724  -0.012  0.00  0.00    -0.440 OA
ATOM      9  O   LIG    1       -2.035  -6.896  -0.015  0.00  0.00    -0.530 OA
BRANCH   2  10
ATOM     10  C   LIG    1       -4.006  -8.735  -0.005  0.00  0.00    +0.270 C 
BRANCH  10  11
ATOM     11  C   LIG    1       -5.359  -9.451   0.004  0.00  0.00    +0.010 C 
BRANCH  11  13
ATOM     12  C   LIG    1       -4.444 -11.387   1.292  0.00  0.00    +0.030 C 
ATOM     13  C   LIG    1       -5.135 -10.964  -0.006  0.00  0.00    -0.020 C 
ATOM     14  C   LIG    1       -6.483 -11.679  -0.123  0.00  0.00    +0.030 C 
ENDBRANCH  11  13
ENDBRANCH  10  11
ENDBRANCH   2  10
ENDBRANCH   1   7
BRANCH   1  15
ATOM     15  O   LIG    1       -1.243  -2.108   0.003  0.00  0.00    -0.330 OA
BRANCH  15  16
ATOM     16  C   LIG    1       -1.264  -0.761   0.010  0.00  0.00    +0.520 C 
ATOM     17  O   LIG    1       -2.325  -0.170   0.024  0.00  0.00    -0.500 OA
BRANCH  16  18
ATOM     18  C   LIG    1        0.002  -0.004   0.002  0.00  0.00    -0.130 A 
ATOM     19  C   LIG    1        1.224  -0.682  -0.013  0.00  0.00    +0.100 A 
ATOM     20  C   LIG    1        2.404   0.028  -0.019  0.00  0.00    +0.020 A 
ATOM     21  C   LIG    1        2.386   1.418  -0.010  0.00  0.00    +0.090 A 
ATOM     22  O   LIG    1        3.564   2.098  -0.012  0.00  0.00    -0.300 OA
ATOM     23  C   LIG    1        3.510   3.479  -0.382  0.00  0.00    +0.230 C 
ATOM     24  C   LIG    1        2.345   4.134   0.372  0.00  0.00    +0.230 C 
ATOM     25  O   LIG    1        1.137   3.461   0.003  0.00  0.00    -0.300 OA
ATOM     26  C   LIG    1        1.171   2.100   0.002  0.00  0.00    +0.040 A 
ATOM     27  C   LIG    1       -0.017   1.393   0.010  0.00  0.00    +0.110 A 
ENDBRANCH  16  18
ENDBRANCH  15  16
ENDBRANCH   1  15
TORSDOF 7
