REMARK  Name = ZINCuk00000007V5.1
REMARK                            x       y       z     vdW  Elec       q    Type
REMARK                         _______ _______ _______ _____ _____    ______ ____
ROOT
ATOM      1  C   LIG    1       -1.543   3.802   2.667  0.00  0.00    +0.510 C 
ATOM      2  N   LIG    1       -1.682   5.124   2.889  0.00  0.00    -0.700 N 
ATOM      3  H   LIG    1       -1.328   5.763   2.250  0.00  0.00    +0.420 HD
ATOM      4  O   LIG    1       -1.986   3.003   3.466  0.00  0.00    -0.510 OA
ENDROOT
BRANCH   1   7
ATOM      5  N   LIG    1       -0.704   1.998   1.216  0.00  0.00    -0.710 N 
ATOM      6  H   LIG    1       -1.058   1.359   1.854  0.00  0.00    +0.420 HD
ATOM      7  C   LIG    1       -0.843   3.320   1.438  0.00  0.00    +0.510 C 
ATOM      8  O   LIG    1       -0.401   4.119   0.639  0.00  0.00    -0.500 OA
BRANCH   5   9
ATOM      9  C   LIG    1       -0.019   1.526   0.010  0.00  0.00    +0.300 C 
BRANCH   9  10
ATOM     10  C   LIG    1        0.002  -0.004   0.002  0.00  0.00    +0.030 C 
BRANCH  10  11
ATOM     11  C   LIG    1        0.718  -0.497  -1.257  0.00  0.00    +0.270 C 
BRANCH  11  13
ATOM     12  C   LIG    1       -0.636  -2.474  -1.375  0.00  0.00    +0.320 C 
ATOM     13  N   LIG    1        0.738  -1.966  -1.265  0.00  0.00    -0.390 N 
ATOM     14  H   LIG    1        1.153  -2.302  -0.408  0.00  0.00    +0.430 HD
BRANCH  13  15
ATOM     15  C   LIG    1        1.528  -2.439  -2.409  0.00  0.00    +0.270 C 
BRANCH  15  16
ATOM     16  C   LIG    1        1.654  -3.963  -2.348  0.00  0.00    +0.030 C 
BRANCH  16  17
ATOM     17  C   LIG    1        2.477  -4.455  -3.541  0.00  0.00    +0.300 C 
BRANCH  17  18
ATOM     18  N   LIG    1        2.597  -5.918  -3.482  0.00  0.00    -0.640 N 
ATOM     19  H   LIG    1        1.678  -6.332  -3.513  0.00  0.00    +0.440 HD
ATOM     20  H   LIG    1        3.056  -6.183  -2.623  0.00  0.00    +0.440 HD
ATOM     21  H   LIG    1        3.140  -6.243  -4.268  0.00  0.00    +0.450 HD
ENDBRANCH  17  18
ENDBRANCH  16  17
ENDBRANCH  15  16
ENDBRANCH  13  15
ENDBRANCH  11  13
ENDBRANCH  10  11
ENDBRANCH   9  10
ENDBRANCH   5   9
ENDBRANCH   1   7
BRANCH   2  22
ATOM     22  C   LIG    1       -2.368   5.597   4.094  0.00  0.00    +0.330 C 
BRANCH  22  23
ATOM     23  C   LIG    1       -2.388   7.104   4.102  0.00  0.00    -0.080 A 
ATOM     24  C   LIG    1       -1.358   7.806   4.700  0.00  0.00    +0.050 A 
ATOM     25  C   LIG    1       -1.374   9.188   4.703  0.00  0.00    +0.050 A 
ATOM     26  C   LIG    1       -2.426   9.868   4.118  0.00  0.00    -0.140 A 
ATOM     27  C   LIG    1       -3.459   9.166   3.525  0.00  0.00    +0.040 A 
ATOM     28  C   LIG    1       -3.440   7.784   3.518  0.00  0.00    +0.050 A 
BRANCH  26  29
ATOM     29  C   LIG    1       -2.446  11.375   4.126  0.00  0.00    +0.320 C 
BRANCH  29  30
ATOM     30  N   LIG    1       -3.134  11.849   5.335  0.00  0.00    -0.390 N 
ATOM     31  C   LIG    1       -4.522  11.341   5.317  0.00  0.00    +0.250 C 
ATOM     32  C   LIG    1       -5.427  12.069   6.275  0.00  0.00    +0.060 C 
ATOM     33  C   LIG    1       -6.142  13.199   5.502  0.00  0.00    +0.030 C 
ATOM     34  C   LIG    1       -5.280  14.357   5.300  0.00  0.00    +0.040 C 
ATOM     35  C   LIG    1       -4.021  14.009   4.476  0.00  0.00    +0.050 C 
ATOM     36  C   LIG    1       -3.037  13.323   5.385  0.00  0.00    +0.250 C 
ATOM     37  H   LIG    1       -2.664  11.467   6.142  0.00  0.00    +0.420 HD
ENDBRANCH  29  30
ENDBRANCH  26  29
ENDBRANCH  22  23
ENDBRANCH   2  22
TORSDOF 13
