REMARK  Name = ZINCuk00000007V5.0
REMARK                            x       y       z     vdW  Elec       q    Type
REMARK                         _______ _______ _______ _____ _____    ______ ____
ROOT
ATOM      1  C   LIG    1       -0.116   7.597  -1.583  0.00  0.00    +0.510 C 
ATOM      2  N   LIG    1       -0.096   6.270  -1.344  0.00  0.00    -0.700 N 
ATOM      3  H   LIG    1       -0.094   5.644  -2.085  0.00  0.00    +0.420 HD
ATOM      4  O   LIG    1       -0.118   8.380  -0.656  0.00  0.00    -0.510 OA
ENDROOT
BRANCH   1   7
ATOM      5  N   LIG    1       -0.156   9.429  -3.227  0.00  0.00    -0.710 N 
ATOM      6  H   LIG    1       -0.158  10.055  -2.486  0.00  0.00    +0.420 HD
ATOM      7  C   LIG    1       -0.136   8.103  -2.989  0.00  0.00    +0.510 C 
ATOM      8  O   LIG    1       -0.134   7.320  -3.916  0.00  0.00    -0.500 OA
BRANCH   5   9
ATOM      9  C   LIG    1       -0.176   9.925  -4.606  0.00  0.00    +0.300 C 
BRANCH   9  10
ATOM     10  C   LIG    1       -0.197  11.455  -4.597  0.00  0.00    +0.030 C 
BRANCH  10  11
ATOM     11  C   LIG    1       -0.217  11.973  -6.036  0.00  0.00    +0.270 C 
BRANCH  11  13
ATOM     12  C   LIG    1       -1.493  13.911  -5.428  0.00  0.00    +0.320 C 
ATOM     13  N   LIG    1       -0.237  13.442  -6.027  0.00  0.00    -0.390 N 
ATOM     14  H   LIG    1        0.543  13.786  -5.487  0.00  0.00    +0.430 HD
BRANCH  13  15
ATOM     15  C   LIG    1       -0.136  13.941  -7.405  0.00  0.00    +0.270 C 
BRANCH  15  16
ATOM     16  C   LIG    1       -0.031  15.468  -7.388  0.00  0.00    +0.030 C 
BRANCH  16  17
ATOM     17  C   LIG    1        0.074  15.988  -8.823  0.00  0.00    +0.300 C 
BRANCH  17  18
ATOM     18  N   LIG    1        0.175  17.453  -8.807  0.00  0.00    -0.640 N 
ATOM     19  H   LIG    1       -0.646  17.842  -8.368  0.00  0.00    +0.440 HD
ATOM     20  H   LIG    1        0.244  17.796  -9.754  0.00  0.00    +0.450 HD
ATOM     21  H   LIG    1        0.996  17.728  -8.289  0.00  0.00    +0.440 HD
ENDBRANCH  17  18
ENDBRANCH  16  17
ENDBRANCH  15  16
ENDBRANCH  13  15
ENDBRANCH  11  13
ENDBRANCH  10  11
ENDBRANCH   9  10
ENDBRANCH   5   9
ENDBRANCH   1   7
BRANCH   2  22
ATOM     22  C   LIG    1       -0.076   5.774   0.034  0.00  0.00    +0.330 C 
BRANCH  22  23
ATOM     23  C   LIG    1       -0.056   4.267   0.025  0.00  0.00    -0.080 A 
ATOM     24  C   LIG    1        1.151   3.592   0.010  0.00  0.00    +0.050 A 
ATOM     25  C   LIG    1        1.169   2.210   0.003  0.00  0.00    +0.040 A 
ATOM     26  C   LIG    1       -0.018   1.503   0.010  0.00  0.00    -0.140 A 
ATOM     27  C   LIG    1       -1.225   2.178   0.020  0.00  0.00    +0.050 A 
ATOM     28  C   LIG    1       -1.244   3.560   0.033  0.00  0.00    +0.050 A 
BRANCH  26  29
ATOM     29  C   LIG    1        0.002  -0.004   0.002  0.00  0.00    +0.320 C 
BRANCH  29  30
ATOM     30  N   LIG    1        0.022  -0.501   1.384  0.00  0.00    -0.390 N 
ATOM     31  C   LIG    1        1.244   0.001   2.049  0.00  0.00    +0.250 C 
ATOM     32  C   LIG    1        1.577  -0.747   3.312  0.00  0.00    +0.060 C 
ATOM     33  C   LIG    1        2.581  -1.867   2.961  0.00  0.00    +0.030 C 
ATOM     34  C   LIG    1        1.929  -3.017   2.349  0.00  0.00    +0.040 C 
ATOM     35  C   LIG    1        1.223  -2.651   1.025  0.00  0.00    +0.050 C 
ATOM     36  C   LIG    1       -0.080  -1.976   1.357  0.00  0.00    +0.250 C 
ATOM     37  H   LIG    1       -0.781  -0.132   1.870  0.00  0.00    +0.420 HD
ENDBRANCH  29  30
ENDBRANCH  26  29
ENDBRANCH  22  23
ENDBRANCH   2  22
TORSDOF 13
