REMARK  Name = ZINCnE000008J9Sx.0
REMARK                            x       y       z     vdW  Elec       q    Type
REMARK                         _______ _______ _______ _____ _____    ______ ____
ROOT
ATOM      1  C   LIG    1        3.514   0.604  -0.028  0.00  0.00    +0.280 C 
ATOM      2  C   LIG    1        4.227   1.761  -0.132  0.00  0.00    -0.260 C 
ATOM      3  S   LIG    1        3.611   3.426  -0.146  0.00  0.00    +0.120 S 
ATOM      4  C   LIG    1        5.213   4.167  -0.305  0.00  0.00    +0.260 C 
ATOM      5  N   LIG    1        6.101   3.167  -0.345  0.00  0.00    -0.500 N 
ATOM      6  S   LIG    1        5.558   5.842  -0.396  0.00  0.00    -0.360 S 
ATOM      7  C   LIG    1        5.677   1.917  -0.263  0.00  0.00    +0.550 C 
ATOM      8  O   LIG    1        6.436   0.965  -0.294  0.00  0.00    -0.450 OA
ENDROOT
BRANCH   1  12
ATOM      9  C   LIG    1        0.041   1.405  -0.003  0.00  0.00    +0.070 A 
ATOM     10  C   LIG    1       -0.052   0.057  -0.012  0.00  0.00    -0.050 A 
ATOM     11  C   LIG    1        1.257  -0.450  -0.023  0.00  0.00    +0.040 A 
ATOM     12  C   LIG    1        2.101   0.643  -0.020  0.00  0.00    -0.040 A 
ATOM     13  O   LIG    1        1.336   1.754  -0.008  0.00  0.00    -0.150 OA
BRANCH   9  17
ATOM     14  C   LIG    1       -2.633   3.679   1.692  0.00  0.00    +0.070 C 
ATOM     15  C   LIG    1       -1.231   3.326   1.194  0.00  0.00    -0.020 C 
ATOM     16  C   LIG    1       -0.818   3.848  -0.183  0.00  0.00    +0.060 C 
ATOM     17  C   LIG    1       -1.123   2.362   0.011  0.00  0.00    +0.040 C 
ENDBRANCH   9  17
ENDBRANCH   1  12
BRANCH   5  18
ATOM     18  C   LIG    1        7.531   3.454  -0.480  0.00  0.00    +0.290 C 
BRANCH  18  19
ATOM     19  C   LIG    1        7.904   3.502  -1.963  0.00  0.00    +0.030 C 
BRANCH  19  20
ATOM     20  C   LIG    1        9.398   3.801  -2.103  0.00  0.00    -0.060 C 
BRANCH  20  21
ATOM     21  C   LIG    1        9.765   3.849  -3.564  0.00  0.00    +0.490 C 
ATOM     22  O   LIG    1       10.916   4.075  -3.896  0.00  0.00    -0.700 OA
ATOM     23  O   LIG    1        8.912   3.660  -4.414  0.00  0.00    -0.700 OA
ENDBRANCH  20  21
ENDBRANCH  19  20
ENDBRANCH  18  19
ENDBRANCH   5  18
TORSDOF 6
