REMARK  Name = ZINCqH0000050TZI.0
REMARK                            x       y       z     vdW  Elec       q    Type
REMARK                         _______ _______ _______ _____ _____    ______ ____
ROOT
ATOM      1  N   LIG    1        2.997   4.951  -0.001  0.00  0.00    -0.450 N 
ATOM      2  C   LIG    1        2.446   5.691   1.141  0.00  0.00    +0.220 C 
ATOM      3  C   LIG    1        2.838   7.167   1.032  0.00  0.00    +0.060 C 
ATOM      4  C   LIG    1        4.365   7.284   1.012  0.00  0.00    +0.120 C 
ATOM      5  C   LIG    1        4.916   6.465  -0.158  0.00  0.00    +0.060 C 
ATOM      6  C   LIG    1        4.464   5.010  -0.014  0.00  0.00    +0.210 C 
ENDROOT
BRANCH   1  14
ATOM      7 CL   LIG    1       -2.772   3.966   0.048  0.00  0.00    -0.050 Cl
ATOM      8  C   LIG    1       -1.247   3.137   0.030  0.00  0.00    -0.070 A 
ATOM      9  C   LIG    1       -1.215   1.749   0.017  0.00  0.00    +0.100 A 
ATOM     10  C   LIG    1       -0.013   1.076   0.008  0.00  0.00    +0.040 A 
ATOM     11  C   LIG    1        1.181   1.787   0.000  0.00  0.00    +0.100 A 
ATOM     12  O   LIG    1        2.478   1.416  -0.014  0.00  0.00    -0.080 OA
ATOM     13  N   LIG    1        3.298   2.567  -0.015  0.00  0.00    -0.320 NA
ATOM     14  C   LIG    1        2.551   3.637  -0.003  0.00  0.00    +0.310 A 
ATOM     15  C   LIG    1        1.150   3.190   0.008  0.00  0.00    -0.180 A 
ATOM     16  C   LIG    1       -0.074   3.860   0.022  0.00  0.00    +0.120 A 
ENDBRANCH   1  14
BRANCH   4  17
ATOM     17  C   LIG    1        4.758   8.729   0.844  0.00  0.00    +0.190 A 
ATOM     18  N   LIG    1        5.479   9.443   1.675  0.00  0.00    -0.470 NA
ATOM     19  C   LIG    1        5.571  10.664   1.117  0.00  0.00    +0.180 A 
ATOM     20  N   LIG    1        4.914  10.630  -0.004  0.00  0.00    -0.370 NA
ATOM     21  O   LIG    1        4.444   9.526  -0.182  0.00  0.00    +0.090 OA
BRANCH  19  22
ATOM     22  C   LIG    1        6.301  11.852   1.687  0.00  0.00    +0.090 C 
ATOM     23  C   LIG    1        5.343  13.060   1.830  0.00  0.00    +0.020 C 
ATOM     24  C   LIG    1        6.239  14.241   1.377  0.00  0.00    +0.220 C 
ATOM     25  O   LIG    1        7.024  13.676   0.305  0.00  0.00    -0.370 OA
ATOM     26  C   LIG    1        7.383  12.342   0.705  0.00  0.00    +0.210 C 
ENDBRANCH  19  22
ENDBRANCH   4  17
TORSDOF 3
