REMARK  Name = ZINCrH000004orSW.0
REMARK                            x       y       z     vdW  Elec       q    Type
REMARK                         _______ _______ _______ _____ _____    ______ ____
ROOT
ATOM      1  C   LIG    1       -2.861   3.423   0.042  0.00  0.00    +0.330 C 
ENDROOT
BRANCH   1   2
ATOM      2  C   LIG    1       -1.542   2.694   0.053  0.00  0.00    -0.150 A 
ATOM      3  C   LIG    1       -1.506   1.329  -0.164  0.00  0.00    +0.070 A 
ATOM      4  C   LIG    1       -0.299   0.657  -0.149  0.00  0.00    -0.020 A 
ATOM      5  C   LIG    1        0.879   1.355   0.073  0.00  0.00    +0.140 A 
ATOM      6  C   LIG    1        0.841   2.726   0.286  0.00  0.00    -0.080 A 
ATOM      7  C   LIG    1       -0.369   3.392   0.276  0.00  0.00    +0.070 A 
BRANCH   5   8
ATOM      8  O   LIG    1        2.068   0.698   0.082  0.00  0.00    -0.310 OA
BRANCH   8   9
ATOM      9  C   LIG    1        3.241   1.481   0.318  0.00  0.00    +0.270 C 
BRANCH   9  10
ATOM     10  C   LIG    1        4.455   0.588   0.292  0.00  0.00    -0.150 A 
ATOM     11  C   LIG    1        4.911  -0.009   1.456  0.00  0.00    +0.090 A 
ATOM     12  C   LIG    1        6.029  -0.828   1.384  0.00  0.00    -0.030 A 
ATOM     13  C   LIG    1        6.652  -1.010   0.165  0.00  0.00    +0.270 A 
ATOM     14  N   LIG    1        6.193  -0.421  -0.922  0.00  0.00    -0.490 NA
ATOM     15  C   LIG    1        5.130   0.359  -0.892  0.00  0.00    +0.290 A 
ENDBRANCH   9  10
ENDBRANCH   8   9
ENDBRANCH   5   8
ENDBRANCH   1   2
BRANCH   1  17
ATOM     16  C   LIG    1       -4.294   4.553  -1.572  0.00  0.00    +0.520 C 
ATOM     17  N   LIG    1       -3.158   3.873  -1.320  0.00  0.00    -0.720 N 
ATOM     18  H   LIG    1       -2.537   3.683  -2.040  0.00  0.00    +0.400 HD
ATOM     19  O   LIG    1       -5.071   4.791  -0.671  0.00  0.00    -0.510 OA
BRANCH  16  21
ATOM     20  C   LIG    1       -4.802   3.801  -3.880  0.00  0.00    +0.060 C 
ATOM     21  C   LIG    1       -4.600   5.016  -2.973  0.00  0.00    +0.170 C 
BRANCH  21  22
ATOM     22  O   LIG    1       -5.791   5.807  -2.964  0.00  0.00    -0.290 OA
BRANCH  22  23
ATOM     23  C   LIG    1       -5.941   6.708  -3.970  0.00  0.00    +0.130 A 
ATOM     24  C   LIG    1       -5.016   6.756  -5.003  0.00  0.00    -0.080 A 
ATOM     25  C   LIG    1       -5.173   7.670  -6.027  0.00  0.00    +0.050 A 
ATOM     26  C   LIG    1       -6.246   8.542  -6.018  0.00  0.00    -0.040 A 
ATOM     27  C   LIG    1       -7.166   8.500  -4.987  0.00  0.00    +0.050 A 
ATOM     28  C   LIG    1       -7.016   7.585  -3.963  0.00  0.00    -0.020 A 
ENDBRANCH  22  23
ENDBRANCH  21  22
ENDBRANCH  16  21
ENDBRANCH   1  17
TORSDOF 8
