REMARK  Name = ZINCrH000004sFxI.0
REMARK                            x       y       z     vdW  Elec       q    Type
REMARK                         _______ _______ _______ _____ _____    ______ ____
ROOT
ATOM      1  N   LIG    1        1.931  -2.278  -1.410  0.00  0.00    -0.730 N 
ATOM      2  H   LIG    1        1.711  -1.681  -2.142  0.00  0.00    +0.400 HD
ATOM      3  C   LIG    1        2.369  -3.526  -1.667  0.00  0.00    +0.700 C 
ATOM      4  N   LIG    1        2.502  -3.945  -2.941  0.00  0.00    -0.690 N 
ATOM      5  H   LIG    1        2.220  -3.372  -3.672  0.00  0.00    +0.410 HD
ATOM      6  O   LIG    1        2.644  -4.275  -0.750  0.00  0.00    -0.570 OA
ENDROOT
BRANCH   4   7
ATOM      7  C   LIG    1        3.048  -5.205  -3.211  0.00  0.00    +0.170 A 
ATOM      8  C   LIG    1        3.837  -5.395  -4.337  0.00  0.00    +0.050 A 
ATOM      9  C   LIG    1        4.378  -6.639  -4.598  0.00  0.00    +0.050 A 
ATOM     10  C   LIG    1        4.127  -7.696  -3.744  0.00  0.00    +0.090 A 
ATOM     11  C   LIG    1        3.338  -7.511  -2.623  0.00  0.00    -0.020 A 
ATOM     12  C   LIG    1        2.798  -6.269  -2.354  0.00  0.00    +0.110 A 
BRANCH  11  13
ATOM     13  N   LIG    1        3.071  -8.646  -1.711  0.00  0.00    +0.030 N 
ATOM     14  O   LIG    1        3.547  -9.742  -1.948  0.00  0.00    -0.160 OA
ATOM     15  O   LIG    1        2.376  -8.484  -0.724  0.00  0.00    -0.150 OA
ENDBRANCH  11  13
ENDBRANCH   4   7
BRANCH   1  16
ATOM     16  C   LIG    1        1.786  -1.823  -0.025  0.00  0.00    +0.380 C 
BRANCH  16  23
ATOM     17  C   LIG    1        3.582   0.787  -0.037  0.00  0.00    +0.160 C 
ATOM     18  C   LIG    1        2.076   0.751  -0.018  0.00  0.00    +0.100 A 
ATOM     19  N   LIG    1        1.283   1.792  -0.004  0.00  0.00    -0.290 NA
ATOM     20  N   LIG    1       -0.041   1.335   0.011  0.00  0.00    -0.320 N 
ATOM     21  C   LIG    1       -0.013  -0.017   0.006  0.00  0.00    +0.120 A 
ATOM     22  C   LIG    1       -1.212  -0.930   0.018  0.00  0.00    +0.160 C 
ATOM     23  C   LIG    1        1.283  -0.402  -0.013  0.00  0.00    -0.260 A 
BRANCH  20  24
ATOM     24  C   LIG    1       -1.190   2.137   0.025  0.00  0.00    +0.150 A 
ATOM     25  C   LIG    1       -2.328   1.734  -0.661  0.00  0.00    +0.000 A 
ATOM     26  C   LIG    1       -3.461   2.523  -0.642  0.00  0.00    +0.030 A 
ATOM     27  C   LIG    1       -3.460   3.720   0.051  0.00  0.00    +0.010 A 
ATOM     28  C   LIG    1       -2.326   4.128   0.730  0.00  0.00    +0.030 A 
ATOM     29  C   LIG    1       -1.192   3.340   0.719  0.00  0.00    +0.020 A 
ENDBRANCH  20  24
ENDBRANCH  16  23
ENDBRANCH   1  16
TORSDOF 5
