REMARK  Name = ZINCvU0000000GBd.0
REMARK                            x       y       z     vdW  Elec       q    Type
REMARK                         _______ _______ _______ _____ _____    ______ ____
ROOT
ATOM      1  N   LIG    1       -3.718  -4.838   0.013  0.00  0.00    -0.480 N 
ATOM      2  C   LIG    1       -4.456  -5.173   1.131  0.00  0.00    +0.050 A 
ATOM      3  C   LIG    1       -4.229  -5.096   2.498  0.00  0.00    +0.010 A 
ATOM      4  C   LIG    1       -5.200  -5.528   3.377  0.00  0.00    +0.030 A 
ATOM      5  C   LIG    1       -6.400  -6.039   2.903  0.00  0.00    +0.000 A 
ATOM      6  C   LIG    1       -6.643  -6.115   1.561  0.00  0.00    +0.070 A 
ATOM      7  C   LIG    1       -5.673  -5.687   0.652  0.00  0.00    +0.050 A 
ATOM      8  N   LIG    1       -5.612  -5.648  -0.704  0.00  0.00    -0.480 NA
ATOM      9  C   LIG    1       -4.469  -5.151  -1.077  0.00  0.00    +0.270 A 
ENDROOT
BRANCH   9  10
ATOM     10  C   LIG    1       -4.039  -4.952  -2.508  0.00  0.00    +0.340 C 
ATOM     11  C   LIG    1       -3.669  -6.304  -3.121  0.00  0.00    +0.060 C 
BRANCH  10  12
ATOM     12  N   LIG    1       -5.139  -4.355  -3.269  0.00  0.00    -0.710 N 
ATOM     13  H   LIG    1       -6.055  -4.479  -2.976  0.00  0.00    +0.420 HD
ATOM     14  C   LIG    1       -4.878  -3.634  -4.378  0.00  0.00    +0.610 C 
ATOM     15  O   LIG    1       -3.728  -3.480  -4.746  0.00  0.00    -0.520 OA
BRANCH  14  16
ATOM     16  C   LIG    1       -5.979  -3.037  -5.140  0.00  0.00    -0.090 A 
ATOM     17  C   LIG    1       -5.855  -2.287  -6.275  0.00  0.00    +0.050 A 
ATOM     18  C   LIG    1       -7.154  -1.925  -6.663  0.00  0.00    -0.070 A 
ATOM     19  C   LIG    1       -8.004  -2.462  -5.760  0.00  0.00    +0.210 A 
ATOM     20  O   LIG    1       -7.292  -3.136  -4.847  0.00  0.00    -0.160 OA
ENDBRANCH  14  16
ENDBRANCH  10  12
ENDBRANCH   9  10
BRANCH   1  21
ATOM     21  C   LIG    1       -2.372  -4.258   0.003  0.00  0.00    +0.310 C 
BRANCH  21  22
ATOM     22  C   LIG    1       -2.474  -2.732   0.012  0.00  0.00    +0.020 C 
BRANCH  22  23
ATOM     23  C   LIG    1       -1.069  -2.126   0.001  0.00  0.00    +0.200 C 
BRANCH  23  24
ATOM     24  O   LIG    1       -1.165  -0.701   0.010  0.00  0.00    -0.310 OA
BRANCH  24  30
ATOM     25  C   LIG    1        1.151   3.596   0.010  0.00  0.00    +0.090 C 
ATOM     26  C   LIG    1        1.171   2.089   0.002  0.00  0.00    -0.050 A 
ATOM     27  C   LIG    1        2.377   1.414  -0.013  0.00  0.00    -0.030 A 
ATOM     28  C   LIG    1        2.399   0.031  -0.021  0.00  0.00    +0.050 A 
ATOM     29  C   LIG    1        1.214  -0.679  -0.013  0.00  0.00    -0.080 A 
ATOM     30  C   LIG    1        0.002  -0.004   0.002  0.00  0.00    +0.130 A 
ATOM     31  C   LIG    1       -0.017   1.383   0.010  0.00  0.00    -0.120 A 
ATOM     32  C   LIG    1       -1.332   2.119   0.020  0.00  0.00    +0.100 C 
ENDBRANCH  24  30
ENDBRANCH  23  24
ENDBRANCH  22  23
ENDBRANCH  21  22
ENDBRANCH   1  21
TORSDOF 8
