REMARK  Name = ZINCpe000000WlSj.0
REMARK                            x       y       z     vdW  Elec       q    Type
REMARK                         _______ _______ _______ _____ _____    ______ ____
ROOT
ATOM      1  C   LIG    1        3.869   0.081  -0.776  0.00  0.00    +0.240 A 
ATOM      2  C   LIG    1        2.747   0.858  -0.531  0.00  0.00    -0.090 A 
ATOM      3  C   LIG    1        2.677   1.621   0.624  0.00  0.00    +0.200 A 
ATOM      4  C   LIG    1        3.733   1.606   1.534  0.00  0.00    +0.020 A 
ATOM      5  O   LIG    1        3.652   2.360   2.663  0.00  0.00    -0.290 OA
ATOM      6  C   LIG    1        2.940   3.596   2.562  0.00  0.00    +0.310 C 
ATOM      7  C   LIG    1        1.636   3.371   1.840  0.00  0.00    +0.490 C 
ATOM      8  O   LIG    1        0.665   4.044   2.113  0.00  0.00    -0.490 OA
ATOM      9  C   LIG    1        4.850   0.829   1.284  0.00  0.00    +0.200 A 
ATOM     10  N   LIG    1        1.552   2.413   0.892  0.00  0.00    -0.660 N 
ATOM     11  H   LIG    1        0.725   2.274   0.404  0.00  0.00    +0.420 HD
ATOM     12  C   LIG    1        4.918   0.067   0.131  0.00  0.00    -0.710 A 
ENDROOT
BRANCH  12  13
ATOM     13  S   LIG    1        6.341  -0.922  -0.186  0.00  0.00    +2.700 S 
ATOM     14  O   LIG    1        5.862  -2.208  -0.555  0.00  0.00    -0.940 OA
ATOM     15  O   LIG    1        7.230  -0.706   0.901  0.00  0.00    -0.950 OA
BRANCH  13  16
ATOM     16  N   LIG    1        7.083  -0.297  -1.528  0.00  0.00    -1.110 NA
ATOM     17  H   LIG    1        7.132  -0.821  -2.343  0.00  0.00    +0.420 HD
BRANCH  16  18
ATOM     18  C   LIG    1        7.666   1.046  -1.484  0.00  0.00    +0.250 C 
ATOM     19  C   LIG    1        9.155   0.945  -1.146  0.00  0.00    +0.020 C 
ATOM     20  C   LIG    1        9.866   0.115  -2.216  0.00  0.00    +0.010 C 
ATOM     21  C   LIG    1        9.697   0.789  -3.580  0.00  0.00    +0.000 C 
ATOM     22  C   LIG    1        8.209   0.890  -3.918  0.00  0.00    +0.020 C 
ATOM     23  C   LIG    1        7.498   1.720  -2.848  0.00  0.00    +0.000 C 
BRANCH  23  24
ATOM     24  C   LIG    1        6.009   1.821  -3.186  0.00  0.00    +0.170 C 
BRANCH  24  25
ATOM     25  O   LIG    1        5.846   2.553  -4.402  0.00  0.00    -0.570 OA
ATOM     26  H   LIG    1        4.925   2.656  -4.679  0.00  0.00    +0.380 HD
ENDBRANCH  24  25
ENDBRANCH  23  24
ENDBRANCH  16  18
ENDBRANCH  13  16
ENDBRANCH  12  13
BRANCH   1  28
ATOM     27  C   LIG    1        2.824  -0.609  -2.799  0.00  0.00    +0.260 C 
ATOM     28  O   LIG    1        3.940  -0.670  -1.908  0.00  0.00    -0.300 OA
ENDBRANCH   1  28
TORSDOF 6
