REMARK  Name = ZINCqH0000001nOD.0
REMARK                            x       y       z     vdW  Elec       q    Type
REMARK                         _______ _______ _______ _____ _____    ______ ____
ROOT
ATOM      1  N   LIG    1       -0.883   3.491  -1.161  0.00  0.00    -0.450 N 
ATOM      2  C   LIG    1       -0.004   4.418  -1.647  0.00  0.00    +0.150 A 
ATOM      3  N   LIG    1       -0.499   5.605  -1.375  0.00  0.00    -0.290 NA
ATOM      4  N   LIG    1       -1.619   5.486  -0.756  0.00  0.00    -0.250 NA
ATOM      5  C   LIG    1       -1.913   4.213  -0.600  0.00  0.00    +0.260 A 
ENDROOT
BRANCH   5   6
ATOM      6  C   LIG    1       -3.112   3.666   0.053  0.00  0.00    +0.040 A 
ATOM      7  C   LIG    1       -3.973   4.355   0.853  0.00  0.00    +0.030 A 
ATOM      8  C   LIG    1       -4.970   3.445   1.254  0.00  0.00    -0.050 A 
ATOM      9  C   LIG    1       -4.670   2.257   0.694  0.00  0.00    +0.200 A 
ATOM     10  O   LIG    1       -3.547   2.393  -0.031  0.00  0.00    -0.170 OA
ENDBRANCH   5   6
BRANCH   1  11
ATOM     11  C   LIG    1       -0.759   2.033  -1.229  0.00  0.00    +0.310 C 
BRANCH  11  13
ATOM     12  C   LIG    1        0.002  -0.004   0.002  0.00  0.00    +0.050 C 
ATOM     13  C   LIG    1       -0.019   1.526   0.010  0.00  0.00    -0.030 C 
ATOM     14  C   LIG    1        1.417   2.055  -0.000  0.00  0.00    +0.030 C 
ENDBRANCH  11  13
ENDBRANCH   1  11
BRANCH   2  15
ATOM     15  S   LIG    1        1.510   4.085  -2.483  0.00  0.00    +0.100 S 
BRANCH  15  16
ATOM     16  C   LIG    1        2.075   5.776  -2.796  0.00  0.00    +0.100 C 
BRANCH  16  17
ATOM     17  C   LIG    1        3.394   5.738  -3.525  0.00  0.00    +0.540 C 
ATOM     18  N   LIG    1        4.009   6.888  -3.865  0.00  0.00    -0.720 N 
ATOM     19  H   LIG    1        3.603   7.740  -3.641  0.00  0.00    +0.410 HD
ATOM     20  O   LIG    1        3.902   4.673  -3.804  0.00  0.00    -0.520 OA
BRANCH  18  21
ATOM     21  C   LIG    1        5.291   6.851  -4.573  0.00  0.00    +0.350 C 
ATOM     22  C   LIG    1        5.040   6.712  -6.075  0.00  0.00    +0.030 C 
BRANCH  21  23
ATOM     23  C   LIG    1        6.049   8.127  -4.306  0.00  0.00    -0.030 A 
ATOM     24  C   LIG    1        7.372   8.224  -4.087  0.00  0.00    -0.040 A 
ATOM     25  C   LIG    1        7.654   9.594  -3.884  0.00  0.00    -0.060 A 
ATOM     26  C   LIG    1        6.486  10.252  -3.991  0.00  0.00    +0.180 A 
ATOM     27  O   LIG    1        5.518   9.359  -4.252  0.00  0.00    -0.170 OA
ENDBRANCH  21  23
ENDBRANCH  18  21
ENDBRANCH  16  17
ENDBRANCH  15  16
ENDBRANCH   2  15
TORSDOF 8
