REMARK  Name = ZINCtV00000L6kQM.0
REMARK                            x       y       z     vdW  Elec       q    Type
REMARK                         _______ _______ _______ _____ _____    ______ ____
ROOT
ATOM      1  P   LIG    1        4.766   0.595  -0.045  0.00  0.00    +2.700 P 
ATOM      2  N   LIG    1        4.172  -0.824   0.171  0.00  0.00    -1.200 NA
ENDROOT
BRANCH   2   3
ATOM      3  C   LIG    1        2.885  -0.970   0.421  0.00  0.00    +0.310 A 
ATOM      4  C   LIG    1        2.174   0.012   1.156  0.00  0.00    -0.240 A 
ATOM      5  C   LIG    1        0.830  -0.148   1.411  0.00  0.00    +0.060 A 
ATOM      6  C   LIG    1        0.131  -1.255   0.970  0.00  0.00    -0.100 A 
ATOM      7  C   LIG    1        0.772  -2.270   0.234  0.00  0.00    +0.000 A 
ATOM      8  C   LIG    1        0.064  -3.396  -0.216  0.00  0.00    -0.020 A 
ATOM      9  C   LIG    1        0.713  -4.364  -0.928  0.00  0.00    +0.010 A 
ATOM     10  C   LIG    1        2.067  -4.252  -1.214  0.00  0.00    -0.040 A 
ATOM     11  C   LIG    1        2.789  -3.156  -0.784  0.00  0.00    +0.070 A 
ATOM     12  C   LIG    1        2.152  -2.156  -0.057  0.00  0.00    -0.100 A 
ENDBRANCH   2   3
BRANCH   1  13
ATOM     13  N   LIG    1        6.383   0.464  -0.496  0.00  0.00    -0.930 NA
ATOM     14  C   LIG    1        6.519  -0.269  -1.775  0.00  0.00    +0.220 C 
ATOM     15  C   LIG    1        7.942  -0.648  -2.082  0.00  0.00    +0.040 C 
ATOM     16  C   LIG    1        8.191  -2.078  -1.558  0.00  0.00    +0.010 C 
ATOM     17  C   LIG    1        8.411  -2.106  -0.116  0.00  0.00    +0.010 C 
ATOM     18  C   LIG    1        7.191  -1.579   0.669  0.00  0.00    +0.020 C 
ATOM     19  C   LIG    1        7.201  -0.075   0.614  0.00  0.00    +0.220 C 
ENDBRANCH   1  13
BRANCH   1  20
ATOM     20  C   LIG    1        4.644   1.542   1.498  0.00  0.00    -0.700 A 
ATOM     21  C   LIG    1        4.785   2.921   1.497  0.00  0.00    +0.020 A 
ATOM     22  C   LIG    1        4.682   3.610   2.691  0.00  0.00    +0.250 A 
ATOM     23  N   LIG    1        4.461   2.969   3.822  0.00  0.00    -0.450 NA
ATOM     24  C   LIG    1        4.327   1.657   3.861  0.00  0.00    +0.260 A 
ATOM     25  C   LIG    1        4.413   0.903   2.706  0.00  0.00    +0.070 A 
ENDBRANCH   1  20
BRANCH   1  27
ATOM     26  C   LIG    1        4.640   2.656  -1.849  0.00  0.00    +0.070 C 
ATOM     27  C   LIG    1        3.836   1.450  -1.358  0.00  0.00    -0.690 C 
ATOM     28  C   LIG    1        2.491   1.925  -0.805  0.00  0.00    +0.080 C 
ATOM     29  C   LIG    1        3.598   0.488  -2.524  0.00  0.00    +0.070 C 
ENDBRANCH   1  27
TORSDOF 4
