REMARK  Name = ZINCqH00000m06YV.0
REMARK                            x       y       z     vdW  Elec       q    Type
REMARK                         _______ _______ _______ _____ _____    ______ ____
ROOT
ATOM      1  O   LIG    1        3.814   3.236  -0.677  0.00  0.00    -0.510 OA
ATOM      2  C   LIG    1        3.138   2.773  -1.571  0.00  0.00    +0.520 C 
ATOM      3  N   LIG    1        2.066   2.009  -1.279  0.00  0.00    -0.720 N 
ATOM      4  H   LIG    1        1.525   1.639  -1.994  0.00  0.00    +0.400 HD
ENDROOT
BRANCH   3   5
ATOM      5  C   LIG    1        1.718   1.738   0.118  0.00  0.00    +0.310 C 
ATOM      6  C   LIG    1        0.213   1.419   0.243  0.00  0.00    +0.070 C 
ATOM      7  C   LIG    1        0.189  -0.119   0.125  0.00  0.00    +0.330 C 
ATOM      8  C   LIG    1        1.550  -0.575   0.608  0.00  0.00    -0.160 A 
ATOM      9  C   LIG    1        1.985  -1.824   1.018  0.00  0.00    +0.060 A 
ATOM     10  C   LIG    1        3.293  -2.007   1.421  0.00  0.00    +0.020 A 
ATOM     11  C   LIG    1        4.171  -0.940   1.417  0.00  0.00    +0.030 A 
ATOM     12  C   LIG    1        3.740   0.307   1.009  0.00  0.00    +0.050 A 
ATOM     13  F   LIG    1       -0.009  -0.501  -1.206  0.00  0.00    -0.190 F 
ATOM     14  F   LIG    1       -0.817  -0.653   0.937  0.00  0.00    -0.190 F 
ATOM     15  C   LIG    1        2.429   0.492   0.604  0.00  0.00    -0.090 A 
ENDBRANCH   3   5
BRANCH   2  16
ATOM     16  C   LIG    1        3.495   3.052  -3.008  0.00  0.00    +0.060 C 
BRANCH  16  17
ATOM     17  C   LIG    1        4.657   4.046  -3.060  0.00  0.00    +0.180 C 
ATOM     18  C   LIG    1        4.227   5.372  -2.426  0.00  0.00    +0.020 C 
ATOM     19  C   LIG    1        5.368   6.385  -2.554  0.00  0.00    +0.220 C 
ATOM     20  O   LIG    1        5.707   6.546  -3.933  0.00  0.00    -0.380 OA
ATOM     21  C   LIG    1        6.163   5.349  -4.566  0.00  0.00    +0.220 C 
ATOM     22  C   LIG    1        5.053   4.295  -4.519  0.00  0.00    +0.010 C 
BRANCH  17  23
ATOM     23  N   LIG    1        5.803   3.500  -2.328  0.00  0.00    -0.430 N 
ATOM     24  C   LIG    1        6.524   2.401  -2.688  0.00  0.00    +0.120 A 
ATOM     25  C   LIG    1        7.496   2.216  -1.771  0.00  0.00    -0.060 A 
ATOM     26  C   LIG    1        7.363   3.233  -0.805  0.00  0.00    -0.090 A 
ATOM     27  C   LIG    1        6.319   4.004  -1.171  0.00  0.00    +0.180 A 
ENDBRANCH  17  23
ENDBRANCH  16  17
ENDBRANCH   2  16
TORSDOF 4
