REMARK  Name = ZINCpk00000eaNBx.0
REMARK                            x       y       z     vdW  Elec       q    Type
REMARK                         _______ _______ _______ _____ _____    ______ ____
ROOT
ATOM      1  C   LIG    1        5.500  -0.639   2.320  0.00  0.00    +0.520 C 
ATOM      2  N   LIG    1        6.802  -0.330   2.157  0.00  0.00    -0.660 N 
ATOM      3  H   LIG    1        7.055   0.543   1.819  0.00  0.00    +0.410 HD
ATOM      4  O   LIG    1        5.186  -1.698   2.820  0.00  0.00    -0.490 OA
ENDROOT
BRANCH   2   5
ATOM      5  C   LIG    1        7.786  -1.267   2.473  0.00  0.00    +0.160 A 
ATOM      6  C   LIG    1        7.557  -2.215   3.447  0.00  0.00    +0.020 A 
ATOM      7  C   LIG    1        8.534  -3.153   3.768  0.00  0.00    +0.060 A 
ATOM      8  C   LIG    1        9.738  -3.162   3.132  0.00  0.00    +0.030 A 
ATOM      9  C   LIG    1       10.013  -2.214   2.132  0.00  0.00    +0.140 A 
ATOM     10  N   LIG    1       11.188  -2.206   1.495  0.00  0.00    -0.470 NA
ATOM     11  C   LIG    1       11.451  -1.324   0.561  0.00  0.00    +0.290 A 
ATOM     12  C   LIG    1       10.525  -0.355   0.186  0.00  0.00    -0.030 A 
ATOM     13  C   LIG    1        9.303  -0.308   0.798  0.00  0.00    +0.070 A 
ATOM     14  C   LIG    1        9.023  -1.257   1.795  0.00  0.00    -0.110 A 
ENDBRANCH   2   5
BRANCH   1  16
ATOM     15  C   LIG    1        4.601   1.649   2.643  0.00  0.00    +0.070 C 
ATOM     16  C   LIG    1        4.435   0.333   1.882  0.00  0.00    +0.190 C 
BRANCH  16  17
ATOM     17  O   LIG    1        3.125  -0.227   2.162  0.00  0.00    -0.330 OA
BRANCH  17  18
ATOM     18  C   LIG    1        2.121   0.135   1.348  0.00  0.00    +0.470 C 
ATOM     19  O   LIG    1        2.330   0.893   0.431  0.00  0.00    -0.480 OA
BRANCH  18  20
ATOM     20  C   LIG    1        0.733  -0.406   1.577  0.00  0.00    +0.150 C 
ATOM     21  C   LIG    1        0.571  -1.733   0.831  0.00  0.00    +0.260 C 
ATOM     22  O   LIG    1       -0.770  -2.203   0.990  0.00  0.00    -0.370 OA
ATOM     23  C   LIG    1       -1.762  -1.290   0.511  0.00  0.00    +0.240 C 
ATOM     24  C   LIG    1       -1.623   0.041   1.255  0.00  0.00    +0.170 C 
ATOM     25  N   LIG    1       -0.258   0.557   1.076  0.00  0.00    -0.520 NA
ATOM     26  C   LIG    1       -0.100   1.864   1.728  0.00  0.00    +0.200 C 
ENDBRANCH  18  20
ENDBRANCH  17  18
ENDBRANCH  16  17
ENDBRANCH   1  16
TORSDOF 5
