REMARK  Name = ZINCvU0000000FLw.0
REMARK                            x       y       z     vdW  Elec       q    Type
REMARK                         _______ _______ _______ _____ _____    ______ ____
ROOT
ATOM      1  C   LIG    1        1.748   0.207   6.247  0.00  0.00    +0.570 C 
ATOM      2  N   LIG    1        1.105   1.390   6.313  0.00  0.00    -0.560 N 
ATOM      3  O   LIG    1        2.075  -0.247   5.168  0.00  0.00    -0.500 OA
ENDROOT
BRANCH   2   4
ATOM      4  C   LIG    1        0.685   2.065   5.083  0.00  0.00    +0.300 C 
ATOM      5  C   LIG    1       -0.386   1.225   4.387  0.00  0.00    +0.040 C 
ATOM      6  C   LIG    1       -0.669   1.834   3.003  0.00  0.00    +0.230 C 
ATOM      7  N   LIG    1        0.566   1.732   2.213  0.00  0.00    -0.560 N 
ATOM      8  C   LIG    1        1.784   2.082   2.811  0.00  0.00    +0.180 A 
ATOM      9  C   LIG    1        2.905   2.263   2.009  0.00  0.00    +0.000 A 
ATOM     10  C   LIG    1        4.115   2.606   2.579  0.00  0.00    +0.030 A 
ATOM     11  C   LIG    1        4.210   2.768   3.949  0.00  0.00    -0.020 A 
ATOM     12  C   LIG    1        3.097   2.590   4.748  0.00  0.00    +0.030 A 
ATOM     13  C   LIG    1        0.527   1.313   0.932  0.00  0.00    +0.520 C 
ATOM     14  O   LIG    1        1.551   0.993   0.367  0.00  0.00    -0.520 OA
ATOM     15  C   LIG    1       -0.790   1.244   0.202  0.00  0.00    +0.120 C 
ATOM     16  C   LIG    1       -1.791   1.057   2.313  0.00  0.00    +0.050 C 
ATOM     17  C   LIG    1        1.879   2.248   4.184  0.00  0.00    -0.120 A 
ENDBRANCH   2   4
BRANCH   1  21
ATOM     18  C   LIG    1        2.630  -1.932   9.807  0.00  0.00    +0.160 A 
ATOM     19  C   LIG    1        2.414  -2.622   8.620  0.00  0.00    -0.020 A 
ATOM     20  C   LIG    1        2.127  -1.932   7.463  0.00  0.00    +0.120 A 
ATOM     21  C   LIG    1        2.055  -0.536   7.484  0.00  0.00    -0.180 A 
ATOM     22  C   LIG    1        2.279   0.153   8.679  0.00  0.00    +0.100 A 
ATOM     23  C   LIG    1        2.559  -0.544   9.832  0.00  0.00    -0.090 A 
BRANCH  18  25
ATOM     24  C   LIG    1        3.124  -1.845  12.130  0.00  0.00    +0.240 C 
ATOM     25  O   LIG    1        2.913  -2.616  10.945  0.00  0.00    -0.310 OA
ENDBRANCH  18  25
ENDBRANCH   1  21
BRANCH   2  26
ATOM     26  C   LIG    1        0.839   1.972   7.557  0.00  0.00    +0.140 A 
ATOM     27  C   LIG    1        0.041   1.308   8.480  0.00  0.00    +0.010 A 
ATOM     28  C   LIG    1       -0.216   1.883   9.709  0.00  0.00    +0.030 A 
ATOM     29  C   LIG    1        0.311   3.124  10.016  0.00  0.00    +0.010 A 
ATOM     30  C   LIG    1        1.101   3.791   9.098  0.00  0.00    +0.030 A 
ATOM     31  C   LIG    1        1.366   3.218   7.869  0.00  0.00    -0.010 A 
ENDBRANCH   2  26
TORSDOF 4
