REMARK  Name = ZINCrD000000B9tN.1
REMARK                            x       y       z     vdW  Elec       q    Type
REMARK                         _______ _______ _______ _____ _____    ______ ____
ROOT
ATOM      1  O   LIG    1       -3.995  -0.887   0.897  0.00  0.00    -0.580 OA
ATOM      2  C   LIG    1       -3.380  -0.061   1.543  0.00  0.00    +0.730 C 
ATOM      3  N   LIG    1       -3.970   0.555   2.587  0.00  0.00    -0.640 N 
ATOM      4  C   LIG    1       -3.343   1.564   3.453  0.00  0.00    +0.240 C 
ATOM      5  C   LIG    1       -4.402   2.003   4.486  0.00  0.00    +0.030 C 
ATOM      6  C   LIG    1       -5.740   1.624   3.798  0.00  0.00    +0.240 C 
ATOM      7  C   LIG    1       -5.349   0.323   3.053  0.00  0.00    +0.260 C 
ATOM      8  N   LIG    1       -2.107   0.240   1.216  0.00  0.00    -0.740 N 
ATOM      9  H   LIG    1       -1.616   0.899   1.731  0.00  0.00    +0.390 HD
ENDROOT
BRANCH   6  10
ATOM     10  N   LIG    1       -6.787   1.367   4.790  0.00  0.00    -0.740 N 
ATOM     11  H   LIG    1       -6.546   1.177   5.710  0.00  0.00    +0.400 HD
BRANCH  10  12
ATOM     12  C   LIG    1       -8.131   1.395   4.411  0.00  0.00    +0.210 A 
ATOM     13  C   LIG    1       -8.477   1.673   3.094  0.00  0.00    -0.080 A 
ATOM     14  C   LIG    1       -9.806   1.695   2.721  0.00  0.00    +0.050 A 
ATOM     15  C   LIG    1      -10.793   1.452   3.659  0.00  0.00    -0.060 A 
ATOM     16  C   LIG    1      -10.452   1.181   4.972  0.00  0.00    +0.050 A 
ATOM     17  C   LIG    1       -9.124   1.151   5.350  0.00  0.00    -0.070 A 
ENDBRANCH  10  12
ENDBRANCH   6  10
BRANCH   8  18
ATOM     18  C   LIG    1       -1.466  -0.429   0.081  0.00  0.00    +0.310 C 
BRANCH  18  19
ATOM     19  C   LIG    1        0.003  -0.008   0.005  0.00  0.00    +0.230 C 
BRANCH  19  20
ATOM     20  N   LIG    1        0.619  -0.592  -1.194  0.00  0.00    -0.500 NA
ATOM     21  C   LIG    1       -0.080  -0.141  -2.425  0.00  0.00    +0.170 C 
ATOM     22  C   LIG    1        0.967  -0.391  -3.539  0.00  0.00    +0.030 C 
ATOM     23  C   LIG    1        2.301  -0.022  -2.850  0.00  0.00    +0.010 C 
ATOM     24  C   LIG    1        2.022  -0.147  -1.340  0.00  0.00    +0.170 C 
ENDBRANCH  19  20
BRANCH  19  25
ATOM     25  C   LIG    1        0.730  -0.497   1.232  0.00  0.00    -0.000 A 
ATOM     26  C   LIG    1        1.038   0.244   2.311  0.00  0.00    -0.070 A 
ATOM     27  C   LIG    1        1.711  -0.609   3.215  0.00  0.00    -0.060 A 
ATOM     28  C   LIG    1        1.781  -1.818   2.631  0.00  0.00    +0.160 A 
ATOM     29  O   LIG    1        1.186  -1.744   1.429  0.00  0.00    -0.150 OA
ENDBRANCH  19  25
ENDBRANCH  18  19
ENDBRANCH   8  18
TORSDOF 6
