REMARK  Name = ZINCrg000000rhXZ.0
REMARK                            x       y       z     vdW  Elec       q    Type
REMARK                         _______ _______ _______ _____ _____    ______ ____
ROOT
ATOM      1  C   LIG    1       -0.683  -3.601  -5.375  0.00  0.00    +0.510 C 
ATOM      2  N   LIG    1       -0.516  -3.823  -4.057  0.00  0.00    -0.670 N 
ATOM      3  H   LIG    1       -1.187  -4.316  -3.559  0.00  0.00    +0.420 HD
ATOM      4  O   LIG    1        0.194  -3.059  -6.015  0.00  0.00    -0.520 OA
ENDROOT
BRANCH   2   5
ATOM      5  C   LIG    1        0.625  -3.342  -3.405  0.00  0.00    +0.140 A 
ATOM      6  C   LIG    1        1.844  -3.312  -4.069  0.00  0.00    +0.030 A 
ATOM      7  C   LIG    1        2.969  -2.837  -3.422  0.00  0.00    +0.030 A 
ATOM      8  C   LIG    1        2.881  -2.392  -2.116  0.00  0.00    +0.020 A 
ATOM      9  C   LIG    1        1.668  -2.421  -1.453  0.00  0.00    -0.100 A 
ATOM     10  C   LIG    1        0.541  -2.899  -2.091  0.00  0.00    +0.020 A 
BRANCH   9  11
ATOM     11  C   LIG    1        1.578  -1.935  -0.029  0.00  0.00    +0.380 C 
BRANCH  11  12
ATOM     12  N   LIG    1        1.271  -0.502  -0.020  0.00  0.00    -0.570 N 
ATOM     13  C   LIG    1        2.202   0.471  -0.026  0.00  0.00    +0.520 C 
ATOM     14  C   LIG    1        1.431   1.776  -0.014  0.00  0.00    +0.310 C 
ATOM     15  N   LIG    1        0.022   1.346  -0.001  0.00  0.00    -0.730 N 
ATOM     16  H   LIG    1       -0.760   1.920   0.005  0.00  0.00    +0.440 HD
ATOM     17  O   LIG    1        3.406   0.333  -0.038  0.00  0.00    -0.460 OA
ATOM     18  C   LIG    1        0.031   0.000  -0.006  0.00  0.00    +0.700 C 
ATOM     19  O   LIG    1       -0.975  -0.682   0.002  0.00  0.00    -0.540 OA
ENDBRANCH  11  12
ENDBRANCH   9  11
ENDBRANCH   2   5
BRANCH   1  21
ATOM     20  C   LIG    1       -3.145  -3.311  -5.408  0.00  0.00    +0.060 C 
ATOM     21  C   LIG    1       -1.958  -4.027  -6.056  0.00  0.00    +0.250 C 
BRANCH  21  22
ATOM     22  N   LIG    1       -1.894  -3.677  -7.477  0.00  0.00    -0.710 N 
ATOM     23  H   LIG    1       -1.321  -2.952  -7.773  0.00  0.00    +0.410 HD
ATOM     24  C   LIG    1       -2.631  -4.362  -8.374  0.00  0.00    +0.600 C 
ATOM     25  O   LIG    1       -3.349  -5.271  -8.003  0.00  0.00    -0.530 OA
BRANCH  24  26
ATOM     26  C   LIG    1       -2.566  -4.010  -9.804  0.00  0.00    -0.240 A 
ATOM     27  C   LIG    1       -1.820  -3.022 -10.377  0.00  0.00    +0.240 A 
ATOM     28  O   LIG    1       -2.044  -3.035 -11.694  0.00  0.00    -0.170 OA
ATOM     29  C   LIG    1       -2.922  -3.996 -12.021  0.00  0.00    +0.170 A 
ATOM     30  C   LIG    1       -3.296  -4.647 -10.910  0.00  0.00    +0.000 A 
ENDBRANCH  24  26
ENDBRANCH  21  22
ENDBRANCH   1  21
TORSDOF 6
