REMARK  Name = ZINCrH000004vA7O.0
REMARK                            x       y       z     vdW  Elec       q    Type
REMARK                         _______ _______ _______ _____ _____    ______ ____
ROOT
ATOM      1  O   LIG    1        3.504   3.770   0.083  0.00  0.00    -0.520 OA
ATOM      2  C   LIG    1        2.435   4.344   0.002  0.00  0.00    +0.590 C 
ATOM      3  N   LIG    1        2.397   5.688  -0.093  0.00  0.00    -0.610 N 
ATOM      4  C   LIG    1        1.178   6.512  -0.096  0.00  0.00    +0.260 C 
ATOM      5  C   LIG    1        1.622   7.989  -0.194  0.00  0.00    +0.090 C 
ATOM      6  C   LIG    1        3.083   7.941   0.285  0.00  0.00    -0.070 C 
ATOM      7  C   LIG    1        3.187   8.066   1.776  0.00  0.00    +0.540 C 
ATOM      8  N   LIG    1        3.963   9.142   2.017  0.00  0.00    -0.660 N 
ATOM      9  H   LIG    1        4.195   9.455   2.905  0.00  0.00    +0.420 HD
ATOM     10  C   LIG    1        4.394   9.754   0.837  0.00  0.00    +0.150 A 
ATOM     11  C   LIG    1        5.197  10.873   0.633  0.00  0.00    -0.010 A 
ATOM     12  C   LIG    1        5.491  11.293  -0.648  0.00  0.00    +0.050 A 
ATOM     13  C   LIG    1        4.991  10.608  -1.739  0.00  0.00    -0.010 A 
ATOM     14  C   LIG    1        4.192   9.495  -1.546  0.00  0.00    +0.070 A 
ATOM     15  O   LIG    1        2.675   7.341   2.603  0.00  0.00    -0.480 OA
ATOM     16  C   LIG    1        3.894   9.072  -0.270  0.00  0.00    -0.130 A 
ATOM     17  C   LIG    1        3.571   6.575  -0.217  0.00  0.00    +0.320 C 
ENDROOT
BRANCH   2  18
ATOM     18  C   LIG    1        1.181   3.570   0.006  0.00  0.00    -0.130 A 
ATOM     19  C   LIG    1        0.177   3.845  -0.914  0.00  0.00    +0.090 A 
ATOM     20  C   LIG    1       -1.003   3.117  -0.910  0.00  0.00    -0.020 A 
ATOM     21  C   LIG    1       -1.222   2.101  -0.011  0.00  0.00    +0.140 A 
ATOM     22  C   LIG    1       -0.246   1.777   0.951  0.00  0.00    -0.090 A 
ATOM     23  C   LIG    1       -0.454   0.746   1.882  0.00  0.00    +0.040 A 
ATOM     24  C   LIG    1        0.516   0.457   2.795  0.00  0.00    +0.020 A 
ATOM     25  C   LIG    1        1.712   1.169   2.819  0.00  0.00    +0.030 A 
ATOM     26  C   LIG    1        1.946   2.175   1.929  0.00  0.00    +0.040 A 
ATOM     27  F   LIG    1       -2.384   1.413  -0.046  0.00  0.00    -0.130 F 
ATOM     28  C   LIG    1        0.972   2.499   0.978  0.00  0.00    +0.010 A 
ENDBRANCH   2  18
TORSDOF 1
