REMARK  Name = ZINCqH0000005eZe.2
REMARK                            x       y       z     vdW  Elec       q    Type
REMARK                         _______ _______ _______ _____ _____    ______ ____
ROOT
ATOM      1  C   LIG    1        1.758   3.132   0.001  0.00  0.00    +0.330 C 
ENDROOT
BRANCH   1   2
ATOM      2  C   LIG    1        2.289   3.471   1.371  0.00  0.00    -0.100 A 
ATOM      3  C   LIG    1        3.546   3.042   1.750  0.00  0.00    +0.060 A 
ATOM      4  C   LIG    1        4.035   3.356   3.004  0.00  0.00    +0.010 A 
ATOM      5  C   LIG    1        3.262   4.093   3.882  0.00  0.00    +0.010 A 
ATOM      6  C   LIG    1        2.002   4.518   3.505  0.00  0.00    +0.010 A 
ATOM      7  C   LIG    1        1.515   4.207   2.249  0.00  0.00    +0.020 A 
ENDBRANCH   1   2
BRANCH   1   8
ATOM      8  C   LIG    1        1.240   1.717  -0.001  0.00  0.00    +0.200 A 
ATOM      9  N   LIG    1       -0.016   1.348   0.009  0.00  0.00    -0.470 NA
ATOM     10  C   LIG    1        0.002  -0.004   0.002  0.00  0.00    +0.210 A 
ATOM     11  N   LIG    1        1.256  -0.373  -0.012  0.00  0.00    -0.370 NA
ATOM     12  O   LIG    1        1.978   0.602  -0.014  0.00  0.00    +0.100 OA
BRANCH  10  13
ATOM     13  C   LIG    1       -1.180  -0.901   0.009  0.00  0.00    -0.030 A 
ATOM     14  C   LIG    1       -2.466  -0.364   0.029  0.00  0.00    +0.050 A 
ATOM     15  C   LIG    1       -3.562  -1.203   0.031  0.00  0.00    +0.010 A 
ATOM     16  C   LIG    1       -3.385  -2.575   0.022  0.00  0.00    +0.030 A 
ATOM     17  C   LIG    1       -2.112  -3.114   0.006  0.00  0.00    +0.010 A 
ATOM     18  C   LIG    1       -1.009  -2.284  -0.001  0.00  0.00    +0.050 A 
ENDBRANCH  10  13
ENDBRANCH   1   8
BRANCH   1  20
ATOM     19  C   LIG    1        2.380   2.847  -2.321  0.00  0.00    +0.210 C 
ATOM     20  N   LIG    1        2.837   3.261  -0.988  0.00  0.00    -0.530 NA
BRANCH  20  21
ATOM     21  C   LIG    1        3.366   4.630  -1.014  0.00  0.00    +0.200 C 
BRANCH  21  22
ATOM     22  C   LIG    1        4.639   4.669  -1.862  0.00  0.00    -0.030 C 
ATOM     23  C   LIG    1        5.148   6.120  -2.010  0.00  0.00    +0.010 C 
ATOM     24  C   LIG    1        6.549   6.095  -1.359  0.00  0.00    +0.190 C 
ATOM     25  O   LIG    1        6.971   4.716  -1.446  0.00  0.00    -0.380 OA
ATOM     26  C   LIG    1        5.793   3.938  -1.141  0.00  0.00    +0.210 C 
ENDBRANCH  21  22
ENDBRANCH  20  21
ENDBRANCH   1  20
TORSDOF 6
