REMARK  Name = ZINCrD000002EYZg.0
REMARK                            x       y       z     vdW  Elec       q    Type
REMARK                         _______ _______ _______ _____ _____    ______ ____
ROOT
ATOM      1  C   LIG    1       -0.479  -5.196  -0.157  0.00  0.00    +0.240 C 
ENDROOT
BRANCH   1   2
ATOM      2  C   LIG    1        0.106  -5.369  -1.560  0.00  0.00    -0.010 C 
ATOM      3  C   LIG    1       -0.943  -6.004  -2.495  0.00  0.00    +0.010 C 
ATOM      4  C   LIG    1       -0.120  -6.950  -3.404  0.00  0.00    +0.020 C 
ATOM      5  C   LIG    1        0.935  -7.529  -2.428  0.00  0.00    +0.010 C 
ATOM      6  C   LIG    1        1.300  -6.339  -1.516  0.00  0.00    +0.020 C 
ENDBRANCH   1   2
BRANCH   1   7
ATOM      7  N   LIG    1       -1.648  -4.315  -0.220  0.00  0.00    -0.720 N 
ATOM      8  H   LIG    1       -2.540  -4.694  -0.244  0.00  0.00    +0.400 HD
ATOM      9  C   LIG    1       -1.483  -2.977  -0.245  0.00  0.00    +0.560 C 
ATOM     10  O   LIG    1       -0.371  -2.499  -0.122  0.00  0.00    -0.500 OA
BRANCH   9  11
ATOM     11  C   LIG    1       -2.649  -2.094  -0.422  0.00  0.00    -0.130 A 
ATOM     12  C   LIG    1       -3.929  -2.638  -0.558  0.00  0.00    +0.070 A 
ATOM     13  C   LIG    1       -5.014  -1.807  -0.730  0.00  0.00    -0.010 A 
ATOM     14  C   LIG    1       -4.846  -0.432  -0.762  0.00  0.00    +0.060 A 
ATOM     15  C   LIG    1       -3.590   0.122  -0.623  0.00  0.00    -0.020 A 
ATOM     16  C   LIG    1       -2.482  -0.700  -0.450  0.00  0.00    -0.040 A 
BRANCH  16  17
ATOM     17  S   LIG    1       -0.877   0.004  -0.272  0.00  0.00    -0.000 S 
ATOM     18  C   LIG    1       -1.198   1.786  -0.382  0.00  0.00    +0.070 C 
ENDBRANCH  16  17
ENDBRANCH   9  11
ENDBRANCH   1   7
BRANCH   1  19
ATOM     19  C   LIG    1       -0.899  -6.561   0.393  0.00  0.00    +0.270 C 
BRANCH  19  21
ATOM     20  C   LIG    1       -1.954  -7.463   2.395  0.00  0.00    +0.490 C 
ATOM     21  N   LIG    1       -1.506  -6.389   1.715  0.00  0.00    -0.720 N 
ATOM     22  H   LIG    1       -1.587  -5.502   2.100  0.00  0.00    +0.410 HD
ATOM     23  O   LIG    1       -1.854  -8.571   1.913  0.00  0.00    -0.530 OA
BRANCH  20  24
ATOM     24  C   LIG    1       -2.580  -7.286   3.755  0.00  0.00    +0.120 C 
ATOM     25  C   LIG    1       -4.064  -6.952   3.595  0.00  0.00    +0.090 C 
BRANCH  24  26
ATOM     26  O   LIG    1       -1.924  -6.221   4.446  0.00  0.00    -0.550 OA
ATOM     27  H   LIG    1       -0.978  -6.365   4.584  0.00  0.00    +0.380 HD
ENDBRANCH  24  26
BRANCH  24  28
ATOM     28  C   LIG    1       -2.432  -8.581   4.556  0.00  0.00    +0.030 C 
BRANCH  28  30
ATOM     29  C   LIG    1       -3.027  -9.739   6.689  0.00  0.00    +0.010 C 
ATOM     30  C   LIG    1       -3.174  -8.444   5.888  0.00  0.00    +0.020 C 
ENDBRANCH  28  30
ENDBRANCH  24  28
ENDBRANCH  20  24
ENDBRANCH  19  21
ENDBRANCH   1  19
TORSDOF 10
