REMARK  Name = ZINCkj000005mljW.0
REMARK                            x       y       z     vdW  Elec       q    Type
REMARK                         _______ _______ _______ _____ _____    ______ ____
ROOT
ATOM      1  C   LIG    1        1.104   7.440  -1.433  0.00  0.00    +0.160 C 
ENDROOT
BRANCH   1   2
ATOM      2  C   LIG    1        1.162   7.835  -2.910  0.00  0.00    +0.220 C 
BRANCH   2   3
ATOM      3  O   LIG    1       -0.123   7.640  -3.506  0.00  0.00    -0.540 OA
ATOM      4  H   LIG    1       -0.828   8.161  -3.099  0.00  0.00    +0.390 HD
ENDBRANCH   2   3
BRANCH   2   5
ATOM      5  C   LIG    1        1.562   9.307  -3.030  0.00  0.00    +0.230 C 
BRANCH   5   6
ATOM      6  N   LIG    1        1.617   9.685  -4.448  0.00  0.00    -0.390 N 
ATOM      7  C   LIG    1        0.298   9.458  -5.091  0.00  0.00    +0.280 C 
ATOM      8  C   LIG    1        0.342  10.387  -6.330  0.00  0.00    +0.070 C 
ATOM      9  C   LIG    1        1.093  11.631  -5.802  0.00  0.00    +0.050 C 
ATOM     10  C   LIG    1        1.885  11.134  -4.579  0.00  0.00    +0.250 C 
ATOM     11  H   LIG    1        2.333   9.155  -4.922  0.00  0.00    +0.430 HD
ENDBRANCH   5   6
ENDBRANCH   2   5
ENDBRANCH   1   2
BRANCH   1  12
ATOM     12  O   LIG    1        0.845   6.039  -1.324  0.00  0.00    -0.370 OA
BRANCH  12  13
ATOM     13  C   LIG    1        0.771   5.565   0.022  0.00  0.00    +0.250 C 
BRANCH  13  14
ATOM     14  C   LIG    1        0.496   4.083   0.018  0.00  0.00    -0.090 A 
ATOM     15  C   LIG    1       -0.808   3.624   0.028  0.00  0.00    +0.060 A 
ATOM     16  C   LIG    1       -1.065   2.265   0.019  0.00  0.00    +0.040 A 
ATOM     17  C   LIG    1       -0.016   1.361   0.009  0.00  0.00    +0.050 A 
ATOM     18  O   LIG    1        0.002  -0.004   0.002  0.00  0.00    -0.310 OA
ATOM     19  C   LIG    1        1.336  -0.373   0.399  0.00  0.00    +0.440 C 
ATOM     20  O   LIG    1        2.139   0.749  -0.014  0.00  0.00    -0.310 OA
ATOM     21  C   LIG    1        1.297   1.824  -0.001  0.00  0.00    +0.030 A 
ATOM     22  C   LIG    1        1.548   3.186   0.004  0.00  0.00    +0.060 A 
ENDBRANCH  13  14
ENDBRANCH  12  13
ENDBRANCH   1  12
TORSDOF 7
