REMARK  Name = ZINCpe00000Nar9M.0
REMARK                            x       y       z     vdW  Elec       q    Type
REMARK                         _______ _______ _______ _____ _____    ______ ____
ROOT
ATOM      1  O   LIG    1       -4.743  -0.371   0.739  0.00  0.00    -0.510 OA
ATOM      2  C   LIG    1       -4.040  -0.005   1.657  0.00  0.00    +0.510 C 
ATOM      3  N   LIG    1       -2.884   0.641   1.405  0.00  0.00    -0.720 N 
ATOM      4  H   LIG    1       -2.322   0.933   2.139  0.00  0.00    +0.400 HD
ENDROOT
BRANCH   2   5
ATOM      5  C   LIG    1       -4.460  -0.271   3.080  0.00  0.00    -0.080 C 
ATOM      6  C   LIG    1       -3.646  -1.434   3.593  0.00  0.00    +0.070 C 
ATOM      7  C   LIG    1       -4.350  -2.691   3.041  0.00  0.00    +0.010 C 
ATOM      8  C   LIG    1       -5.641  -2.185   2.329  0.00  0.00    +0.060 C 
ATOM      9  C   LIG    1       -4.541   1.053   3.798  0.00  0.00    -0.290 C 
ATOM     10  S   LIG    1       -6.168   1.724   3.254  0.00  0.00    +2.360 S 
ATOM     11  O   LIG    1       -5.957   2.792   2.341  0.00  0.00    -0.930 OA
ATOM     12  O   LIG    1       -7.003   1.914   4.388  0.00  0.00    -0.930 OA
ATOM     13  C   LIG    1       -6.719   0.223   2.331  0.00  0.00    -0.270 C 
ATOM     14  C   LIG    1       -5.905  -0.860   3.034  0.00  0.00    +0.030 C 
ENDBRANCH   2   5
BRANCH   3  15
ATOM     15  C   LIG    1       -2.476   0.900   0.022  0.00  0.00    +0.330 C 
BRANCH  15  16
ATOM     16  C   LIG    1       -1.157   1.629   0.016  0.00  0.00    -0.060 A 
ATOM     17  C   LIG    1       -1.137   3.011   0.044  0.00  0.00    +0.030 A 
ATOM     18  C   LIG    1        0.080   3.667   0.036  0.00  0.00    +0.140 A 
ATOM     19  C   LIG    1        1.256   2.947   0.007  0.00  0.00    -0.620 A 
ATOM     20  C   LIG    1        1.257   1.564  -0.022  0.00  0.00    -0.040 A 
ATOM     21  C   LIG    1        2.615   0.909  -0.070  0.00  0.00    +0.130 C 
ATOM     22  C   LIG    1        3.710   1.877   0.425  0.00  0.00    -0.270 C 
ATOM     23  S   LIG    1        2.947   3.491   0.002  0.00  0.00    +2.470 S 
ATOM     24  O   LIG    1        3.222   3.863  -1.342  0.00  0.00    -0.920 OA
ATOM     25  O   LIG    1        3.051   4.415   1.077  0.00  0.00    -0.930 OA
ATOM     26  C   LIG    1        0.019   0.915  -0.013  0.00  0.00    +0.030 A 
ENDBRANCH  15  16
ENDBRANCH   3  15
TORSDOF 3
