REMARK  Name = ZINCqH0000050Hpr.0
REMARK                            x       y       z     vdW  Elec       q    Type
REMARK                         _______ _______ _______ _____ _____    ______ ____
ROOT
ATOM      1  C   LIG    1        0.828  -0.413  -0.190  0.00  0.00    +0.250 C 
ATOM      2  C   LIG    1        0.706  -0.869   1.266  0.00  0.00    +0.020 C 
ATOM      3  C   LIG    1        0.353  -2.358   1.308  0.00  0.00    +0.030 C 
ATOM      4  C   LIG    1       -0.996  -2.579   0.617  0.00  0.00    +0.280 C 
ATOM      5  N   LIG    1       -0.932  -2.012  -0.737  0.00  0.00    -0.590 N 
ATOM      6  C   LIG    1       -1.249  -2.763  -1.811  0.00  0.00    +0.580 C 
ATOM      7  O   LIG    1       -1.454  -3.953  -1.681  0.00  0.00    -0.520 OA
ATOM      8  C   LIG    1       -0.516  -0.613  -0.898  0.00  0.00    +0.300 C 
ENDROOT
BRANCH   1  12
ATOM      9  C   LIG    1        0.536   4.590  -0.188  0.00  0.00    +0.110 C 
ATOM     10  C   LIG    1        1.076   3.184  -0.229  0.00  0.00    -0.240 A 
ATOM     11  C   LIG    1        0.343   2.048  -0.164  0.00  0.00    +0.220 A 
ATOM     12  N   LIG    1        1.196   1.004  -0.230  0.00  0.00    -0.360 N 
ATOM     13  N   LIG    1        2.495   1.516  -0.348  0.00  0.00    -0.290 NA
ATOM     14  C   LIG    1        2.421   2.822  -0.347  0.00  0.00    +0.230 A 
ENDBRANCH   1  12
BRANCH   6  15
ATOM     15  C   LIG    1       -1.349  -2.135  -3.149  0.00  0.00    +0.080 A 
ATOM     16  C   LIG    1       -1.479  -2.938  -4.277  0.00  0.00    +0.050 A 
ATOM     17  C   LIG    1       -1.572  -2.329  -5.532  0.00  0.00    +0.010 A 
ATOM     18  C   LIG    1       -1.528  -0.935  -5.596  0.00  0.00    +0.010 A 
ATOM     19  C   LIG    1       -1.397  -0.209  -4.426  0.00  0.00    +0.270 A 
ATOM     20  N   LIG    1       -1.317  -0.812  -3.259  0.00  0.00    -0.460 NA
BRANCH  17  21
ATOM     21  C   LIG    1       -1.713  -3.144  -6.765  0.00  0.00    -0.060 A 
ATOM     22  C   LIG    1       -1.749  -4.535  -6.683  0.00  0.00    +0.030 A 
ATOM     23  C   LIG    1       -1.886  -5.287  -7.832  0.00  0.00    +0.010 A 
ATOM     24  C   LIG    1       -1.975  -4.663  -9.064  0.00  0.00    +0.020 A 
ATOM     25  C   LIG    1       -1.934  -3.284  -9.151  0.00  0.00    +0.010 A 
ATOM     26  C   LIG    1       -1.804  -2.521  -8.008  0.00  0.00    +0.030 A 
ENDBRANCH  17  21
ENDBRANCH   6  15
TORSDOF 3
