REMARK  Name = ZINCrH000004ow81.0
REMARK                            x       y       z     vdW  Elec       q    Type
REMARK                         _______ _______ _______ _____ _____    ______ ____
ROOT
ATOM      1  C   LIG    1       -5.268  -2.365  -2.457  0.00  0.00    +0.180 A 
ATOM      2  N   LIG    1       -5.123  -1.244  -3.106  0.00  0.00    -0.250 NA
ATOM      3  N   LIG    1       -5.849  -1.264  -4.168  0.00  0.00    -0.250 NA
ATOM      4  C   LIG    1       -6.487  -2.409  -4.234  0.00  0.00    +0.190 A 
ATOM      5  O   LIG    1       -6.127  -3.130  -3.153  0.00  0.00    -0.220 OA
ENDROOT
BRANCH   4   6
ATOM      6  C   LIG    1       -7.423  -2.831  -5.298  0.00  0.00    +0.030 A 
ATOM      7  C   LIG    1       -8.028  -4.087  -5.240  0.00  0.00    +0.070 A 
ATOM      8  C   LIG    1       -8.904  -4.474  -6.234  0.00  0.00    +0.120 A 
ATOM      9  C   LIG    1       -9.174  -3.624  -7.291  0.00  0.00    -0.030 A 
ATOM     10  C   LIG    1       -8.573  -2.379  -7.357  0.00  0.00    +0.120 A 
ATOM     11  C   LIG    1       -7.699  -1.978  -6.367  0.00  0.00    +0.100 A 
BRANCH   9  12
ATOM     12  N   LIG    1      -10.109  -4.047  -8.357  0.00  0.00    +0.020 N 
ATOM     13  O   LIG    1      -10.640  -5.142  -8.302  0.00  0.00    -0.150 OA
ATOM     14  O   LIG    1      -10.349  -3.301  -9.289  0.00  0.00    -0.150 OA
ENDBRANCH   9  12
ENDBRANCH   4   6
BRANCH   1  16
ATOM     15  C   LIG    1       -5.250  -1.984  -0.007  0.00  0.00    +0.080 C 
ATOM     16  C   LIG    1       -4.591  -2.739  -1.163  0.00  0.00    +0.260 C 
BRANCH  16  17
ATOM     17  N   LIG    1       -3.168  -2.381  -1.235  0.00  0.00    -0.520 NA
ATOM     18  C   LIG    1       -2.523  -3.015  -2.392  0.00  0.00    +0.190 C 
BRANCH  17  19
ATOM     19  C   LIG    1       -2.474  -2.732   0.012  0.00  0.00    +0.210 C 
BRANCH  19  20
ATOM     20  C   LIG    1       -1.069  -2.126   0.001  0.00  0.00    +0.190 C 
BRANCH  20  21
ATOM     21  O   LIG    1       -1.165  -0.701   0.010  0.00  0.00    -0.300 OA
BRANCH  21  22
ATOM     22  C   LIG    1        0.002  -0.004   0.002  0.00  0.00    +0.130 A 
ATOM     23  C   LIG    1       -0.017   1.383   0.010  0.00  0.00    -0.020 A 
ATOM     24  C   LIG    1        1.171   2.089   0.002  0.00  0.00    +0.050 A 
ATOM     25  C   LIG    1        2.377   1.414  -0.013  0.00  0.00    -0.040 A 
ATOM     26  C   LIG    1        2.399   0.031  -0.021  0.00  0.00    +0.040 A 
ATOM     27  C   LIG    1        1.214  -0.679  -0.013  0.00  0.00    -0.090 A 
ENDBRANCH  21  22
ENDBRANCH  20  21
ENDBRANCH  19  20
ENDBRANCH  17  19
ENDBRANCH  16  17
ENDBRANCH   1  16
TORSDOF 8
