REMARK  Name = ZINCtV000002wiD4.0
REMARK                            x       y       z     vdW  Elec       q    Type
REMARK                         _______ _______ _______ _____ _____    ______ ____
ROOT
ATOM      1  N   LIG    1        3.525   2.728  -0.017  0.00  0.00    -0.670 N 
ATOM      2  H   LIG    1        2.822   2.272   0.471  0.00  0.00    +0.410 HD
ATOM      3  C   LIG    1        3.279   3.921  -0.594  0.00  0.00    +0.590 C 
ATOM      4  O   LIG    1        4.182   4.533  -1.133  0.00  0.00    -0.470 OA
ENDROOT
BRANCH   3   5
ATOM      5  C   LIG    1        1.924   4.482  -0.571  0.00  0.00    -0.240 A 
ATOM      6  C   LIG    1        1.576   5.655  -1.113  0.00  0.00    +0.050 A 
ATOM      7  C   LIG    1        0.224   6.009  -0.974  0.00  0.00    -0.080 A 
ATOM      8  C   LIG    1       -0.443   7.169  -1.440  0.00  0.00    +0.030 A 
ATOM      9  C   LIG    1       -1.774   7.338  -1.213  0.00  0.00    +0.060 A 
ATOM     10  C   LIG    1       -2.504   6.374  -0.528  0.00  0.00    +0.010 A 
ATOM     11  C   LIG    1       -1.885   5.234  -0.069  0.00  0.00    +0.080 A 
ATOM     12 CL   LIG    1       -4.202   6.609  -0.249  0.00  0.00    -0.030 Cl
ATOM     13 CL   LIG    1        0.446   8.388  -2.298  0.00  0.00    -0.020 Cl
ATOM     14  C   LIG    1       -0.518   5.039  -0.289  0.00  0.00    -0.100 A 
ATOM     15 CL   LIG    1        2.721   6.675  -1.927  0.00  0.00    +0.010 Cl
ATOM     16  S   LIG    1        0.535   3.706   0.171  0.00  0.00    +0.200 S 
ENDBRANCH   3   5
BRANCH   1  20
ATOM     17  C   LIG    1        7.303   1.001  -0.329  0.00  0.00    -0.690 A 
ATOM     18  C   LIG    1        7.178   2.375  -0.226  0.00  0.00    +0.140 A 
ATOM     19  C   LIG    1        5.927   2.950  -0.122  0.00  0.00    +0.010 A 
ATOM     20  C   LIG    1        4.793   2.148  -0.122  0.00  0.00    +0.200 A 
ATOM     21  C   LIG    1        4.922   0.769  -0.220  0.00  0.00    -0.020 A 
ATOM     22  C   LIG    1        6.176   0.200  -0.329  0.00  0.00    +0.150 A 
BRANCH  17  23
ATOM     23  S   LIG    1        8.900   0.271  -0.461  0.00  0.00    +2.690 S 
ATOM     24  O   LIG    1        9.760   1.277  -0.980  0.00  0.00    -0.950 OA
ATOM     25  O   LIG    1        8.714  -0.991  -1.087  0.00  0.00    -0.950 OA
BRANCH  23  26
ATOM     26  N   LIG    1        9.424  -0.044   1.078  0.00  0.00    -1.000 NA
BRANCH  26  28
ATOM     27  C   LIG    1       10.305  -2.286   1.500  0.00  0.00    +0.010 C 
ATOM     28  C   LIG    1        9.125  -1.334   1.704  0.00  0.00    +0.280 C 
ENDBRANCH  26  28
BRANCH  26  29
ATOM     29  C   LIG    1       10.187   0.968   1.814  0.00  0.00    +0.290 C 
ATOM     30  C   LIG    1        9.236   1.782   2.695  0.00  0.00    +0.010 C 
ENDBRANCH  26  29
ENDBRANCH  23  26
ENDBRANCH  17  23
ENDBRANCH   1  20
TORSDOF 6
