REMARK  Name = ZINCvU0000000B76.0
REMARK                            x       y       z     vdW  Elec       q    Type
REMARK                         _______ _______ _______ _____ _____    ______ ____
ROOT
ATOM      1  C   LIG    1        6.350   6.961  -1.639  0.00  0.00    +0.300 A 
ATOM      2  N   LIG    1        6.173   6.348  -0.511  0.00  0.00    -0.330 NA
ATOM      3  N   LIG    1        5.061   5.537  -0.442  0.00  0.00    -0.260 NA
ATOM      4  C   LIG    1        4.334   5.491  -1.515  0.00  0.00    +0.010 A 
ATOM      5  S   LIG    1        5.055   6.521  -2.747  0.00  0.00    +0.100 S 
ENDROOT
BRANCH   1   6
ATOM      6  N   LIG    1        7.400   7.825  -1.930  0.00  0.00    -0.620 N 
ATOM      7  H   LIG    1        7.505   8.176  -2.828  0.00  0.00    +0.430 HD
BRANCH   6  11
ATOM      8  C   LIG    1       10.094   8.907   1.056  0.00  0.00    -0.090 A 
ATOM      9  C   LIG    1       10.508   8.858  -0.263  0.00  0.00    +0.040 A 
ATOM     10  C   LIG    1        9.618   8.500  -1.255  0.00  0.00    -0.010 A 
ATOM     11  C   LIG    1        8.304   8.188  -0.928  0.00  0.00    +0.150 A 
ATOM     12  C   LIG    1        7.890   8.243   0.397  0.00  0.00    +0.020 A 
ATOM     13  C   LIG    1        8.787   8.597   1.385  0.00  0.00    +0.040 A 
BRANCH   8  15
ATOM     14  C   LIG    1       10.559  10.552   2.852  0.00  0.00    +0.030 C 
ATOM     15  C   LIG    1       11.069   9.299   2.136  0.00  0.00    +0.020 C 
ATOM     16  C   LIG    1       11.202   8.155   3.143  0.00  0.00    +0.030 C 
ENDBRANCH   8  15
ENDBRANCH   6  11
ENDBRANCH   1   6
BRANCH   4  17
ATOM     17  S   LIG    1        2.863   4.541  -1.712  0.00  0.00    +0.060 S 
BRANCH  17  18
ATOM     18  C   LIG    1        2.688   3.722  -0.102  0.00  0.00    +0.190 C 
BRANCH  18  19
ATOM     19  C   LIG    1        1.454   2.858  -0.110  0.00  0.00    +0.210 A 
ATOM     20  C   LIG    1        1.564   1.498  -0.205  0.00  0.00    -0.100 A 
ATOM     21  C   LIG    1        0.406   0.717  -0.210  0.00  0.00    +0.530 A 
ATOM     22  N   LIG    1       -0.817   1.320  -0.125  0.00  0.00    -0.470 N 
ATOM     23  C   LIG    1       -2.049   0.662  -0.113  0.00  0.00    +0.090 A 
ATOM     24  C   LIG    1       -2.264  -0.723  -0.198  0.00  0.00    +0.080 A 
ATOM     25  C   LIG    1       -3.540  -1.236  -0.180  0.00  0.00    +0.050 A 
ATOM     26  C   LIG    1       -4.639  -0.400  -0.080  0.00  0.00    +0.050 A 
ATOM     27  C   LIG    1       -4.450   0.965   0.004  0.00  0.00    +0.100 A 
ATOM     28  C   LIG    1       -3.166   1.485  -0.013  0.00  0.00    -0.150 A 
ATOM     29  S   LIG    1       -2.554   3.141   0.073  0.00  0.00    +0.210 S 
ATOM     30  C   LIG    1       -0.849   2.673  -0.028  0.00  0.00    +0.340 A 
ATOM     31  O   LIG    1        0.486  -0.498  -0.295  0.00  0.00    -0.510 OA
ATOM     32  N   LIG    1        0.249   3.409  -0.024  0.00  0.00    -0.490 NA
ENDBRANCH  18  19
ENDBRANCH  17  18
ENDBRANCH   4  17
TORSDOF 6
