REMARK  Name = ZINCrD00000F5Lo5.0
REMARK                            x       y       z     vdW  Elec       q    Type
REMARK                         _______ _______ _______ _____ _____    ______ ____
ROOT
ATOM      1  C   LIG    1        3.854   8.045   1.452  0.00  0.00    +0.100 C 
ATOM      2  C   LIG    1        5.266   7.600   1.170  0.00  0.00    +0.140 C 
ATOM      3  N   LIG    1        5.499   6.379   0.795  0.00  0.00    -0.220 NA
ENDROOT
BRANCH   2   4
ATOM      4  C   LIG    1        6.383   8.551   1.320  0.00  0.00    -0.040 A 
ATOM      5  C   LIG    1        6.134   9.865   1.723  0.00  0.00    +0.060 A 
ATOM      6  C   LIG    1        7.178  10.755   1.864  0.00  0.00    +0.040 A 
ATOM      7  C   LIG    1        8.477  10.348   1.606  0.00  0.00    +0.090 A 
ATOM      8  O   LIG    1        9.514  11.219   1.743  0.00  0.00    -0.300 OA
ATOM      9  C   LIG    1       10.761  10.670   2.176  0.00  0.00    +0.300 C 
ATOM     10  C   LIG    1       11.067   9.423   1.387  0.00  0.00    +0.490 C 
ATOM     11  N   LIG    1       10.056   8.645   0.944  0.00  0.00    -0.660 N 
ATOM     12  H   LIG    1       10.240   7.827   0.456  0.00  0.00    +0.420 HD
ATOM     13  O   LIG    1       12.217   9.120   1.149  0.00  0.00    -0.510 OA
ATOM     14  C   LIG    1        8.734   9.037   1.202  0.00  0.00    +0.090 A 
ATOM     15  C   LIG    1        7.694   8.138   1.064  0.00  0.00    +0.070 A 
ENDBRANCH   2   4
BRANCH   3  16
ATOM     16  N   LIG    1        4.438   5.475   0.653  0.00  0.00    -0.580 N 
ATOM     17  H   LIG    1        3.530   5.762   0.835  0.00  0.00    +0.380 HD
ATOM     18  C   LIG    1        4.680   4.208   0.264  0.00  0.00    +0.610 C 
ATOM     19  O   LIG    1        5.821   3.848   0.036  0.00  0.00    -0.490 OA
BRANCH  18  20
ATOM     20  C   LIG    1        3.571   3.262   0.115  0.00  0.00    -0.270 A 
ATOM     21  C   LIG    1        3.687   1.962  -0.269  0.00  0.00    +0.120 A 
ATOM     22  C   LIG    1        2.485   1.282  -0.333  0.00  0.00    -0.120 A 
ATOM     23  C   LIG    1        1.411   2.034  -0.001  0.00  0.00    -0.180 A 
ATOM     24  C   LIG    1       -0.019   1.527   0.010  0.00  0.00    +0.120 C 
ATOM     25  C   LIG    1        0.002  -0.004   0.002  0.00  0.00    +0.040 C 
ATOM     26  C   LIG    1        0.927  -0.484  -1.120  0.00  0.00    -0.020 C 
ATOM     27  C   LIG    1        0.752  -1.991  -1.318  0.00  0.00    +0.030 C 
ATOM     28  C   LIG    1        2.378  -0.182  -0.741  0.00  0.00    +0.110 C 
ATOM     29  S   LIG    1        1.877   3.626   0.404  0.00  0.00    +0.190 S 
ENDBRANCH  18  20
ENDBRANCH   3  16
TORSDOF 3
