REMARK  Name = ZINCrH000004l6yn.0
REMARK                            x       y       z     vdW  Elec       q    Type
REMARK                         _______ _______ _______ _____ _____    ______ ____
ROOT
ATOM      1  N   LIG    1       -0.700   1.559   1.216  0.00  0.00    -0.530 NA
ATOM      2  C   LIG    1       -0.013   1.086   0.008  0.00  0.00    +0.190 C 
ATOM      3  C   LIG    1       -0.752   1.593  -1.232  0.00  0.00    +0.070 C 
ATOM      4  C   LIG    1       -0.788   3.123  -1.209  0.00  0.00    -0.030 C 
ATOM      5  C   LIG    1       -1.465   3.591   0.082  0.00  0.00    +0.060 C 
ATOM      6  C   LIG    1       -0.705   3.026   1.284  0.00  0.00    +0.170 C 
ENDROOT
BRANCH   4   7
ATOM      7  C   LIG    1       -1.567   3.627  -2.397  0.00  0.00    +0.400 C 
ATOM      8  O   LIG    1       -2.467   2.958  -2.860  0.00  0.00    -0.420 OA
BRANCH   7   9
ATOM      9  C   LIG    1       -1.237   4.928  -2.994  0.00  0.00    -0.180 A 
ATOM     10  C   LIG    1       -0.204   5.706  -2.460  0.00  0.00    +0.070 A 
ATOM     11  C   LIG    1        0.103   6.925  -3.030  0.00  0.00    +0.080 A 
ATOM     12  C   LIG    1       -0.616   7.385  -4.123  0.00  0.00    +0.060 A 
ATOM     13  C   LIG    1       -1.642   6.625  -4.654  0.00  0.00    +0.020 A 
ATOM     14  F   LIG    1        1.103   7.675  -2.518  0.00  0.00    -0.130 F 
ATOM     15  C   LIG    1       -1.959   5.400  -4.099  0.00  0.00    +0.150 A 
ATOM     16  F   LIG    1       -2.962   4.660  -4.619  0.00  0.00    -0.110 F 
ENDBRANCH   7   9
ENDBRANCH   4   7
BRANCH   1  17
ATOM     17  C   LIG    1       -0.099   0.979   2.425  0.00  0.00    +0.310 C 
BRANCH  17  21
ATOM     18  C   LIG    1       -0.904   3.093   5.292  0.00  0.00    -0.080 A 
ATOM     19  C   LIG    1       -1.926   2.191   5.384  0.00  0.00    -0.060 A 
ATOM     20  C   LIG    1       -1.764   1.287   4.324  0.00  0.00    -0.040 A 
ATOM     21  C   LIG    1       -0.658   1.666   3.644  0.00  0.00    +0.030 A 
ATOM     22  C   LIG    1       -3.020   2.174   6.421  0.00  0.00    +0.140 C 
ATOM     23  O   LIG    1       -0.146   2.756   4.228  0.00  0.00    -0.150 OA
BRANCH  18  24
ATOM     24  C   LIG    1       -0.673   4.227   6.190  0.00  0.00    +0.550 C 
ATOM     25  O   LIG    1       -1.430   4.430   7.120  0.00  0.00    -0.480 OA
BRANCH  24  27
ATOM     26  C   LIG    1        0.547   6.149   6.915  0.00  0.00    +0.290 C 
ATOM     27  O   LIG    1        0.380   5.045   5.986  0.00  0.00    -0.350 OA
ENDBRANCH  24  27
ENDBRANCH  18  24
ENDBRANCH  17  21
ENDBRANCH   1  17
TORSDOF 6
