REMARK  Name = ZINCqH00000323Pc.0
REMARK                            x       y       z     vdW  Elec       q    Type
REMARK                         _______ _______ _______ _____ _____    ______ ____
ROOT
ATOM      1  C   LIG    1        1.589   3.512   0.642  0.00  0.00    +0.620 C 
ATOM      2  N   LIG    1        1.359   2.226   0.310  0.00  0.00    -0.600 N 
ATOM      3  C   LIG    1        2.387   1.180   0.160  0.00  0.00    +0.290 C 
ATOM      4  C   LIG    1        1.752   0.133  -0.788  0.00  0.00    +0.050 C 
ATOM      5  C   LIG    1        0.271   0.152  -0.326  0.00  0.00    +0.070 C 
ATOM      6  C   LIG    1        0.041   1.634   0.037  0.00  0.00    +0.180 C 
ATOM      7  O   LIG    1        0.655   4.272   0.813  0.00  0.00    -0.500 OA
ENDROOT
BRANCH   6   8
ATOM      8  C   LIG    1       -0.613   2.349  -1.118  0.00  0.00    -0.100 A 
ATOM      9  C   LIG    1        0.100   3.285  -1.844  0.00  0.00    +0.040 A 
ATOM     10  C   LIG    1       -0.498   3.936  -2.906  0.00  0.00    +0.000 A 
ATOM     11  C   LIG    1       -1.812   3.660  -3.236  0.00  0.00    +0.010 A 
ATOM     12  C   LIG    1       -2.526   2.728  -2.506  0.00  0.00    +0.010 A 
ATOM     13  C   LIG    1       -1.927   2.072  -1.447  0.00  0.00    +0.030 A 
ENDBRANCH   6   8
BRANCH   1  16
ATOM     14  N   LIG    1        4.688   5.291   1.166  0.00  0.00    -0.350 N 
ATOM     15  C   LIG    1        3.340   5.271   1.129  0.00  0.00    +0.300 A 
ATOM     16  C   LIG    1        2.973   3.997   0.797  0.00  0.00    -0.100 A 
ATOM     17  N   LIG    1        4.086   3.260   0.642  0.00  0.00    -0.210 NA
ATOM     18  N   LIG    1        5.122   3.997   0.848  0.00  0.00    -0.060 NA
BRANCH  14  20
ATOM     19  C   LIG    1        5.494   6.714   2.985  0.00  0.00    +0.070 C 
ATOM     20  C   LIG    1        5.535   6.445   1.479  0.00  0.00    +0.170 C 
ATOM     21  C   LIG    1        5.022   7.674   0.727  0.00  0.00    +0.070 C 
ATOM     22  C   LIG    1        6.975   6.150   1.053  0.00  0.00    +0.080 C 
ENDBRANCH  14  20
ENDBRANCH   1  16
BRANCH   6  23
ATOM     23  C   LIG    1       -0.843   1.734   1.282  0.00  0.00    +0.440 C 
ATOM     24  F   LIG    1       -2.076   1.124   1.029  0.00  0.00    -0.180 F 
ATOM     25  F   LIG    1       -1.046   3.081   1.603  0.00  0.00    -0.150 F 
ATOM     26  F   LIG    1       -0.214   1.089   2.353  0.00  0.00    -0.180 F 
ENDBRANCH   6  23
TORSDOF 4
