REMARK  Name = ZINCkj000005jhsu.1
REMARK                            x       y       z     vdW  Elec       q    Type
REMARK                         _______ _______ _______ _____ _____    ______ ____
ROOT
ATOM      1  S   LIG    1       -2.777   3.996   0.048  0.00  0.00    +2.690 S 
ATOM      2  O   LIG    1       -2.512   5.279   0.597  0.00  0.00    -0.910 OA
ATOM      3  O   LIG    1       -3.732   3.098   0.597  0.00  0.00    -0.920 OA
ENDROOT
BRANCH   1   4
ATOM      4  C   LIG    1       -1.239   3.136   0.029  0.00  0.00    -0.790 A 
ATOM      5  C   LIG    1       -1.221   1.752   0.017  0.00  0.00    +0.240 A 
ATOM      6  C   LIG    1       -0.013   1.076   0.008  0.00  0.00    -0.050 A 
ATOM      7  C   LIG    1        1.177   1.784   0.000  0.00  0.00    +0.230 A 
ATOM      8  C   LIG    1        1.158   3.168   0.008  0.00  0.00    -0.050 A 
ATOM      9  F   LIG    1        2.356   1.125  -0.014  0.00  0.00    -0.100 F 
ATOM     10  F   LIG    1       -2.381   1.060   0.019  0.00  0.00    -0.100 F 
ATOM     11  C   LIG    1       -0.050   3.844   0.022  0.00  0.00    +0.270 A 
ATOM     12  F   LIG    1       -0.068   5.195   0.030  0.00  0.00    -0.090 F 
ENDBRANCH   1   4
BRANCH   1  13
ATOM     13  N   LIG    1       -3.219   4.244  -1.528  0.00  0.00    -1.100 NA
ATOM     14  H   LIG    1       -3.272   5.146  -1.881  0.00  0.00    +0.430 HD
BRANCH  13  23
ATOM     15  C   LIG    1       -5.923   3.804  -2.578  0.00  0.00    +0.050 C 
ATOM     16  C   LIG    1       -4.650   3.484  -3.363  0.00  0.00    +0.000 C 
ATOM     17  C   LIG    1       -4.913   2.309  -4.310  0.00  0.00    +0.080 C 
ATOM     18  C   LIG    1       -3.616   1.943  -5.034  0.00  0.00    +0.260 C 
ATOM     19  N   LIG    1       -2.595   1.561  -4.051  0.00  0.00    -0.500 N 
ATOM     20  C   LIG    1       -2.284   2.705  -3.185  0.00  0.00    +0.230 C 
ATOM     21  H   LIG    1       -2.941   0.799  -3.488  0.00  0.00    +0.430 HD
ATOM     22  H   LIG    1       -1.758   1.270  -4.533  0.00  0.00    +0.440 HD
ATOM     23  C   LIG    1       -3.531   3.101  -2.390  0.00  0.00    +0.250 C 
ENDBRANCH  13  23
ENDBRANCH   1  13
TORSDOF 3
