REMARK  Name = ZINCpe000000WwNu.0
REMARK                            x       y       z     vdW  Elec       q    Type
REMARK                         _______ _______ _______ _____ _____    ______ ____
ROOT
ATOM      1  C   LIG    1        1.188   1.447  -4.871  0.00  0.00    +0.140 A 
ATOM      2  C   LIG    1        1.983   1.062  -5.943  0.00  0.00    +0.020 A 
ATOM      3  C   LIG    1        1.398   0.683  -7.135  0.00  0.00    +0.050 A 
ATOM      4  C   LIG    1        0.016   0.698  -7.266  0.00  0.00    +0.130 A 
ATOM      5  C   LIG    1       -0.778   1.088  -6.196  0.00  0.00    +0.050 A 
ATOM      6  C   LIG    1       -0.194   1.461  -5.002  0.00  0.00    +0.050 A 
ENDROOT
BRANCH   4   7
ATOM      7  N   LIG    1       -0.578   0.318  -8.479  0.00  0.00    -0.510 N 
ATOM      8  C   LIG    1       -1.901   0.286  -8.723  0.00  0.00    +0.700 A 
ATOM      9  N   LIG    1       -2.089  -0.125  -9.994  0.00  0.00    -0.520 N 
ATOM     10  H   LIG    1       -2.941  -0.240 -10.443  0.00  0.00    +0.460 HD
ATOM     11  N   LIG    1       -0.818  -0.361 -10.542  0.00  0.00    -0.520 N 
ATOM     12  H   LIG    1       -0.626  -0.669 -11.441  0.00  0.00    +0.460 HD
ATOM     13  O   LIG    1       -2.777   0.580  -7.934  0.00  0.00    -0.510 OA
ATOM     14  C   LIG    1        0.085  -0.077  -9.582  0.00  0.00    +0.700 A 
ATOM     15  O   LIG    1        1.292  -0.164  -9.693  0.00  0.00    -0.510 OA
ENDBRANCH   4   7
BRANCH   1  17
ATOM     16  C   LIG    1        1.175   1.532  -2.493  0.00  0.00    +0.560 C 
ATOM     17  N   LIG    1        1.781   1.825  -3.661  0.00  0.00    -0.670 N 
ATOM     18  H   LIG    1        2.627   2.299  -3.662  0.00  0.00    +0.410 HD
ATOM     19  O   LIG    1        0.074   1.014  -2.492  0.00  0.00    -0.490 OA
BRANCH  16  24
ATOM     20  C   LIG    1        1.861   1.835   1.197  0.00  0.00    +0.100 A 
ATOM     21  C   LIG    1        3.116   2.419   1.184  0.00  0.00    -0.030 A 
ATOM     22  C   LIG    1        3.736   2.719  -0.018  0.00  0.00    +0.050 A 
ATOM     23  C   LIG    1        3.111   2.434  -1.213  0.00  0.00    +0.020 A 
ATOM     24  C   LIG    1        1.846   1.839  -1.216  0.00  0.00    -0.130 A 
ATOM     25  C   LIG    1        1.220   1.536  -0.001  0.00  0.00    +0.140 A 
BRANCH  20  27
ATOM     26  C   LIG    1        1.972   1.882   3.573  0.00  0.00    +0.240 C 
ATOM     27  O   LIG    1        1.257   1.548   2.382  0.00  0.00    -0.300 OA
ENDBRANCH  20  27
BRANCH  25  28
ATOM     28  O   LIG    1       -0.008   0.958   0.007  0.00  0.00    -0.460 OA
ATOM     29  H   LIG    1        0.012  -0.009   0.004  0.00  0.00    +0.390 HD
ENDBRANCH  25  28
ENDBRANCH  16  24
ENDBRANCH   1  17
TORSDOF 5
