REMARK  Name = ZINCrH000004myi7.0
REMARK                            x       y       z     vdW  Elec       q    Type
REMARK                         _______ _______ _______ _____ _____    ______ ____
ROOT
ATOM      1  C   LIG    1        3.836   3.992  -1.323  0.00  0.00    +0.380 A 
ATOM      2  C   LIG    1        4.726   3.443  -2.239  0.00  0.00    -0.080 A 
ATOM      3  C   LIG    1        5.104   4.187  -3.342  0.00  0.00    +0.080 A 
ATOM      4  C   LIG    1        4.574   5.467  -3.492  0.00  0.00    -0.000 A 
ATOM      5  C   LIG    1        3.691   5.950  -2.538  0.00  0.00    +0.260 A 
ATOM      6  N   LIG    1        3.348   5.210  -1.501  0.00  0.00    -0.520 NA
ENDROOT
BRANCH   4   7
ATOM      7  N   LIG    1        4.929   6.256  -4.593  0.00  0.00    -0.480 N 
ATOM      8  C   LIG    1        4.647   5.558  -5.854  0.00  0.00    +0.180 C 
ATOM      9  C   LIG    1        5.178   6.385  -7.027  0.00  0.00    +0.040 C 
ATOM     10  C   LIG    1        4.505   7.760  -7.022  0.00  0.00    -0.010 C 
ATOM     11  C   LIG    1        4.774   8.446  -5.680  0.00  0.00    +0.040 C 
ATOM     12  C   LIG    1        4.254   7.559  -4.546  0.00  0.00    +0.190 C 
BRANCH  10  13
ATOM     13  C   LIG    1        5.077   8.613  -8.156  0.00  0.00    +0.180 C 
BRANCH  13  14
ATOM     14  O   LIG    1        4.725   8.032  -9.414  0.00  0.00    -0.570 OA
ATOM     15  H   LIG    1        5.055   8.521 -10.179  0.00  0.00    +0.380 HD
ENDBRANCH  13  14
ENDBRANCH  10  13
ENDBRANCH   4   7
BRANCH   1  16
ATOM     16  N   LIG    1        3.448   3.251  -0.209  0.00  0.00    -0.720 N 
ATOM     17  H   LIG    1        2.827   3.629   0.433  0.00  0.00    +0.410 HD
BRANCH  16  18
ATOM     18  C   LIG    1        3.978   1.900  -0.008  0.00  0.00    +0.310 C 
BRANCH  18  23
ATOM     19  C   LIG    1        3.629   0.791   3.587  0.00  0.00    +0.120 A 
ATOM     20  C   LIG    1        2.351   0.253   3.586  0.00  0.00    -0.060 A 
ATOM     21  C   LIG    1        1.603   0.255   2.424  0.00  0.00    +0.050 A 
ATOM     22  C   LIG    1        2.132   0.783   1.261  0.00  0.00    -0.070 A 
ATOM     23  C   LIG    1        3.406   1.320   1.260  0.00  0.00    -0.070 A 
ATOM     24  C   LIG    1        4.156   1.325   2.420  0.00  0.00    +0.000 A 
BRANCH  22  25
ATOM     25  C   LIG    1        1.317   0.779  -0.006  0.00  0.00    +0.000 C 
ATOM     26  C   LIG    1       -0.019   1.526   0.010  0.00  0.00    +0.040 C 
ATOM     27  C   LIG    1        0.002  -0.004   0.002  0.00  0.00    +0.020 C 
ENDBRANCH  22  25
BRANCH  19  29
ATOM     28  C   LIG    1        3.758   0.229   5.894  0.00  0.00    +0.250 C 
ATOM     29  O   LIG    1        4.364   0.795   4.730  0.00  0.00    -0.320 OA
ENDBRANCH  19  29
ENDBRANCH  18  23
ENDBRANCH  16  18
ENDBRANCH   1  16
TORSDOF 8
