REMARK  Name = ZINCqH0000032Pem.0
REMARK                            x       y       z     vdW  Elec       q    Type
REMARK                         _______ _______ _______ _____ _____    ______ ____
ROOT
ATOM      1  C   LIG    1       -7.875   3.147   1.548  0.00  0.00    +0.220 C 
ATOM      2  C   LIG    1       -7.575   4.646   1.469  0.00  0.00    +0.020 C 
ATOM      3  C   LIG    1       -6.061   4.864   1.431  0.00  0.00    +0.030 C 
ATOM      4  C   LIG    1       -5.483   4.189   0.188  0.00  0.00    +0.270 C 
ATOM      5  N   LIG    1       -5.891   2.777   0.177  0.00  0.00    -0.600 N 
ATOM      6  C   LIG    1       -4.972   1.798   0.061  0.00  0.00    +0.590 C 
ATOM      7  O   LIG    1       -5.326   0.637  -0.015  0.00  0.00    -0.510 OA
ATOM      8  C   LIG    1       -7.318   2.453   0.301  0.00  0.00    +0.270 C 
ENDROOT
BRANCH   6   9
ATOM      9  C   LIG    1       -3.541   2.133   0.027  0.00  0.00    -0.220 A 
ATOM     10  C   LIG    1       -2.605   1.549   0.782  0.00  0.00    -0.020 A 
ATOM     11  C   LIG    1       -1.294   2.014   0.589  0.00  0.00    -0.040 A 
ATOM     12  C   LIG    1       -0.104   1.603   1.236  0.00  0.00    +0.030 A 
ATOM     13  C   LIG    1        1.098   2.186   0.915  0.00  0.00    +0.130 A 
ATOM     14  C   LIG    1        1.159   3.193  -0.047  0.00  0.00    -0.030 A 
ATOM     15  C   LIG    1        0.015   3.609  -0.683  0.00  0.00    +0.090 A 
ATOM     16  C   LIG    1       -1.219   3.030  -0.372  0.00  0.00    -0.170 A 
ATOM     17  C   LIG    1       -2.934   0.460   1.770  0.00  0.00    +0.130 C 
ATOM     18  S   LIG    1       -2.827   3.354  -1.011  0.00  0.00    +0.130 S 
BRANCH  13  19
ATOM     19  O   LIG    1        2.235   1.779   1.540  0.00  0.00    -0.310 OA
ATOM     20  C   LIG    1        3.451   2.426   1.161  0.00  0.00    +0.250 C 
ENDBRANCH  13  19
ENDBRANCH   6   9
BRANCH   1  22
ATOM     21  C   LIG    1       -9.820   1.821   2.177  0.00  0.00    +0.510 C 
ATOM     22  N   LIG    1       -9.324   2.941   1.616  0.00  0.00    -0.730 N 
ATOM     23  H   LIG    1       -9.927   3.612   1.257  0.00  0.00    +0.400 HD
ATOM     24  O   LIG    1       -9.066   0.983   2.626  0.00  0.00    -0.530 OA
BRANCH  21  25
ATOM     25  C   LIG    1      -11.310   1.609   2.247  0.00  0.00    +0.040 C 
BRANCH  25  27
ATOM     26  C   LIG    1      -13.117   0.054   2.997  0.00  0.00    +0.010 C 
ATOM     27  C   LIG    1      -11.604   0.269   2.926  0.00  0.00    +0.030 C 
ENDBRANCH  25  27
ENDBRANCH  21  25
ENDBRANCH   1  22
TORSDOF 5
