REMARK  Name = ZINCvU00000004Ps.1
REMARK                            x       y       z     vdW  Elec       q    Type
REMARK                         _______ _______ _______ _____ _____    ______ ____
ROOT
ATOM      1  C   LIG    1        6.681   1.500   3.081  0.00  0.00    +0.210 C 
ATOM      2  C   LIG    1        5.886   0.402   2.424  0.00  0.00    +0.190 A 
ATOM      3  N   LIG    1        5.804  -0.845   2.815  0.00  0.00    -0.280 NA
ATOM      4  N   LIG    1        5.033  -1.505   2.021  0.00  0.00    -0.260 NA
ATOM      5  C   LIG    1        4.583  -0.715   1.089  0.00  0.00    +0.170 A 
ATOM      6  C   LIG    1        3.645  -1.058  -0.039  0.00  0.00    +0.330 C 
ATOM      7  N   LIG    1        2.444  -0.226   0.066  0.00  0.00    -0.460 NA
ATOM      8  C   LIG    1        2.484   1.065  -0.024  0.00  0.00    +0.280 C 
ATOM      9  C   LIG    1        3.703   1.889  -0.147  0.00  0.00    -0.110 A 
ATOM     10  C   LIG    1        4.891   1.633   0.511  0.00  0.00    -0.010 A 
ATOM     11  S   LIG    1        6.032   2.864   0.205  0.00  0.00    +0.230 S 
ATOM     12  C   LIG    1        4.947   3.707  -0.897  0.00  0.00    -0.180 A 
ATOM     13  C   LIG    1        5.291   4.970  -1.643  0.00  0.00    +0.150 C 
ATOM     14  C   LIG    1        3.785   3.081  -0.973  0.00  0.00    -0.060 A 
ATOM     15  C   LIG    1        2.648   3.562  -1.837  0.00  0.00    +0.130 C 
ATOM     16  N   LIG    1        5.118   0.513   1.313  0.00  0.00    -0.400 N 
ENDROOT
BRANCH   8  17
ATOM     17  C   LIG    1        1.187   1.781  -0.008  0.00  0.00    -0.060 A 
ATOM     18  C   LIG    1        1.097   3.053   0.555  0.00  0.00    +0.060 A 
ATOM     19  C   LIG    1       -0.114   3.713   0.573  0.00  0.00    +0.020 A 
ATOM     20  C   LIG    1       -1.237   3.119   0.021  0.00  0.00    -0.020 A 
ATOM     21  C   LIG    1       -1.154   1.855  -0.539  0.00  0.00    +0.030 A 
ATOM     22 CL   LIG    1       -2.757   3.958   0.040  0.00  0.00    -0.060 Cl
ATOM     23  C   LIG    1        0.051   1.184  -0.556  0.00  0.00    +0.090 A 
ENDBRANCH   8  17
BRANCH   6  24
ATOM     24  C   LIG    1        4.335  -0.794  -1.378  0.00  0.00    +0.090 C 
BRANCH  24  25
ATOM     25  C   LIG    1        3.440  -1.245  -2.503  0.00  0.00    +0.470 C 
ATOM     26  O   LIG    1        2.360  -1.728  -2.258  0.00  0.00    -0.480 OA
BRANCH  25  27
ATOM     27  O   LIG    1        3.841  -1.110  -3.776  0.00  0.00    -0.350 OA
BRANCH  27  28
ATOM     28  C   LIG    1        2.927  -1.566  -4.808  0.00  0.00    +0.120 C 
ATOM     29  C   LIG    1        2.650  -3.059  -4.620  0.00  0.00    +0.030 C 
ATOM     30  C   LIG    1        3.553  -1.333  -6.184  0.00  0.00    +0.080 C 
ATOM     31  C   LIG    1        1.614  -0.787  -4.706  0.00  0.00    +0.030 C 
ENDBRANCH  27  28
ENDBRANCH  25  27
ENDBRANCH  24  25
ENDBRANCH   6  24
TORSDOF 5
