REMARK  Name = ZINCqH0000004mPY.0
REMARK                            x       y       z     vdW  Elec       q    Type
REMARK                         _______ _______ _______ _____ _____    ______ ____
ROOT
ATOM      1  N   LIG    1        3.527  -2.051   0.542  0.00  0.00    -0.720 N 
ATOM      2  H   LIG    1        2.671  -2.501   0.463  0.00  0.00    +0.400 HD
ATOM      3  C   LIG    1        4.548  -2.652   1.185  0.00  0.00    +0.520 C 
ATOM      4  O   LIG    1        5.617  -2.090   1.284  0.00  0.00    -0.520 OA
ENDROOT
BRANCH   1   5
ATOM      5  C   LIG    1        3.710  -0.717  -0.036  0.00  0.00    +0.290 C 
BRANCH   5   6
ATOM      6  C   LIG    1        3.435   0.328   1.015  0.00  0.00    -0.110 A 
ATOM      7  C   LIG    1        2.583   0.046   2.065  0.00  0.00    +0.050 A 
ATOM      8  C   LIG    1        2.331   1.004   3.029  0.00  0.00    -0.010 A 
ATOM      9  C   LIG    1        2.931   2.247   2.945  0.00  0.00    +0.050 A 
ATOM     10  C   LIG    1        3.784   2.534   1.897  0.00  0.00    -0.060 A 
ATOM     11  C   LIG    1        4.038   1.575   0.928  0.00  0.00    +0.120 A 
BRANCH  11  12
ATOM     12  O   LIG    1        4.877   1.855  -0.104  0.00  0.00    -0.320 OA
BRANCH  12  13
ATOM     13  C   LIG    1        5.462   3.159  -0.129  0.00  0.00    +0.590 C 
ATOM     14  F   LIG    1        6.216   3.354   1.032  0.00  0.00    -0.200 F 
ATOM     15  F   LIG    1        4.449   4.122  -0.195  0.00  0.00    -0.200 F 
ENDBRANCH  12  13
ENDBRANCH  11  12
ENDBRANCH   5   6
BRANCH   5  17
ATOM     16  C   LIG    1        3.099  -1.510  -2.325  0.00  0.00    +0.030 C 
ATOM     17  C   LIG    1        2.741  -0.531  -1.205  0.00  0.00    +0.030 C 
ENDBRANCH   5  17
ENDBRANCH   1   5
BRANCH   3  18
ATOM     18  C   LIG    1        4.359  -4.024   1.780  0.00  0.00    +0.040 C 
BRANCH  18  19
ATOM     19  C   LIG    1        5.661  -4.474   2.446  0.00  0.00    +0.300 C 
BRANCH  19  20
ATOM     20  N   LIG    1        5.478  -5.807   3.024  0.00  0.00    -0.730 N 
ATOM     21  H   LIG    1        4.623  -6.257   2.945  0.00  0.00    +0.400 HD
ATOM     22  C   LIG    1        6.499  -6.409   3.667  0.00  0.00    +0.590 C 
ATOM     23  O   LIG    1        7.572  -5.844   3.767  0.00  0.00    -0.520 OA
BRANCH  22  24
ATOM     24  C   LIG    1        6.316  -7.743   4.245  0.00  0.00    -0.270 A 
ATOM     25  C   LIG    1        7.271  -8.454   4.917  0.00  0.00    +0.110 A 
ATOM     26  C   LIG    1        6.829  -9.680   5.354  0.00  0.00    +0.000 A 
ATOM     27  C   LIG    1        5.557  -9.966   5.052  0.00  0.00    -0.050 A 
ATOM     28  S   LIG    1        4.831  -8.683   4.193  0.00  0.00    +0.200 S 
ENDBRANCH  22  24
ENDBRANCH  19  20
ENDBRANCH  18  19
ENDBRANCH   3  18
TORSDOF 9
