REMARK  Name = ZINCrH00000No4uV.0
REMARK                            x       y       z     vdW  Elec       q    Type
REMARK                         _______ _______ _______ _____ _____    ______ ____
ROOT
ATOM      1  C   LIG    1        0.192   3.206   0.456  0.00  0.00    +0.110 C 
ATOM      2  C   LIG    1       -0.488   3.435   1.781  0.00  0.00    -0.050 A 
ATOM      3  C   LIG    1       -1.826   3.768   1.813  0.00  0.00    -0.010 A 
ATOM      4  C   LIG    1       -2.455   3.974   3.029  0.00  0.00    +0.110 A 
ATOM      5  C   LIG    1       -1.732   3.859   4.201  0.00  0.00    -0.010 A 
ATOM      6  C   LIG    1       -0.383   3.534   4.167  0.00  0.00    -0.070 A 
ATOM      7  C   LIG    1        0.351   3.439   5.482  0.00  0.00    +0.340 C 
ATOM      8  N   LIG    1        1.667   2.828   5.270  0.00  0.00    -0.610 N 
ATOM      9  C   LIG    1        2.138   1.874   6.097  0.00  0.00    +0.530 C 
ATOM     10  O   LIG    1        3.230   1.385   5.899  0.00  0.00    -0.540 OA
ATOM     11  C   LIG    1        2.453   3.298   4.117  0.00  0.00    +0.280 C 
ATOM     12  C   LIG    1        1.691   2.928   2.846  0.00  0.00    +0.070 C 
ATOM     13  F   LIG    1       -3.768   4.291   3.070  0.00  0.00    -0.140 F 
ATOM     14  C   LIG    1        0.239   3.314   2.959  0.00  0.00    -0.080 A 
ENDROOT
BRANCH   9  15
ATOM     15  C   LIG    1        1.308   1.415   7.268  0.00  0.00    +0.060 C 
BRANCH  15  16
ATOM     16  C   LIG    1        2.069   0.335   8.040  0.00  0.00    +0.280 C 
BRANCH  16  17
ATOM     17  C   LIG    1        1.177  -0.219   9.154  0.00  0.00    -0.010 C 
ATOM     18  C   LIG    1        1.979  -1.205  10.005  0.00  0.00    +0.010 C 
ATOM     19  C   LIG    1        1.088  -1.759  11.119  0.00  0.00    +0.000 C 
ATOM     20  C   LIG    1       -0.113  -2.478  10.501  0.00  0.00    +0.000 C 
ATOM     21  C   LIG    1       -0.915  -1.491   9.649  0.00  0.00    +0.000 C 
ATOM     22  C   LIG    1       -0.024  -0.938   8.536  0.00  0.00    +0.010 C 
ENDBRANCH  16  17
BRANCH  16  23
ATOM     23  N   LIG    1        3.280   0.914   8.626  0.00  0.00    -0.710 N 
ATOM     24  H   LIG    1        4.150   0.553   8.397  0.00  0.00    +0.410 HD
ATOM     25  C   LIG    1        3.184   1.949   9.485  0.00  0.00    +0.510 C 
ATOM     26  O   LIG    1        2.094   2.341   9.843  0.00  0.00    -0.510 OA
BRANCH  25  27
ATOM     27  C   LIG    1        4.433   2.618  10.000  0.00  0.00    +0.170 C 
ATOM     28 CL   LIG    1        3.979   3.956  11.120  0.00  0.00    -0.130 Cl
ENDBRANCH  25  27
ENDBRANCH  16  23
ENDBRANCH  15  16
ENDBRANCH   9  15
TORSDOF 5
