REMARK  Name = ZINCtV000002GBHO.0
REMARK                            x       y       z     vdW  Elec       q    Type
REMARK                         _______ _______ _______ _____ _____    ______ ____
ROOT
ATOM      1  C   LIG    1        2.512   2.995   0.179  0.00  0.00    +0.600 C 
ATOM      2  N   LIG    1        1.900   4.164  -0.095  0.00  0.00    -0.610 N 
ATOM      3  C   LIG    1        0.437   4.246  -0.080  0.00  0.00    +0.300 C 
ATOM      4  O   LIG    1        3.727   2.941   0.229  0.00  0.00    -0.520 OA
ENDROOT
BRANCH   1   9
ATOM      5  C   LIG    1       -1.181  -0.740   1.233  0.00  0.00    +0.140 C 
ATOM      6  C   LIG    1        0.028   0.095   0.898  0.00  0.00    -0.180 A 
ATOM      7  C   LIG    1        1.231  -0.403   0.598  0.00  0.00    -0.080 A 
ATOM      8  C   LIG    1        2.202   0.538   0.322  0.00  0.00    +0.200 A 
ATOM      9  C   LIG    1        1.740   1.828   0.409  0.00  0.00    -0.340 A 
ATOM     10  S   LIG    1        0.039   1.800   0.852  0.00  0.00    +0.250 S 
BRANCH   8  11
ATOM     11  O   LIG    1        3.482   0.221  -0.002  0.00  0.00    -0.270 OA
BRANCH  11  12
ATOM     12  C   LIG    1        3.812  -1.168  -0.053  0.00  0.00    +0.240 C 
BRANCH  12  13
ATOM     13  C   LIG    1        5.264  -1.325  -0.426  0.00  0.00    -0.100 A 
ATOM     14  C   LIG    1        5.629  -1.432  -1.755  0.00  0.00    +0.030 A 
ATOM     15  C   LIG    1        6.961  -1.572  -2.097  0.00  0.00    +0.010 A 
ATOM     16  C   LIG    1        7.927  -1.615  -1.110  0.00  0.00    +0.010 A 
ATOM     17  C   LIG    1        7.562  -1.513   0.220  0.00  0.00    +0.010 A 
ATOM     18  C   LIG    1        6.231  -1.369   0.561  0.00  0.00    +0.030 A 
ENDBRANCH  12  13
ENDBRANCH  11  12
ENDBRANCH   8  11
ENDBRANCH   1   9
BRANCH   2  19
ATOM     19  C   LIG    1        2.697   5.352  -0.408  0.00  0.00    +0.350 C 
BRANCH  19  20
ATOM     20  C   LIG    1        2.938   5.419  -1.894  0.00  0.00    -0.110 A 
ATOM     21  C   LIG    1        4.040   4.822  -2.422  0.00  0.00    +0.060 A 
ATOM     22  C   LIG    1        4.265   4.878  -3.808  0.00  0.00    -0.050 A 
ATOM     23  C   LIG    1        5.389   4.269  -4.390  0.00  0.00    +0.030 A 
ATOM     24  C   LIG    1        5.577   4.349  -5.736  0.00  0.00    +0.000 A 
ATOM     25  C   LIG    1        4.670   5.026  -6.548  0.00  0.00    +0.010 A 
ATOM     26  C   LIG    1        3.569   5.628  -6.019  0.00  0.00    +0.020 A 
ATOM     27  C   LIG    1        3.342   5.567  -4.634  0.00  0.00    -0.050 A 
ATOM     28  C   LIG    1        2.217   6.176  -4.052  0.00  0.00    +0.020 A 
ATOM     29  C   LIG    1        2.030   6.097  -2.706  0.00  0.00    +0.020 A 
ENDBRANCH  19  20
ENDBRANCH   2  19
TORSDOF 6
