REMARK  Name = ZINCrH00000tj0Gu.0
REMARK                            x       y       z     vdW  Elec       q    Type
REMARK                         _______ _______ _______ _____ _____    ______ ____
ROOT
ATOM      1  C   LIG    1        2.381   1.412  -0.024  0.00  0.00    +0.220 A 
ATOM      2  C   LIG    1        2.317   0.168  -0.637  0.00  0.00    +0.080 A 
ATOM      3  C   LIG    1        1.131  -0.539  -0.640  0.00  0.00    +0.070 A 
ATOM      4  C   LIG    1        0.004  -0.007  -0.030  0.00  0.00    +0.130 A 
ATOM      5  C   LIG    1        0.068   1.238   0.583  0.00  0.00    +0.120 A 
ATOM      6  C   LIG    1        1.253   1.945   0.586  0.00  0.00    -0.190 A 
ENDROOT
BRANCH   1   9
ATOM      7  N   LIG    1        5.911   2.167   0.162  0.00  0.00    -0.620 N 
ATOM      8  C   LIG    1        4.759   1.474   0.067  0.00  0.00    +0.710 C 
ATOM      9  N   LIG    1        3.584   2.129  -0.020  0.00  0.00    -0.690 N 
ATOM     10  H   LIG    1        3.572   3.097  -0.081  0.00  0.00    +0.410 HD
ATOM     11  O   LIG    1        4.779   0.259   0.060  0.00  0.00    -0.560 OA
ATOM     12  C   LIG    1        5.886   3.632   0.170  0.00  0.00    +0.290 C 
BRANCH   7  13
ATOM     13  C   LIG    1        7.188   1.456   0.257  0.00  0.00    +0.420 C 
BRANCH  13  18
ATOM     14  C   LIG    1        8.689  -0.185  -4.700  0.00  0.00    +0.180 C 
ATOM     15  C   LIG    1        8.413   0.472  -3.372  0.00  0.00    +0.040 A 
ATOM     16  N   LIG    1        8.888   1.612  -2.999  0.00  0.00    -0.480 NA
ATOM     17  C   LIG    1        8.546   2.043  -1.802  0.00  0.00    +0.230 A 
ATOM     18  C   LIG    1        7.737   1.221  -1.127  0.00  0.00    -0.260 A 
ATOM     19  S   LIG    1        7.431  -0.189  -2.138  0.00  0.00    +0.160 S 
ENDBRANCH  13  18
ENDBRANCH   7  13
ENDBRANCH   1   9
BRANCH   4  20
ATOM     20  N   LIG    1       -1.201  -0.726  -0.033  0.00  0.00    -0.330 N 
ATOM     21  C   LIG    1       -1.419  -1.933  -0.587  0.00  0.00    +0.490 A 
ATOM     22  N   LIG    1       -2.668  -2.259  -0.370  0.00  0.00    -0.530 NA
ATOM     23  C   LIG    1       -3.278  -1.287   0.307  0.00  0.00    +0.440 A 
ATOM     24  N   LIG    1       -2.421  -0.326   0.537  0.00  0.00    -0.310 NA
ENDBRANCH   4  20
BRANCH   6  25
ATOM     25  C   LIG    1        1.323   3.296   1.251  0.00  0.00    +0.510 C 
ATOM     26  F   LIG    1        1.685   4.262   0.307  0.00  0.00    -0.180 F 
ATOM     27  F   LIG    1        2.276   3.263   2.274  0.00  0.00    -0.170 F 
ATOM     28  F   LIG    1        0.072   3.616   1.789  0.00  0.00    -0.170 F 
ENDBRANCH   6  25
TORSDOF 5
