REMARK  Name = ZINCrD00000F5LsX.0
REMARK                            x       y       z     vdW  Elec       q    Type
REMARK                         _______ _______ _______ _____ _____    ______ ____
ROOT
ATOM      1  N   LIG    1        2.026  -3.526  -1.296  0.00  0.00    -0.590 N 
ATOM      2  C   LIG    1        3.106  -2.897  -1.800  0.00  0.00    +0.550 C 
ATOM      3  O   LIG    1        3.576  -1.937  -1.221  0.00  0.00    -0.530 OA
ENDROOT
BRANCH   2   4
ATOM      4  C   LIG    1        3.716  -3.372  -3.052  0.00  0.00    -0.090 C 
ATOM      5  C   LIG    1        4.839  -2.816  -3.498  0.00  0.00    +0.150 C 
ENDBRANCH   2   4
BRANCH   1   6
ATOM      6  C   LIG    1        1.396  -4.615  -2.046  0.00  0.00    +0.350 C 
BRANCH   6  12
ATOM      7  C   LIG    1        1.666  -6.582  -0.514  0.00  0.00    +0.150 A 
ATOM      8  C   LIG    1        2.262  -7.789  -0.178  0.00  0.00    -0.080 A 
ATOM      9  C   LIG    1        3.240  -8.325  -0.993  0.00  0.00    +0.060 A 
ATOM     10  C   LIG    1        3.620  -7.664  -2.145  0.00  0.00    -0.020 A 
ATOM     11  C   LIG    1        3.024  -6.464  -2.486  0.00  0.00    +0.060 A 
ATOM     12  C   LIG    1        2.046  -5.923  -1.674  0.00  0.00    -0.140 A 
BRANCH   7  13
ATOM     13  O   LIG    1        0.708  -6.049   0.289  0.00  0.00    -0.310 OA
BRANCH  13  14
ATOM     14  C   LIG    1        0.447  -6.721   1.523  0.00  0.00    +0.350 C 
BRANCH  14  16
ATOM     15  C   LIG    1       -1.427  -5.418   2.860  0.00  0.00    +0.070 C 
ATOM     16  C   LIG    1       -0.596  -5.996   2.267  0.00  0.00    -0.210 C 
ENDBRANCH  14  16
ENDBRANCH  13  14
ENDBRANCH   7  13
ENDBRANCH   6  12
ENDBRANCH   1   6
BRANCH   1  17
ATOM     17  C   LIG    1        1.483  -3.121   0.003  0.00  0.00    +0.400 C 
BRANCH  17  18
ATOM     18  C   LIG    1        0.448  -2.044  -0.199  0.00  0.00    +0.080 A 
ATOM     19  N   LIG    1       -0.827  -2.231  -0.385  0.00  0.00    -0.240 NA
ATOM     20  N   LIG    1       -1.476  -1.002  -0.535  0.00  0.00    -0.410 N 
ATOM     21  C   LIG    1       -0.554   0.007  -0.436  0.00  0.00    +0.120 A 
ATOM     22  C   LIG    1       -0.631   1.395  -0.506  0.00  0.00    -0.030 A 
ATOM     23  C   LIG    1        0.501   2.148  -0.365  0.00  0.00    +0.060 A 
ATOM     24  C   LIG    1        1.734   1.544  -0.153  0.00  0.00    -0.040 A 
ATOM     25  C   LIG    1        1.841   0.185  -0.080  0.00  0.00    +0.120 A 
ATOM     26  C   LIG    1       -2.913  -0.820  -0.760  0.00  0.00    +0.350 C 
ATOM     27  C   LIG    1        0.696  -0.606  -0.221  0.00  0.00    -0.170 A 
ENDBRANCH  17  18
ENDBRANCH   1  17
TORSDOF 8
