REMARK  Name = ZINCtj00001yywv9.2
REMARK                            x       y       z     vdW  Elec       q    Type
REMARK                         _______ _______ _______ _____ _____    ______ ____
ROOT
ATOM      1  C   LIG    1       -0.753   1.480  -1.209  0.00  0.00    +0.190 C 
ATOM      2  C   LIG    1       -0.112   0.940  -2.489  0.00  0.00    +0.250 C 
ATOM      3  N   LIG    1       -0.815   1.493  -3.657  0.00  0.00    -0.370 N 
ATOM      4  C   LIG    1       -0.757   2.957  -3.605  0.00  0.00    -0.020 C 
ATOM      5  C   LIG    1       -1.325   3.529  -2.307  0.00  0.00    +0.290 C 
ATOM      6  C   LIG    1       -1.304   3.639  -4.866  0.00  0.00    +0.070 C 
ATOM      7  C   LIG    1       -0.137   4.633  -4.736  0.00  0.00    +0.070 C 
ATOM      8  C   LIG    1        0.618   3.529  -3.975  0.00  0.00    +0.070 C 
ATOM      9  H   LIG    1       -0.371   1.167  -4.503  0.00  0.00    +0.420 HD
ATOM     10  O   LIG    1       -0.668   2.907  -1.197  0.00  0.00    -0.340 OA
ENDROOT
BRANCH   1  11
ATOM     11  C   LIG    1       -0.016   0.915   0.007  0.00  0.00    +0.100 C 
BRANCH  11  15
ATOM     12  C   LIG    1        0.047  -0.166   4.199  0.00  0.00    +0.160 C 
ATOM     13  C   LIG    1       -0.633   1.171   3.874  0.00  0.00    +0.290 C 
ATOM     14  N   LIG    1       -0.247   0.966   2.470  0.00  0.00    -0.640 N 
ATOM     15  C   LIG    1       -0.721   1.348   1.267  0.00  0.00    +0.550 C 
ATOM     16  O   LIG    1       -1.715   2.039   1.199  0.00  0.00    -0.520 OA
ATOM     17  C   LIG    1        0.881   0.156   2.955  0.00  0.00    +0.260 C 
BRANCH  12  18
ATOM     18  O   LIG    1        0.788  -0.164   5.421  0.00  0.00    -0.360 OA
BRANCH  18  19
ATOM     19  C   LIG    1        0.842  -1.436   6.070  0.00  0.00    +0.340 C 
BRANCH  19  21
ATOM     20  C   LIG    1        2.250  -1.230   8.301  0.00  0.00    +0.070 C 
ATOM     21  C   LIG    1        1.625  -1.321   7.311  0.00  0.00    -0.210 C 
ENDBRANCH  19  21
ENDBRANCH  18  19
ENDBRANCH  12  18
ENDBRANCH  11  15
ENDBRANCH   1  11
BRANCH   3  22
ATOM     22  C   LIG    1       -2.217   1.056  -3.639  0.00  0.00    +0.270 C 
BRANCH  22  23
ATOM     23  C   LIG    1       -2.284  -0.455  -3.868  0.00  0.00    +0.260 C 
BRANCH  23  24
ATOM     24  O   LIG    1       -1.750  -1.133  -2.729  0.00  0.00    -0.320 OA
BRANCH  24  25
ATOM     25  C   LIG    1       -1.735  -2.489  -2.771  0.00  0.00    +0.300 A 
ATOM     26  C   LIG    1       -1.229  -3.205  -1.694  0.00  0.00    -0.040 A 
ATOM     27  C   LIG    1       -1.219  -4.588  -1.749  0.00  0.00    +0.110 A 
ATOM     28  C   LIG    1       -1.720  -5.209  -2.885  0.00  0.00    -0.040 A 
ATOM     29  C   LIG    1       -2.208  -4.434  -3.919  0.00  0.00    +0.310 A 
ATOM     30  N   LIG    1       -2.209  -3.117  -3.835  0.00  0.00    -0.540 NA
ENDBRANCH  24  25
ENDBRANCH  23  24
ENDBRANCH  22  23
ENDBRANCH   3  22
TORSDOF 9
