REMARK  Name = ZINCtj00001yywv9.1
REMARK                            x       y       z     vdW  Elec       q    Type
REMARK                         _______ _______ _______ _____ _____    ______ ____
ROOT
ATOM      1  C   LIG    1       -0.868   2.925   1.227  0.00  0.00    +0.180 C 
ATOM      2  C   LIG    1       -1.677   3.389   0.014  0.00  0.00    +0.230 C 
ATOM      3  N   LIG    1       -0.950   3.047  -1.218  0.00  0.00    -0.360 N 
ATOM      4  C   LIG    1       -0.714   1.601  -1.253  0.00  0.00    -0.030 C 
ATOM      5  C   LIG    1        0.032   1.090  -0.021  0.00  0.00    +0.290 C 
ATOM      6  C   LIG    1       -1.967   0.783  -1.591  0.00  0.00    +0.100 C 
ATOM      7  C   LIG    1       -1.565   0.930  -3.068  0.00  0.00    +0.030 C 
ATOM      8  C   LIG    1       -0.118   1.107  -2.577  0.00  0.00    +0.090 C 
ATOM      9  H   LIG    1       -0.065   3.533  -1.233  0.00  0.00    +0.430 HD
ATOM     10  O   LIG    1       -0.666   1.511   1.156  0.00  0.00    -0.340 OA
ENDROOT
BRANCH   1  11
ATOM     11  C   LIG    1       -1.629   3.268   2.509  0.00  0.00    +0.110 C 
BRANCH  11  15
ATOM     12  C   LIG    1       -2.206   2.816   6.776  0.00  0.00    +0.160 C 
ATOM     13  C   LIG    1       -0.747   2.946   6.319  0.00  0.00    +0.290 C 
ATOM     14  N   LIG    1       -1.248   3.140   4.950  0.00  0.00    -0.650 N 
ATOM     15  C   LIG    1       -0.779   2.923   3.705  0.00  0.00    +0.550 C 
ATOM     16  O   LIG    1        0.326   2.449   3.547  0.00  0.00    -0.520 OA
ATOM     17  C   LIG    1       -2.483   3.682   5.537  0.00  0.00    +0.270 C 
BRANCH  12  18
ATOM     18  O   LIG    1       -2.491   3.461   8.019  0.00  0.00    -0.360 OA
BRANCH  18  19
ATOM     19  C   LIG    1       -3.534   2.839   8.772  0.00  0.00    +0.340 C 
BRANCH  19  21
ATOM     20  C   LIG    1       -3.911   4.172  11.026  0.00  0.00    +0.070 C 
ATOM     21  C   LIG    1       -3.744   3.581  10.026  0.00  0.00    -0.210 C 
ENDBRANCH  19  21
ENDBRANCH  18  19
ENDBRANCH  12  18
ENDBRANCH  11  15
ENDBRANCH   1  11
BRANCH   3  22
ATOM     22  C   LIG    1       -1.747   3.443  -2.386  0.00  0.00    +0.280 C 
BRANCH  22  23
ATOM     23  C   LIG    1       -1.949   4.959  -2.376  0.00  0.00    +0.240 C 
BRANCH  23  24
ATOM     24  O   LIG    1       -0.687   5.609  -2.543  0.00  0.00    -0.320 OA
BRANCH  24  25
ATOM     25  C   LIG    1       -0.689   6.965  -2.556  0.00  0.00    +0.310 A 
ATOM     26  C   LIG    1        0.507   7.654  -2.709  0.00  0.00    -0.040 A 
ATOM     27  C   LIG    1        0.490   9.038  -2.725  0.00  0.00    +0.110 A 
ATOM     28  C   LIG    1       -0.728   9.687  -2.578  0.00  0.00    -0.040 A 
ATOM     29  C   LIG    1       -1.878   8.938  -2.426  0.00  0.00    +0.310 A 
ATOM     30  N   LIG    1       -1.831   7.620  -2.418  0.00  0.00    -0.540 NA
ENDBRANCH  24  25
ENDBRANCH  23  24
ENDBRANCH  22  23
ENDBRANCH   3  22
TORSDOF 9
