REMARK  Name = ZINCrD000001YJPD.0
REMARK                            x       y       z     vdW  Elec       q    Type
REMARK                         _______ _______ _______ _____ _____    ______ ____
ROOT
ATOM      1  C   LIG    1       -0.105   1.171  -0.022  0.00  0.00    +0.540 C 
ATOM      2  N   LIG    1        1.034   1.891  -0.001  0.00  0.00    -0.610 N 
ATOM      3  C   LIG    1        1.120   3.363   0.011  0.00  0.00    +0.250 C 
ATOM      4  C   LIG    1        2.501   3.672   0.647  0.00  0.00    +0.040 C 
ATOM      5  C   LIG    1        3.374   2.532   0.059  0.00  0.00    +0.030 C 
ATOM      6  C   LIG    1        2.396   1.339   0.008  0.00  0.00    +0.170 C 
ATOM      7  C   LIG    1        2.590   0.451   1.239  0.00  0.00    +0.040 C 
ATOM      8  O   LIG    1       -0.057  -0.041  -0.035  0.00  0.00    -0.520 OA
ENDROOT
BRANCH   1  14
ATOM      9  C   LIG    1       -3.064   4.669  -1.448  0.00  0.00    +0.550 C 
ATOM     10  N   LIG    1       -2.888   3.337  -1.343  0.00  0.00    -0.610 N 
ATOM     11  C   LIG    1       -4.043   2.430  -1.291  0.00  0.00    +0.260 C 
ATOM     12  C   LIG    1       -3.918   1.542  -0.049  0.00  0.00    +0.010 C 
ATOM     13  C   LIG    1       -2.562   0.832  -0.069  0.00  0.00    +0.050 C 
ATOM     14  C   LIG    1       -1.440   1.872  -0.035  0.00  0.00    -0.020 C 
ATOM     15  C   LIG    1       -1.537   2.764  -1.276  0.00  0.00    +0.290 C 
ATOM     16  O   LIG    1       -2.103   5.401  -1.582  0.00  0.00    -0.540 OA
BRANCH   9  18
ATOM     17  C   LIG    1       -4.589   6.556  -1.401  0.00  0.00    +0.140 C 
ATOM     18  C   LIG    1       -4.420   5.237  -1.402  0.00  0.00    -0.090 C 
ENDBRANCH   9  18
ENDBRANCH   1  14
BRANCH   6  19
ATOM     19  C   LIG    1        2.636   0.524  -1.264  0.00  0.00    +0.090 C 
BRANCH  19  20
ATOM     20  C   LIG    1        4.069   0.060  -1.301  0.00  0.00    -0.080 A 
ATOM     21  C   LIG    1        5.026   0.820  -1.946  0.00  0.00    +0.020 A 
ATOM     22  C   LIG    1        6.342   0.394  -1.979  0.00  0.00    +0.090 A 
ATOM     23  C   LIG    1        6.700  -0.795  -1.367  0.00  0.00    +0.020 A 
ATOM     24  C   LIG    1        5.744  -1.556  -0.722  0.00  0.00    +0.030 A 
ATOM     25  F   LIG    1        7.278   1.137  -2.609  0.00  0.00    -0.130 F 
ATOM     26  C   LIG    1        4.428  -1.127  -0.684  0.00  0.00    +0.100 A 
ATOM     27  F   LIG    1        3.494  -1.868  -0.049  0.00  0.00    -0.130 F 
ENDBRANCH  19  20
ENDBRANCH   6  19
TORSDOF 4
