REMARK  Name = ZINC9u0000000C3N.0
REMARK                            x       y       z     vdW  Elec       q    Type
REMARK                         _______ _______ _______ _____ _____    ______ ____
ROOT
ATOM      1  C   LIG    1       -1.290   0.436  -2.058  0.00  0.00    +0.030 C 
ATOM      2  C   LIG    1       -0.784   1.609  -1.216  0.00  0.00    -0.060 C 
ATOM      3  C   LIG    1       -0.013   1.086   0.008  0.00  0.00    +0.030 C 
ATOM      4  C   LIG    1       -0.763   1.597   1.255  0.00  0.00    +0.010 C 
ATOM      5  C   LIG    1       -2.207   1.850   0.751  0.00  0.00    +0.020 C 
ATOM      6  C   LIG    1       -1.978   2.421  -0.670  0.00  0.00    +0.020 C 
ENDROOT
BRANCH   2   7
ATOM      7  C   LIG    1        0.120   2.510  -2.060  0.00  0.00    +0.200 C 
BRANCH   7   8
ATOM      8  C   LIG    1       -0.630   3.003  -3.226  0.00  0.00    +0.210 C 
ATOM      9  N   LIG    1       -1.209   3.384  -4.127  0.00  0.00    -0.440 NA
ENDBRANCH   7   8
ENDBRANCH   2   7
TORSDOF 2
