REMARK  Name = ZINCAx00000009dQ.0
REMARK                            x       y       z     vdW  Elec       q    Type
REMARK                         _______ _______ _______ _____ _____    ______ ____
ROOT
ATOM      1  C   LIG    1        7.224   4.321  -2.654  0.00  0.00    +0.250 C 
ENDROOT
BRANCH   1   4
ATOM      2  N   LIG    1        5.360   3.201  -1.474  0.00  0.00    -0.730 N 
ATOM      3  H   LIG    1        5.785   3.444  -0.637  0.00  0.00    +0.400 HD
ATOM      4  C   LIG    1        5.928   3.552  -2.645  0.00  0.00    +0.510 C 
ATOM      5  O   LIG    1        5.397   3.248  -3.692  0.00  0.00    -0.510 OA
BRANCH   2   6
ATOM      6  C   LIG    1        4.101   2.453  -1.466  0.00  0.00    +0.270 C 
BRANCH   6   7
ATOM      7  C   LIG    1        3.676   2.185  -0.021  0.00  0.00    +0.070 C 
BRANCH   7  11
ATOM      8  C   LIG    1        0.002  -0.004   0.002  0.00  0.00    +0.100 A 
ATOM      9  C   LIG    1        1.213  -0.677  -0.013  0.00  0.00    -0.030 A 
ATOM     10  C   LIG    1        2.399   0.034  -0.021  0.00  0.00    +0.020 A 
ATOM     11  C   LIG    1        2.380   1.415  -0.013  0.00  0.00    -0.080 A 
ATOM     12  C   LIG    1        1.175   2.094   0.002  0.00  0.00    -0.040 A 
ATOM     13  C   LIG    1       -0.017   1.388   0.010  0.00  0.00    +0.110 A 
BRANCH   8  14
ATOM     14  O   LIG    1       -1.165  -0.702   0.009  0.00  0.00    -0.300 OA
BRANCH  14  16
ATOM     15  C   LIG    1       -2.474  -2.733   0.010  0.00  0.00    +0.070 C 
ATOM     16  C   LIG    1       -1.069  -2.127   0.000  0.00  0.00    +0.170 C 
ENDBRANCH  14  16
ENDBRANCH   8  14
BRANCH  13  17
ATOM     17  O   LIG    1       -1.203   2.053   0.019  0.00  0.00    -0.300 OA
BRANCH  17  18
ATOM     18  C   LIG    1       -1.146   3.481   0.026  0.00  0.00    +0.170 C 
ATOM     19  C   LIG    1       -2.566   4.048   0.036  0.00  0.00    +0.070 C 
ENDBRANCH  17  18
ENDBRANCH  13  17
ENDBRANCH   7  11
ENDBRANCH   6   7
ENDBRANCH   2   6
ENDBRANCH   1   4
BRANCH   1  20
ATOM     20  O   LIG    1        7.627   4.576  -4.025  0.00  0.00    -0.330 OA
BRANCH  20  21
ATOM     21  C   LIG    1        8.770   5.256  -4.208  0.00  0.00    +0.470 C 
ATOM     22  O   LIG    1        9.412   5.627  -3.254  0.00  0.00    -0.500 OA
BRANCH  21  23
ATOM     23  C   LIG    1        9.252   5.558  -5.604  0.00  0.00    +0.050 C 
ATOM     24  C   LIG    1        9.476   4.246  -6.360  0.00  0.00    +0.040 C 
ATOM     25  C   LIG    1        9.932   4.557  -7.789  0.00  0.00    +0.300 C 
ATOM     26  N   LIG    1       11.114   5.429  -7.729  0.00  0.00    -1.000 NA
ATOM     27  C   LIG    1       11.035   6.673  -6.951  0.00  0.00    +0.300 C 
ATOM     28  C   LIG    1       10.566   6.338  -5.532  0.00  0.00    +0.050 C 
BRANCH  26  29
ATOM     29  S   LIG    1       12.508   5.017  -8.522  0.00  0.00    +2.690 S 
ATOM     30  O   LIG    1       13.217   6.228  -8.743  0.00  0.00    -0.950 OA
ATOM     31  O   LIG    1       12.127   4.137  -9.571  0.00  0.00    -0.950 OA
BRANCH  29  32
ATOM     32  C   LIG    1       13.482   4.066  -7.404  0.00  0.00    -0.680 A 
ATOM     33  C   LIG    1       14.391   4.693  -6.573  0.00  0.00    +0.120 A 
ATOM     34  C   LIG    1       15.152   3.948  -5.692  0.00  0.00    -0.010 A 
ATOM     35  C   LIG    1       15.012   2.573  -5.650  0.00  0.00    +0.070 A 
ATOM     36  C   LIG    1       14.107   1.945  -6.485  0.00  0.00    -0.010 A 
ATOM     37  C   LIG    1       13.342   2.691  -7.362  0.00  0.00    +0.120 A 
ENDBRANCH  29  32
ENDBRANCH  26  29
ENDBRANCH  21  23
ENDBRANCH  20  21
ENDBRANCH   1  20
TORSDOF 13
