REMARK  Name = ZINCkj000018RACY.1
REMARK                            x       y       z     vdW  Elec       q    Type
REMARK                         _______ _______ _______ _____ _____    ______ ____
ROOT
ATOM      1  C   LIG    1       -1.191   3.400   0.802  0.00  0.00    +0.200 C 
ATOM      2  C   LIG    1       -0.762   1.968   1.193  0.00  0.00    +0.260 C 
ATOM      3  N   LIG    1       -0.018   1.465   0.010  0.00  0.00    -0.390 N 
ATOM      4  C   LIG    1       -0.785   1.980  -1.153  0.00  0.00    +0.300 C 
ATOM      5  H   LIG    1        0.922   1.831   0.003  0.00  0.00    +0.430 HD
ATOM      6  C   LIG    1       -1.204   3.408  -0.741  0.00  0.00    +0.300 C 
ENDROOT
BRANCH   6   7
ATOM      7  N   LIG    1       -2.550   3.706  -1.237  0.00  0.00    -0.300 N 
ATOM      8  C   LIG    1       -3.711   3.387  -0.619  0.00  0.00    +0.120 A 
ATOM      9  C   LIG    1       -4.702   3.846  -1.419  0.00  0.00    +0.180 A 
ATOM     10  N   LIG    1       -4.106   4.416  -2.473  0.00  0.00    -0.240 NA
ATOM     11  N   LIG    1       -2.831   4.321  -2.332  0.00  0.00    -0.060 NA
ENDBRANCH   6   7
BRANCH   1  12
ATOM     12  O   LIG    1       -0.247   4.352   1.295  0.00  0.00    -0.540 OA
ATOM     13  H   LIG    1       -0.196   4.391   2.260  0.00  0.00    +0.410 HD
ENDBRANCH   1  12
BRANCH   3  14
ATOM     14  C   LIG    1        0.002  -0.004   0.002  0.00  0.00    +0.280 C 
BRANCH  14  15
ATOM     15  C   LIG    1        0.864  -0.509   1.161  0.00  0.00    -0.020 C 
ATOM     16  C   LIG    1        2.317  -0.083   0.940  0.00  0.00    +0.030 C 
ATOM     17  C   LIG    1        3.179  -0.588   2.099  0.00  0.00    +0.040 C 
ATOM     18  C   LIG    1        3.099  -2.114   2.166  0.00  0.00    +0.290 C 
ATOM     19  C   LIG    1        1.646  -2.540   2.388  0.00  0.00    +0.040 C 
ATOM     20  F   LIG    1        3.567  -2.659   0.966  0.00  0.00    -0.200 F 
ATOM     21  F   LIG    1        3.887  -2.576   3.226  0.00  0.00    -0.190 F 
ATOM     22  C   LIG    1        0.784  -2.035   1.229  0.00  0.00    +0.070 C 
ENDBRANCH  14  15
ENDBRANCH   3  14
TORSDOF 4
