REMARK  Name = ZINCkj000018RACY.0
REMARK                            x       y       z     vdW  Elec       q    Type
REMARK                         _______ _______ _______ _____ _____    ______ ____
ROOT
ATOM      1  C   LIG    1        0.755  -2.468   0.604  0.00  0.00    +0.190 C 
ATOM      2  C   LIG    1        0.828  -3.818  -0.152  0.00  0.00    +0.270 C 
ATOM      3  N   LIG    1        0.868  -3.407  -1.579  0.00  0.00    -0.390 N 
ATOM      4  C   LIG    1        1.734  -2.206  -1.628  0.00  0.00    +0.300 C 
ATOM      5  H   LIG    1       -0.060  -3.182  -1.903  0.00  0.00    +0.430 HD
ATOM      6  C   LIG    1        1.673  -1.551  -0.235  0.00  0.00    +0.300 C 
ENDROOT
BRANCH   6   7
ATOM      7  N   LIG    1        1.100  -0.206  -0.330  0.00  0.00    -0.310 N 
ATOM      8  C   LIG    1       -0.219   0.093  -0.351  0.00  0.00    +0.120 A 
ATOM      9  C   LIG    1       -0.298   1.441  -0.445  0.00  0.00    +0.180 A 
ATOM     10  N   LIG    1        0.961   1.894  -0.477  0.00  0.00    -0.250 NA
ATOM     11  N   LIG    1        1.765   0.893  -0.407  0.00  0.00    -0.060 NA
ENDBRANCH   6   7
BRANCH   1  12
ATOM     12  O   LIG    1        1.256  -2.603   1.936  0.00  0.00    -0.530 OA
ATOM     13  H   LIG    1        0.715  -3.169   2.504  0.00  0.00    +0.410 HD
ENDBRANCH   1  12
BRANCH   3  14
ATOM     14  C   LIG    1        1.445  -4.480  -2.399  0.00  0.00    +0.280 C 
BRANCH  14  15
ATOM     15  C   LIG    1        0.514  -5.694  -2.380  0.00  0.00    -0.020 C 
ATOM     16  C   LIG    1        1.178  -6.858  -3.118  0.00  0.00    +0.070 C 
ATOM     17  C   LIG    1        0.247  -8.072  -3.098  0.00  0.00    +0.040 C 
ATOM     18  C   LIG    1       -1.071  -7.715  -3.789  0.00  0.00    +0.290 C 
ATOM     19  C   LIG    1       -1.735  -6.551  -3.050  0.00  0.00    +0.040 C 
ATOM     20  F   LIG    1       -0.818  -7.343  -5.113  0.00  0.00    -0.200 F 
ATOM     21  F   LIG    1       -1.922  -8.825  -3.771  0.00  0.00    -0.190 F 
ATOM     22  C   LIG    1       -0.804  -5.337  -3.070  0.00  0.00    +0.030 C 
ENDBRANCH  14  15
ENDBRANCH   3  14
TORSDOF 4
