REMARK  Name = ZINCrD00000F5LwE.0
REMARK                            x       y       z     vdW  Elec       q    Type
REMARK                         _______ _______ _______ _____ _____    ______ ____
ROOT
ATOM      1  C   LIG    1        7.230  -1.680   1.546  0.00  0.00    +0.520 C 
ATOM      2  N   LIG    1        6.131  -1.539   0.778  0.00  0.00    -0.610 N 
ATOM      3  C   LIG    1        6.054  -0.483  -0.242  0.00  0.00    +0.300 C 
ATOM      4  C   LIG    1        4.747   0.292  -0.042  0.00  0.00    +0.190 C 
ATOM      5  N   LIG    1        3.620  -0.649  -0.037  0.00  0.00    -0.490 N 
ATOM      6  C   LIG    1        3.714  -1.587   1.090  0.00  0.00    +0.190 C 
ATOM      7  C   LIG    1        4.979  -2.439   0.937  0.00  0.00    +0.290 C 
ATOM      8  O   LIG    1        8.171  -0.930   1.402  0.00  0.00    -0.510 OA
ENDROOT
BRANCH   5   9
ATOM      9  C   LIG    1        2.400   0.031  -0.021  0.00  0.00    +0.110 A 
ATOM     10  C   LIG    1        1.206  -0.680  -0.013  0.00  0.00    -0.010 A 
ATOM     11  C   LIG    1        0.002  -0.004   0.002  0.00  0.00    +0.030 A 
ATOM     12  C   LIG    1       -0.017   1.379   0.010  0.00  0.00    -0.020 A 
ATOM     13  C   LIG    1        1.169   2.089   0.002  0.00  0.00    +0.030 A 
ATOM     14  C   LIG    1        2.377   1.420  -0.013  0.00  0.00    -0.040 A 
ENDBRANCH   5   9
BRANCH   1  15
ATOM     15  C   LIG    1        7.287  -2.770   2.586  0.00  0.00    +0.250 C 
BRANCH  15  16
ATOM     16  O   LIG    1        8.543  -2.714   3.265  0.00  0.00    -0.320 OA
BRANCH  16  18
ATOM     17  O   LIG    1        7.899  -4.451   4.493  0.00  0.00    -0.510 OA
ATOM     18  C   LIG    1        8.757  -3.629   4.233  0.00  0.00    +0.500 C 
BRANCH  18  19
ATOM     19  C   LIG    1       10.020  -3.632   4.971  0.00  0.00    -0.040 C 
ATOM     20  C   LIG    1       10.234  -4.547   5.939  0.00  0.00    +0.140 C 
BRANCH  20  21
ATOM     21  C   LIG    1       11.505  -4.550   6.681  0.00  0.00    -0.080 A 
ATOM     22  C   LIG    1       11.730  -5.496   7.685  0.00  0.00    +0.070 A 
ATOM     23  C   LIG    1       12.924  -5.493   8.376  0.00  0.00    +0.020 A 
ATOM     24  C   LIG    1       13.898  -4.557   8.077  0.00  0.00    +0.070 A 
ATOM     25  C   LIG    1       13.683  -3.616   7.084  0.00  0.00    -0.090 A 
ATOM     26 BR   LIG    1       15.023  -2.343   6.684  0.00  0.00    -0.040 Br
ATOM     27  C   LIG    1       12.496  -3.609   6.381  0.00  0.00    +0.070 A 
ENDBRANCH  20  21
ENDBRANCH  18  19
ENDBRANCH  16  18
ENDBRANCH  15  16
ENDBRANCH   1  15
TORSDOF 6
