REMARK  Name = ZINCrm000000JpOh.0
REMARK                            x       y       z     vdW  Elec       q    Type
REMARK                         _______ _______ _______ _____ _____    ______ ____
ROOT
ATOM      1  C   LIG    1       -2.924   1.599   2.493  0.00  0.00    +0.060 C 
ATOM      2  C   LIG    1       -3.340   0.303   3.224  0.00  0.00    +0.320 C 
ATOM      3  N   LIG    1       -3.325  -0.744   2.170  0.00  0.00    -0.390 N 
ATOM      4  C   LIG    1       -2.133  -0.415   1.343  0.00  0.00    +0.280 C 
ATOM      5  H   LIG    1       -4.165  -0.697   1.613  0.00  0.00    +0.430 HD
ATOM      6  C   LIG    1       -2.132   1.122   1.264  0.00  0.00    -0.080 C 
ATOM      7  C   LIG    1       -0.702   1.650   1.319  0.00  0.00    +0.110 C 
ATOM      8  C   LIG    1        0.049   1.210   0.059  0.00  0.00    +0.270 C 
ATOM      9  N   LIG    1       -0.640   1.730  -1.129  0.00  0.00    -0.510 N 
ATOM     10  C   LIG    1       -1.983   1.146  -1.225  0.00  0.00    +0.270 C 
ATOM     11  H   LIG    1       -0.111   1.491  -1.954  0.00  0.00    +0.440 HD
ATOM     12  H   LIG    1       -0.716   2.734  -1.060  0.00  0.00    +0.440 HD
ATOM     13  C   LIG    1       -2.819   1.582  -0.018  0.00  0.00    +0.070 C 
ENDROOT
BRANCH   1  14
ATOM     14  C   LIG    1       -4.143   2.374   2.063  0.00  0.00    +0.460 C 
ATOM     15  O   LIG    1       -5.177   1.793   1.832  0.00  0.00    -0.500 OA
BRANCH  14  17
ATOM     16  C   LIG    1       -5.292   4.389   1.518  0.00  0.00    +0.300 C 
ATOM     17  O   LIG    1       -4.080   3.708   1.936  0.00  0.00    -0.350 OA
ENDBRANCH  14  17
ENDBRANCH   1  14
BRANCH   3  18
ATOM     18  C   LIG    1       -3.181  -2.076   2.771  0.00  0.00    +0.360 C 
BRANCH  18  19
ATOM     19  C   LIG    1       -4.413  -2.399   3.577  0.00  0.00    -0.290 A 
ATOM     20  C   LIG    1       -5.418  -3.116   3.016  0.00  0.00    +0.240 A 
ATOM     21  C   LIG    1       -6.601  -3.413   3.825  0.00  0.00    -0.180 A 
ATOM     22  C   LIG    1       -7.670  -4.149   3.300  0.00  0.00    +0.150 A 
ATOM     23  C   LIG    1       -8.760  -4.409   4.080  0.00  0.00    -0.020 A 
ATOM     24  C   LIG    1       -8.817  -3.950   5.392  0.00  0.00    +0.200 A 
ATOM     25  C   LIG    1       -7.773  -3.223   5.929  0.00  0.00    -0.050 A 
ATOM     26  F   LIG    1       -9.904  -4.219   6.147  0.00  0.00    -0.110 F 
ATOM     27  C   LIG    1       -6.654  -2.946   5.152  0.00  0.00    +0.230 A 
ATOM     28  N   LIG    1       -5.598  -2.223   5.663  0.00  0.00    -0.620 N 
ATOM     29  H   LIG    1       -5.636  -1.902   6.578  0.00  0.00    +0.430 HD
ATOM     30  C   LIG    1       -4.513  -1.960   4.913  0.00  0.00    +0.550 A 
ATOM     31  O   LIG    1       -3.595  -1.322   5.400  0.00  0.00    -0.540 OA
ENDBRANCH  18  19
ENDBRANCH   3  18
TORSDOF 4
