REMARK  Name = ZINCrm000000JpOh.1
REMARK                            x       y       z     vdW  Elec       q    Type
REMARK                         _______ _______ _______ _____ _____    ______ ____
ROOT
ATOM      1  C   LIG    1       -1.120  -1.148  -3.327  0.00  0.00    +0.050 C 
ATOM      2  C   LIG    1       -1.096  -0.233  -2.083  0.00  0.00    +0.310 C 
ATOM      3  N   LIG    1        0.151  -0.607  -1.366  0.00  0.00    -0.390 N 
ATOM      4  C   LIG    1        0.225  -2.085  -1.506  0.00  0.00    +0.280 C 
ATOM      5  H   LIG    1        0.951  -0.169  -1.797  0.00  0.00    +0.430 HD
ATOM      6  C   LIG    1       -0.255  -2.360  -2.943  0.00  0.00    -0.080 C 
ATOM      7  C   LIG    1        0.941  -2.475  -3.883  0.00  0.00    +0.090 C 
ATOM      8  C   LIG    1        1.754  -3.720  -3.518  0.00  0.00    +0.270 C 
ATOM      9  N   LIG    1        0.904  -4.911  -3.626  0.00  0.00    -0.510 N 
ATOM     10  C   LIG    1       -0.192  -4.835  -2.653  0.00  0.00    +0.280 C 
ATOM     11  H   LIG    1        0.522  -4.964  -4.559  0.00  0.00    +0.440 HD
ATOM     12  H   LIG    1        1.457  -5.735  -3.444  0.00  0.00    +0.440 HD
ATOM     13  C   LIG    1       -1.088  -3.638  -2.983  0.00  0.00    +0.080 C 
ENDROOT
BRANCH   1  14
ATOM     14  C   LIG    1       -2.530  -1.583  -3.631  0.00  0.00    +0.470 C 
ATOM     15  O   LIG    1       -3.330  -1.710  -2.734  0.00  0.00    -0.480 OA
BRANCH  14  17
ATOM     16  C   LIG    1       -4.273  -2.244  -5.116  0.00  0.00    +0.300 C 
ATOM     17  O   LIG    1       -2.899  -1.829  -4.898  0.00  0.00    -0.350 OA
ENDBRANCH  14  17
ENDBRANCH   1  14
BRANCH   3  18
ATOM     18  C   LIG    1        0.061  -0.230   0.051  0.00  0.00    +0.360 C 
BRANCH  18  19
ATOM     19  C   LIG    1        0.019   1.272   0.170  0.00  0.00    -0.290 A 
ATOM     20  C   LIG    1       -1.176   1.909   0.253  0.00  0.00    +0.240 A 
ATOM     21  C   LIG    1       -1.183   3.368   0.373  0.00  0.00    -0.180 A 
ATOM     22  C   LIG    1       -2.384   4.080   0.469  0.00  0.00    +0.150 A 
ATOM     23  C   LIG    1       -2.358   5.441   0.575  0.00  0.00    -0.020 A 
ATOM     24  C   LIG    1       -1.148   6.126   0.589  0.00  0.00    +0.200 A 
ATOM     25  C   LIG    1        0.049   5.443   0.495  0.00  0.00    -0.050 A 
ATOM     26  F   LIG    1       -1.143   7.473   0.695  0.00  0.00    -0.110 F 
ATOM     27  C   LIG    1        0.045   4.057   0.387  0.00  0.00    +0.230 A 
ATOM     28  N   LIG    1        1.225   3.350   0.292  0.00  0.00    -0.620 N 
ATOM     29  H   LIG    1        2.070   3.826   0.302  0.00  0.00    +0.430 HD
ATOM     30  C   LIG    1        1.221   2.009   0.188  0.00  0.00    +0.550 A 
ATOM     31  O   LIG    1        2.283   1.417   0.106  0.00  0.00    -0.540 OA
ENDBRANCH  18  19
ENDBRANCH   3  18
TORSDOF 4
