REMARK  Name = ZINCnE000001KbxZ.0
REMARK                            x       y       z     vdW  Elec       q    Type
REMARK                         _______ _______ _______ _____ _____    ______ ____
ROOT
ATOM      1  C   LIG    1       -5.366   3.950  -1.972  0.00  0.00    +0.140 C 
ATOM      2  C   LIG    1       -5.806   5.203  -2.746  0.00  0.00    +0.010 C 
ATOM      3  C   LIG    1       -4.346   5.678  -2.652  0.00  0.00    -0.070 C 
ATOM      4  C   LIG    1       -3.471   5.203  -3.813  0.00  0.00    +0.060 C 
ATOM      5  C   LIG    1       -4.205   7.176  -2.374  0.00  0.00    +0.010 C 
ATOM      6  C   LIG    1       -4.226   4.804  -1.392  0.00  0.00    +0.140 C 
ENDROOT
BRANCH   1  11
ATOM      7  C   LIG    1       -5.522  -0.952  -2.273  0.00  0.00    -0.060 A 
ATOM      8  N   LIG    1       -6.042  -0.207  -1.360  0.00  0.00    -0.220 NA
ATOM      9  N   LIG    1       -5.885   1.158  -1.447  0.00  0.00    -0.520 NA
ATOM     10  C   LIG    1       -5.183   1.617  -2.527  0.00  0.00    +0.350 A 
ATOM     11  N   LIG    1       -4.902   2.860  -2.834  0.00  0.00    -0.600 NA
ATOM     12  S   LIG    1       -4.730   0.149  -3.415  0.00  0.00    -0.160 S 
BRANCH   7  13
ATOM     13  C   LIG    1       -5.577  -2.456  -2.354  0.00  0.00    +0.280 C 
BRANCH  13  15
ATOM     14  C   LIG    1       -6.422  -4.391  -1.221  0.00  0.00    +0.190 C 
ATOM     15  O   LIG    1       -6.311  -2.967  -1.240  0.00  0.00    -0.370 OA
ENDBRANCH  13  15
ENDBRANCH   7  13
ENDBRANCH   1  11
BRANCH   6  16
ATOM     16  O   LIG    1       -2.982   4.108  -1.295  0.00  0.00    -0.340 OA
BRANCH  16  17
ATOM     17  C   LIG    1       -2.553   3.869   0.047  0.00  0.00    +0.200 C 
BRANCH  17  18
ATOM     18  C   LIG    1       -1.238   3.133   0.030  0.00  0.00    -0.080 A 
ATOM     19  C   LIG    1       -1.219   1.751   0.017  0.00  0.00    +0.030 A 
ATOM     20  C   LIG    1       -0.013   1.076   0.008  0.00  0.00    +0.000 A 
ATOM     21  C   LIG    1        1.175   1.783   0.000  0.00  0.00    +0.000 A 
ATOM     22  C   LIG    1        1.156   3.165   0.008  0.00  0.00    -0.010 A 
ATOM     23  C   LIG    1       -0.050   3.840   0.022  0.00  0.00    +0.020 A 
ENDBRANCH  17  18
ENDBRANCH  16  17
ENDBRANCH   6  16
TORSDOF 6
