REMARK  Name = ZINCpk00000ea8th.0
REMARK                            x       y       z     vdW  Elec       q    Type
REMARK                         _______ _______ _______ _____ _____    ______ ____
ROOT
ATOM      1  C   LIG    1       -1.112  -2.137   0.000  0.00  0.00    -0.080 A 
ATOM      2  C   LIG    1        0.129  -2.788  -0.015  0.00  0.00    +0.060 A 
ATOM      3  C   LIG    1        1.290  -2.069  -0.023  0.00  0.00    +0.100 A 
ATOM      4  C   LIG    1        1.245  -0.676  -0.013  0.00  0.00    -0.170 A 
ATOM      5  C   LIG    1        2.472   0.137  -0.021  0.00  0.00    +0.560 A 
ATOM      6  N   LIG    1        2.332   1.482  -0.012  0.00  0.00    -0.520 N 
ATOM      7  C   LIG    1        1.091   2.051   0.003  0.00  0.00    +0.380 A 
ATOM      8  N   LIG    1       -0.016   1.350   0.009  0.00  0.00    -0.520 NA
ATOM      9  O   LIG    1        3.573  -0.383  -0.035  0.00  0.00    -0.480 OA
ATOM     10  C   LIG    1        0.002  -0.004   0.002  0.00  0.00    +0.160 A 
ATOM     11  C   LIG    1       -1.180  -0.750   0.009  0.00  0.00    +0.120 A 
ENDROOT
BRANCH   1  12
ATOM     12  C   LIG    1       -2.358  -2.934   0.007  0.00  0.00    +0.510 C 
ATOM     13  O   LIG    1       -3.436  -2.375   0.021  0.00  0.00    -0.490 OA
BRANCH  12  15
ATOM     14  C   LIG    1       -3.561  -4.996   0.007  0.00  0.00    +0.290 C 
ATOM     15  O   LIG    1       -2.298  -4.279  -0.001  0.00  0.00    -0.350 OA
ENDBRANCH  12  15
ENDBRANCH   1  12
BRANCH   7  16
ATOM     16  S   LIG    1        0.972   3.809   0.013  0.00  0.00    +0.010 S 
BRANCH  16  17
ATOM     17  C   LIG    1       -0.828   4.002   0.030  0.00  0.00    +0.110 C 
BRANCH  17  18
ATOM     18  C   LIG    1       -1.181   5.490   0.041  0.00  0.00    +0.210 C 
BRANCH  18  19
ATOM     19  O   LIG    1       -2.602   5.643   0.055  0.00  0.00    -0.560 OA
ATOM     20  H   LIG    1       -2.899   6.563   0.063  0.00  0.00    +0.390 HD
ENDBRANCH  18  19
ENDBRANCH  17  18
ENDBRANCH  16  17
ENDBRANCH   7  16
BRANCH   6  21
ATOM     21  C   LIG    1        3.522   2.337  -0.019  0.00  0.00    +0.310 C 
BRANCH  21  22
ATOM     22  C   LIG    1        3.923   2.642  -1.464  0.00  0.00    +0.140 C 
ATOM     23  C   LIG    1        5.174   3.541  -1.482  0.00  0.00    +0.010 C 
ATOM     24  C   LIG    1        6.217   2.723  -2.282  0.00  0.00    +0.010 C 
ATOM     25  C   LIG    1        5.319   1.740  -3.076  0.00  0.00    +0.200 C 
ATOM     26  O   LIG    1        4.262   1.422  -2.145  0.00  0.00    -0.360 OA
ENDBRANCH  21  22
ENDBRANCH   6  21
TORSDOF 8
