REMARK  Name = ZINCqH0000038KS0.0
REMARK                            x       y       z     vdW  Elec       q    Type
REMARK                         _______ _______ _______ _____ _____    ______ ____
ROOT
ATOM      1  N   LIG    1        9.359   0.938   0.394  0.00  0.00    -0.730 N 
ATOM      2  H   LIG    1        9.339  -0.028   0.315  0.00  0.00    +0.390 HD
ATOM      3  C   LIG    1        8.215   1.646   0.309  0.00  0.00    +0.710 C 
ATOM      4  N   LIG    1        7.043   1.010   0.115  0.00  0.00    -0.670 N 
ATOM      5  H   LIG    1        7.026   0.046   0.004  0.00  0.00    +0.410 HD
ATOM      6  O   LIG    1        8.241   2.857   0.408  0.00  0.00    -0.560 OA
ENDROOT
BRANCH   4   7
ATOM      7  C   LIG    1        5.854   1.737   0.073  0.00  0.00    +0.410 A 
ATOM      8  C   LIG    1        5.891   3.097  -0.205  0.00  0.00    -0.060 A 
ATOM      9  C   LIG    1        4.704   3.813  -0.245  0.00  0.00    +0.120 A 
ATOM     10  C   LIG    1        3.517   3.141  -0.004  0.00  0.00    -0.120 A 
ATOM     11  C   LIG    1        3.551   1.778   0.269  0.00  0.00    +0.420 A 
ATOM     12  N   LIG    1        4.703   1.125   0.304  0.00  0.00    -0.560 NA
BRANCH  11  13
ATOM     13  N   LIG    1        2.365   1.095   0.512  0.00  0.00    -0.670 N 
ATOM     14  H   LIG    1        1.530   1.584   0.586  0.00  0.00    +0.420 HD
BRANCH  13  15
ATOM     15  C   LIG    1        2.374  -0.295   0.650  0.00  0.00    +0.170 A 
ATOM     16  C   LIG    1        1.604  -0.903   1.634  0.00  0.00    -0.030 A 
ATOM     17  C   LIG    1        1.620  -2.277   1.772  0.00  0.00    +0.020 A 
ATOM     18  C   LIG    1        2.395  -3.049   0.925  0.00  0.00    -0.020 A 
ATOM     19  C   LIG    1        3.163  -2.447  -0.055  0.00  0.00    +0.020 A 
ATOM     20  C   LIG    1        3.155  -1.073  -0.195  0.00  0.00    +0.010 A 
ENDBRANCH  13  15
ENDBRANCH  11  13
ENDBRANCH   4   7
BRANCH   1  21
ATOM     21  C   LIG    1       10.634   1.629   0.605  0.00  0.00    +0.340 C 
ATOM     22  C   LIG    1       11.192   2.092  -0.742  0.00  0.00    +0.040 C 
BRANCH  21  29
ATOM     23  C   LIG    1       13.123   2.467   2.378  0.00  0.00    +0.160 C 
ATOM     24  C   LIG    1       12.712   1.057   2.041  0.00  0.00    +0.090 A 
ATOM     25  N   LIG    1       13.319  -0.034   2.433  0.00  0.00    -0.290 NA
ATOM     26  N   LIG    1       12.630  -1.133   1.903  0.00  0.00    -0.370 N 
ATOM     27  C   LIG    1       11.588  -0.663   1.186  0.00  0.00    +0.230 A 
ATOM     28  C   LIG    1       12.980  -2.542   2.092  0.00  0.00    +0.360 C 
ATOM     29  C   LIG    1       11.613   0.688   1.258  0.00  0.00    -0.250 A 
ENDBRANCH  21  29
ENDBRANCH   1  21
TORSDOF 5
