REMARK  Name = ZINCqH0000038zoU.0
REMARK                            x       y       z     vdW  Elec       q    Type
REMARK                         _______ _______ _______ _____ _____    ______ ____
ROOT
ATOM      1  N   LIG    1       -1.730  -5.328   0.251  0.00  0.00    -0.690 N 
ATOM      2  H   LIG    1       -1.544  -6.269   0.394  0.00  0.00    +0.410 HD
ATOM      3  C   LIG    1       -3.003  -4.907   0.109  0.00  0.00    +0.710 C 
ATOM      4  N   LIG    1       -4.009  -5.804   0.073  0.00  0.00    -0.720 N 
ATOM      5  H   LIG    1       -3.817  -6.752   0.149  0.00  0.00    +0.390 HD
ATOM      6  O   LIG    1       -3.244  -3.719   0.014  0.00  0.00    -0.570 OA
ENDROOT
BRANCH   1  10
ATOM      7  C   LIG    1        1.405  -2.583   0.075  0.00  0.00    -0.200 A 
ATOM      8  C   LIG    1        0.194  -2.218   0.649  0.00  0.00    +0.110 A 
ATOM      9  C   LIG    1       -0.845  -3.125   0.703  0.00  0.00    +0.020 A 
ATOM     10  C   LIG    1       -0.677  -4.405   0.192  0.00  0.00    +0.210 A 
ATOM     11  C   LIG    1        0.536  -4.772  -0.378  0.00  0.00    -0.030 A 
ATOM     12  C   LIG    1        1.574  -3.864  -0.436  0.00  0.00    +0.110 A 
BRANCH   7  13
ATOM     13  S   LIG    1        2.730  -1.424   0.002  0.00  0.00    +0.120 S 
BRANCH  13  18
ATOM     14  C   LIG    1        3.121   2.168  -3.745  0.00  0.00    +0.160 C 
ATOM     15  C   LIG    1        2.492   0.967  -3.086  0.00  0.00    +0.080 A 
ATOM     16  C   LIG    1        1.439   0.333  -3.601  0.00  0.00    -0.090 A 
ATOM     17  S   LIG    1        1.026  -1.002  -2.528  0.00  0.00    +0.150 S 
ATOM     18  C   LIG    1        2.314  -0.578  -1.487  0.00  0.00    +0.000 A 
ATOM     19  N   LIG    1        2.941   0.458  -1.953  0.00  0.00    -0.460 NA
ENDBRANCH  13  18
ENDBRANCH   7  13
ENDBRANCH   1  10
BRANCH   4  20
ATOM     20  C   LIG    1       -5.392  -5.347  -0.081  0.00  0.00    +0.290 C 
ATOM     21  C   LIG    1       -5.704  -5.157  -1.567  0.00  0.00    +0.030 C 
ATOM     22  C   LIG    1       -5.521  -6.487  -2.301  0.00  0.00    +0.010 C 
ATOM     23  C   LIG    1       -6.472  -7.530  -1.710  0.00  0.00    +0.020 C 
ATOM     24  C   LIG    1       -6.160  -7.720  -0.224  0.00  0.00    +0.030 C 
ATOM     25  C   LIG    1       -6.343  -6.390   0.510  0.00  0.00    +0.000 C 
BRANCH  25  26
ATOM     26  C   LIG    1       -6.036  -6.577   1.973  0.00  0.00    +0.520 C 
ATOM     27  O   LIG    1       -5.144  -5.939   2.493  0.00  0.00    -0.530 OA
ATOM     28  N   LIG    1       -6.752  -7.454   2.705  0.00  0.00    -0.860 N 
ATOM     29  H   LIG    1       -6.554  -7.574   3.647  0.00  0.00    +0.400 HD
ATOM     30  H   LIG    1       -7.465  -7.964   2.290  0.00  0.00    +0.400 HD
ENDBRANCH  25  26
ENDBRANCH   4  20
TORSDOF 5
