REMARK  Name = ZINCpe000000VtmC.0
REMARK                            x       y       z     vdW  Elec       q    Type
REMARK                         _______ _______ _______ _____ _____    ______ ____
ROOT
ATOM      1  C   LIG    1       -3.035   2.331   1.539  0.00  0.00    +0.570 A 
ATOM      2  N   LIG    1       -2.796   3.639   1.589  0.00  0.00    -0.590 NA
ATOM      3  C   LIG    1       -3.577   4.429   2.305  0.00  0.00    +0.360 A 
ATOM      4  N   LIG    1       -4.597   3.923   2.975  0.00  0.00    -0.580 NA
ATOM      5  C   LIG    1       -4.843   2.615   2.931  0.00  0.00    +0.620 A 
ATOM      6  N   LIG    1       -4.063   1.819   2.207  0.00  0.00    -0.540 NA
ENDROOT
BRANCH   1  11
ATOM      7  C   LIG    1       -0.801   1.617   1.232  0.00  0.00    +0.200 C 
ATOM      8  C   LIG    1       -0.013   1.086   0.008  0.00  0.00    +0.100 C 
ATOM      9  C   LIG    1       -0.822   1.629  -1.192  0.00  0.00    +0.180 C 
ATOM     10  C   LIG    1       -2.231   1.904  -0.635  0.00  0.00    +0.220 C 
ATOM     11  N   LIG    1       -2.220   1.507   0.790  0.00  0.00    -0.430 N 
BRANCH   7  12
ATOM     12  C   LIG    1       -0.548   0.755   2.442  0.00  0.00    +0.460 C 
ATOM     13  O   LIG    1       -1.357  -0.081   2.769  0.00  0.00    -0.470 OA
BRANCH  12  15
ATOM     14  C   LIG    1        0.754   0.052   4.310  0.00  0.00    +0.280 C 
ATOM     15  O   LIG    1        0.577   0.916   3.157  0.00  0.00    -0.360 OA
ENDBRANCH  12  15
ENDBRANCH   7  12
BRANCH   9  16
ATOM     16  O   LIG    1       -0.882   0.651  -2.232  0.00  0.00    -0.370 OA
ATOM     17  C   LIG    1       -0.973   1.205  -3.546  0.00  0.00    +0.210 C 
ENDBRANCH   9  16
ENDBRANCH   1  11
BRANCH   5  18
ATOM     18  N   LIG    1       -5.909   2.088   3.631  0.00  0.00    -0.790 N 
ATOM     19  H   LIG    1       -6.087   1.135   3.598  0.00  0.00    +0.430 HD
ATOM     20  H   LIG    1       -6.480   2.671   4.156  0.00  0.00    +0.430 HD
ENDBRANCH   5  18
BRANCH   3  21
ATOM     21  C   LIG    1       -3.302   5.910   2.359  0.00  0.00    +0.350 C 
ATOM     22  F   LIG    1       -3.373   6.444   1.068  0.00  0.00    -0.140 F 
ATOM     23  F   LIG    1       -2.024   6.128   2.885  0.00  0.00    -0.140 F 
BRANCH  21  24
ATOM     24  C   LIG    1       -4.343   6.589   3.250  0.00  0.00    +0.450 C 
ATOM     25  F   LIG    1       -5.621   6.371   2.724  0.00  0.00    -0.140 F 
ATOM     26  F   LIG    1       -4.088   7.964   3.300  0.00  0.00    -0.160 F 
ATOM     27  F   LIG    1       -4.273   6.055   4.541  0.00  0.00    -0.150 F 
ENDBRANCH  21  24
ENDBRANCH   3  21
TORSDOF 7
