REMARK  Name = ZINCrH00000No4Se.0
REMARK                            x       y       z     vdW  Elec       q    Type
REMARK                         _______ _______ _______ _____ _____    ______ ____
ROOT
ATOM      1  C   LIG    1       -0.013   1.216  -0.032  0.00  0.00    +0.510 C 
ATOM      2  O   LIG    1        0.006   0.001  -0.075  0.00  0.00    -0.500 OA
ENDROOT
BRANCH   1   4
ATOM      3  C   LIG    1        2.383   1.290  -0.094  0.00  0.00    +0.170 C 
ATOM      4  C   LIG    1        1.203   1.945  -0.039  0.00  0.00    -0.070 C 
BRANCH   3   8
ATOM      5  C   LIG    1        6.020   3.477  -0.116  0.00  0.00    +0.130 A 
ATOM      6  C   LIG    1        4.807   4.149  -0.059  0.00  0.00    -0.040 A 
ATOM      7  C   LIG    1        3.623   3.443  -0.057  0.00  0.00    +0.060 A 
ATOM      8  C   LIG    1        3.643   2.045  -0.101  0.00  0.00    -0.090 A 
ATOM      9  C   LIG    1        4.867   1.368  -0.158  0.00  0.00    +0.000 A 
ATOM     10  C   LIG    1        6.048   2.083  -0.166  0.00  0.00    +0.090 A 
BRANCH  10  11
ATOM     11  O   LIG    1        7.239   1.429  -0.220  0.00  0.00    -0.300 OA
ATOM     12  C   LIG    1        7.193   0.001  -0.268  0.00  0.00    +0.240 C 
ENDBRANCH  10  11
BRANCH   5  13
ATOM     13  O   LIG    1        7.183   4.178  -0.124  0.00  0.00    -0.300 OA
BRANCH  13  15
ATOM     14  C   LIG    1        8.485   6.214  -0.088  0.00  0.00    +0.070 C 
ATOM     15  C   LIG    1        7.082   5.602  -0.071  0.00  0.00    +0.170 C 
ENDBRANCH  13  15
ENDBRANCH   5  13
ENDBRANCH   3   8
ENDBRANCH   1   4
BRANCH   1  16
ATOM     16  O   LIG    1       -1.192   1.871   0.018  0.00  0.00    -0.300 OA
BRANCH  16  17
ATOM     17  C   LIG    1       -2.333   1.140  -0.085  0.00  0.00    +0.120 A 
ATOM     18  C   LIG    1       -3.042   1.128  -1.279  0.00  0.00    +0.020 A 
ATOM     19  C   LIG    1       -4.196   0.384  -1.390  0.00  0.00    +0.070 A 
ATOM     20  C   LIG    1       -4.659  -0.350  -0.295  0.00  0.00    -0.030 A 
ATOM     21  C   LIG    1       -3.946  -0.331   0.905  0.00  0.00    +0.100 A 
ATOM     22  C   LIG    1       -2.789   0.411   1.006  0.00  0.00    +0.020 A 
BRANCH  20  23
ATOM     23  C   LIG    1       -5.899  -1.145  -0.408  0.00  0.00    +0.210 A 
ATOM     24  N   LIG    1       -6.444  -1.877   0.537  0.00  0.00    -0.270 NA
ATOM     25  N   LIG    1       -7.516  -2.425   0.084  0.00  0.00    -0.290 NA
ATOM     26  C   LIG    1       -7.697  -2.070  -1.157  0.00  0.00    +0.420 A 
ATOM     27  O   LIG    1       -6.686  -1.250  -1.497  0.00  0.00    -0.220 OA
ENDBRANCH  20  23
ENDBRANCH  16  17
ENDBRANCH   1  16
TORSDOF 8
