REMARK  Name = ZINCwl0000000dNT.1
REMARK                            x       y       z     vdW  Elec       q    Type
REMARK                         _______ _______ _______ _____ _____    ______ ____
ROOT
ATOM      1  O   LIG    1        6.421   0.015   5.836  0.00  0.00    -0.510 OA
ATOM      2  C   LIG    1        7.010   0.763   5.084  0.00  0.00    +0.520 C 
ATOM      3  N   LIG    1        6.331   1.433   4.132  0.00  0.00    -0.730 N 
ATOM      4  H   LIG    1        6.802   2.030   3.530  0.00  0.00    +0.400 HD
ENDROOT
BRANCH   3   5
ATOM      5  C   LIG    1        4.882   1.257   4.005  0.00  0.00    +0.310 C 
BRANCH   5   6
ATOM      6  C   LIG    1        4.370   2.111   2.873  0.00  0.00    -0.070 A 
ATOM      7  C   LIG    1        4.311   1.596   1.592  0.00  0.00    +0.050 A 
ATOM      8  C   LIG    1        3.842   2.379   0.553  0.00  0.00    +0.040 A 
ATOM      9  C   LIG    1        3.431   3.676   0.797  0.00  0.00    -0.160 A 
ATOM     10  C   LIG    1        3.495   4.192   2.078  0.00  0.00    +0.030 A 
ATOM     11  C   LIG    1        3.959   3.408   3.117  0.00  0.00    +0.040 A 
BRANCH   9  12
ATOM     12  C   LIG    1        2.920   4.530  -0.335  0.00  0.00    +0.320 C 
BRANCH  12  13
ATOM     13  N   LIG    1        1.467   4.355  -0.463  0.00  0.00    -0.380 N 
ATOM     14  C   LIG    1        0.986   5.092  -1.639  0.00  0.00    +0.240 C 
ATOM     15  C   LIG    1       -0.528   4.908  -1.770  0.00  0.00    +0.260 C 
ATOM     16  O   LIG    1       -1.163   5.359  -0.571  0.00  0.00    -0.360 OA
ATOM     17  C   LIG    1       -0.710   4.686   0.607  0.00  0.00    +0.260 C 
ATOM     18  C   LIG    1        0.804   4.870   0.743  0.00  0.00    +0.230 C 
ATOM     19  H   LIG    1        1.255   3.374  -0.571  0.00  0.00    +0.420 HD
ENDBRANCH  12  13
ENDBRANCH   9  12
ENDBRANCH   5   6
ENDBRANCH   3   5
BRANCH   2  20
ATOM     20  C   LIG    1        8.501   0.943   5.215  0.00  0.00    +0.220 C 
BRANCH  20  21
ATOM     21  N   LIG    1        9.000   0.111   6.318  0.00  0.00    -0.520 NA
ATOM     22  C   LIG    1        8.470   0.574   7.607  0.00  0.00    +0.180 C 
ATOM     23  C   LIG    1        8.864  -0.420   8.704  0.00  0.00    +0.290 C 
ATOM     24  N   LIG    1       10.322  -0.609   8.662  0.00  0.00    -0.610 N 
ATOM     25  C   LIG    1       10.944  -0.941   7.371  0.00  0.00    +0.300 C 
ATOM     26  C   LIG    1       11.069  -0.481   9.777  0.00  0.00    +0.560 C 
ATOM     27  O   LIG    1       12.263  -0.708   9.738  0.00  0.00    -0.530 OA
ATOM     28  C   LIG    1       10.468   0.075   6.327  0.00  0.00    +0.170 C 
BRANCH  26  29
ATOM     29  C   LIG    1       10.436  -0.065  11.047  0.00  0.00    -0.130 A 
ATOM     30  C   LIG    1       10.998   0.963  11.806  0.00  0.00    +0.060 A 
ATOM     31  C   LIG    1       10.399   1.351  12.987  0.00  0.00    +0.010 A 
ATOM     32  C   LIG    1        9.251   0.715  13.425  0.00  0.00    +0.030 A 
ATOM     33  C   LIG    1        8.693  -0.309  12.681  0.00  0.00    +0.010 A 
ATOM     34  C   LIG    1        9.278  -0.702  11.495  0.00  0.00    +0.040 A 
ENDBRANCH  26  29
ENDBRANCH  20  21
ENDBRANCH   2  20
TORSDOF 7
