REMARK  Name = ZINCpk00000xI6Xi.0
REMARK                            x       y       z     vdW  Elec       q    Type
REMARK                         _______ _______ _______ _____ _____    ______ ____
ROOT
ATOM      1  C   LIG    1       -3.486   2.268  -0.093  0.00  0.00    +0.520 C 
ATOM      2  N   LIG    1       -4.384   2.671  -1.014  0.00  0.00    -0.620 N 
ATOM      3  C   LIG    1       -5.074   3.980  -1.098  0.00  0.00    +0.300 C 
ATOM      4  C   LIG    1       -5.103   4.309  -2.606  0.00  0.00    +0.030 C 
ATOM      5  C   LIG    1       -4.992   2.943  -3.314  0.00  0.00    +0.070 C 
ATOM      6  C   LIG    1       -4.900   1.910  -2.175  0.00  0.00    +0.280 C 
ATOM      7  O   LIG    1       -3.006   1.156  -0.161  0.00  0.00    -0.520 OA
ENDROOT
BRANCH   5   8
ATOM      8  C   LIG    1       -6.212   2.690  -4.161  0.00  0.00    -0.100 A 
ATOM      9  C   LIG    1       -7.431   2.438  -3.559  0.00  0.00    +0.030 A 
ATOM     10  C   LIG    1       -8.552   2.211  -4.336  0.00  0.00    +0.000 A 
ATOM     11  C   LIG    1       -8.451   2.226  -5.715  0.00  0.00    +0.010 A 
ATOM     12  C   LIG    1       -7.231   2.473  -6.317  0.00  0.00    +0.000 A 
ATOM     13  C   LIG    1       -6.112   2.705  -5.540  0.00  0.00    +0.020 A 
ENDBRANCH   5   8
BRANCH   4  14
ATOM     14  C   LIG    1       -6.401   4.983  -2.970  0.00  0.00    +0.480 C 
ATOM     15  O   LIG    1       -7.371   4.848  -2.263  0.00  0.00    -0.500 OA
BRANCH  14  16
ATOM     16  O   LIG    1       -6.479   5.734  -4.080  0.00  0.00    -0.350 OA
ATOM     17  C   LIG    1       -7.760   6.353  -4.368  0.00  0.00    +0.260 C 
ENDBRANCH  14  16
ENDBRANCH   4  14
BRANCH   1  18
ATOM     18  C   LIG    1       -3.080   3.197   1.021  0.00  0.00    +0.330 C 
BRANCH  18  20
ATOM     19  C   LIG    1       -2.517   1.806   2.941  0.00  0.00    +0.550 C 
ATOM     20  N   LIG    1       -2.101   2.529   1.882  0.00  0.00    -0.600 N 
ATOM     21  O   LIG    1       -3.705   1.709   3.181  0.00  0.00    -0.540 OA
BRANCH  19  23
ATOM     22  C   LIG    1       -1.945   0.422   4.850  0.00  0.00    +0.140 C 
ATOM     23  C   LIG    1       -1.534   1.135   3.805  0.00  0.00    -0.090 C 
ENDBRANCH  19  23
BRANCH  20  24
ATOM     24  C   LIG    1       -0.670   2.646   1.592  0.00  0.00    +0.280 C 
ATOM     25  C   LIG    1       -0.244   1.510   0.659  0.00  0.00    +0.020 C 
ENDBRANCH  20  24
ENDBRANCH  18  20
ENDBRANCH   1  18
TORSDOF 7
