REMARK  Name = ZINCyk0000000oBo.1
REMARK                            x       y       z     vdW  Elec       q    Type
REMARK                         _______ _______ _______ _____ _____    ______ ____
ROOT
ATOM      1  C   LIG    1       -0.117   1.378  -1.903  0.00  0.00    +0.170 C 
ATOM      2  C   LIG    1        0.501   0.885  -0.592  0.00  0.00    +0.170 C 
ATOM      3  N   LIG    1       -0.305   1.370   0.538  0.00  0.00    -0.520 NA
ATOM      4  C   LIG    1       -0.378   2.838   0.534  0.00  0.00    +0.160 C 
ATOM      5  C   LIG    1       -0.987   3.311  -0.788  0.00  0.00    +0.240 C 
ATOM      6  O   LIG    1       -0.207   2.805  -1.875  0.00  0.00    -0.350 OA
ENDROOT
BRANCH   1  12
ATOM      7  N   LIG    1        0.436  -2.872  -4.472  0.00  0.00    -0.380 N 
ATOM      8  C   LIG    1        0.933  -1.782  -5.320  0.00  0.00    +0.270 C 
ATOM      9  C   LIG    1        1.740  -0.798  -4.466  0.00  0.00    +0.320 C 
ATOM     10  N   LIG    1        0.899  -0.359  -3.342  0.00  0.00    -0.630 N 
ATOM     11  C   LIG    1        0.231  -1.389  -2.531  0.00  0.00    +0.320 C 
ATOM     12  C   LIG    1        0.749   0.951  -3.059  0.00  0.00    +0.530 C 
ATOM     13  O   LIG    1        1.312   1.785  -3.736  0.00  0.00    -0.480 OA
ATOM     14  C   LIG    1       -0.509  -2.344  -3.480  0.00  0.00    +0.250 C 
ATOM     15  H   LIG    1        1.212  -3.308  -3.997  0.00  0.00    +0.420 HD
BRANCH   7  16
ATOM     16  C   LIG    1       -0.245  -3.869  -5.309  0.00  0.00    +0.330 C 
BRANCH  16  21
ATOM     17  C   LIG    1       -4.976  -3.200  -6.544  0.00  0.00    +0.090 C 
ATOM     18  C   LIG    1       -3.466  -3.008  -6.385  0.00  0.00    -0.120 C 
ATOM     19  C   LIG    1       -2.777  -1.764  -7.045  0.00  0.00    +0.250 C 
ATOM     20  O   LIG    1       -1.390  -2.027  -6.656  0.00  0.00    -0.360 OA
ATOM     21  C   LIG    1       -1.524  -3.261  -5.888  0.00  0.00    +0.020 C 
ATOM     22  C   LIG    1       -2.790  -3.176  -4.988  0.00  0.00    +0.040 C 
ATOM     23  C   LIG    1       -2.466  -4.137  -6.750  0.00  0.00    +0.060 C 
ENDBRANCH  16  21
ENDBRANCH   7  16
ENDBRANCH   1  12
BRANCH   3  24
ATOM     24  C   LIG    1        0.224   0.871   1.815  0.00  0.00    +0.200 C 
BRANCH  24  25
ATOM     25  C   LIG    1        0.044  -0.623   1.883  0.00  0.00    +0.370 C 
ATOM     26  O   LIG    1       -0.412  -1.221   0.938  0.00  0.00    -0.440 OA
BRANCH  25  27
ATOM     27  C   LIG    1        0.435  -1.373   3.131  0.00  0.00    +0.110 C 
BRANCH  27  28
ATOM     28  C   LIG    1        0.157  -2.842   2.943  0.00  0.00    -0.080 A 
ATOM     29  C   LIG    1        1.188  -3.704   2.618  0.00  0.00    +0.040 A 
ATOM     30  C   LIG    1        0.935  -5.052   2.445  0.00  0.00    +0.040 A 
ATOM     31  C   LIG    1       -0.349  -5.540   2.596  0.00  0.00    +0.030 A 
ATOM     32  C   LIG    1       -1.383  -4.680   2.921  0.00  0.00    +0.070 A 
ATOM     33  F   LIG    1       -2.639  -5.157   3.069  0.00  0.00    -0.120 F 
ATOM     34  C   LIG    1       -1.129  -3.329   3.100  0.00  0.00    +0.080 A 
ATOM     35  F   LIG    1       -2.136  -2.488   3.423  0.00  0.00    -0.120 F 
ENDBRANCH  27  28
ENDBRANCH  25  27
ENDBRANCH  24  25
ENDBRANCH   3  24
TORSDOF 7
