REMARK  Name = ZINCpe000000STPW.0
REMARK                            x       y       z     vdW  Elec       q    Type
REMARK                         _______ _______ _______ _____ _____    ______ ____
ROOT
ATOM      1  C   LIG    1       -0.367   0.668   2.376  0.00  0.00    +0.190 C 
ATOM      2  C   LIG    1       -0.885   1.296   3.672  0.00  0.00    +0.060 C 
ENDROOT
BRANCH   1   8
ATOM      3  N   LIG    1        3.933  -0.386   4.249  0.00  0.00    -0.740 N 
ATOM      4  H   LIG    1        3.486  -0.868   4.963  0.00  0.00    +0.400 HD
ATOM      5  C   LIG    1        3.208   0.214   3.284  0.00  0.00    +0.690 C 
ATOM      6  N   LIG    1        1.862   0.145   3.311  0.00  0.00    -0.690 N 
ATOM      7  H   LIG    1        1.416  -0.337   4.025  0.00  0.00    +0.410 HD
ATOM      8  C   LIG    1        1.137   0.745   2.347  0.00  0.00    +0.490 C 
ATOM      9  O   LIG    1        1.696   1.347   1.455  0.00  0.00    -0.460 OA
ATOM     10  O   LIG    1        3.768   0.818   2.390  0.00  0.00    -0.530 OA
BRANCH   3  11
ATOM     11  C   LIG    1        5.396  -0.311   4.220  0.00  0.00    +0.280 C 
BRANCH  11  13
ATOM     12  C   LIG    1        5.638  -2.557   5.287  0.00  0.00    +0.020 C 
ATOM     13  C   LIG    1        5.969  -1.069   5.419  0.00  0.00    -0.030 C 
ATOM     14  C   LIG    1        7.488  -0.887   5.459  0.00  0.00    +0.030 C 
ENDBRANCH  11  13
ENDBRANCH   3  11
ENDBRANCH   1   8
BRANCH   1  15
ATOM     15  N   LIG    1       -0.918   1.396   1.226  0.00  0.00    -0.500 NA
ATOM     16  C   LIG    1       -0.456   2.762   1.210  0.00  0.00    +0.180 C 
ATOM     17  C   LIG    1       -1.544   3.749   0.739  0.00  0.00    +0.040 C 
ATOM     18  C   LIG    1       -2.350   3.186  -0.450  0.00  0.00    +0.210 C 
ATOM     19  N   LIG    1       -1.518   2.509  -1.413  0.00  0.00    -0.450 N 
ATOM     20  C   LIG    1       -1.490   1.057  -1.122  0.00  0.00    +0.230 C 
ATOM     21  C   LIG    1       -0.558   0.728  -0.046  0.00  0.00    +0.190 C 
BRANCH  19  22
ATOM     22  C   LIG    1       -1.956   2.748  -2.703  0.00  0.00    +0.500 A 
ATOM     23  N   LIG    1       -2.274   1.722  -3.479  0.00  0.00    -0.550 NA
ATOM     24  C   LIG    1       -2.702   1.916  -4.716  0.00  0.00    +0.340 A 
ATOM     25  C   LIG    1       -2.805   3.211  -5.200  0.00  0.00    -0.110 A 
ATOM     26  C   LIG    1       -2.459   4.261  -4.364  0.00  0.00    +0.350 A 
ATOM     27  N   LIG    1       -2.044   3.998  -3.136  0.00  0.00    -0.530 NA
ENDBRANCH  19  22
ENDBRANCH   1  15
TORSDOF 5
