REMARK  Name = ZINCrD0000072cjg.0
REMARK                            x       y       z     vdW  Elec       q    Type
REMARK                         _______ _______ _______ _____ _____    ______ ____
ROOT
ATOM      1  C   LIG    1        3.635  -0.338   4.712  0.00  0.00    +0.080 A 
ATOM      2  C   LIG    1        3.709   0.845   3.989  0.00  0.00    +0.080 A 
ATOM      3  C   LIG    1        3.300   0.872   2.671  0.00  0.00    -0.020 A 
ATOM      4  C   LIG    1        2.820  -0.282   2.066  0.00  0.00    +0.170 A 
ATOM      5  C   LIG    1        2.741  -1.466   2.786  0.00  0.00    -0.090 A 
ATOM      6  C   LIG    1        2.225  -2.735   2.161  0.00  0.00    +0.080 C 
ATOM      7  C   LIG    1        1.375  -2.418   0.930  0.00  0.00    +0.040 C 
ATOM      8  C   LIG    1        2.170  -1.486   0.006  0.00  0.00    +0.290 C 
ATOM      9  N   LIG    1        2.401  -0.228   0.728  0.00  0.00    -0.930 N 
ATOM     10  C   LIG    1        3.151  -1.490   4.108  0.00  0.00    +0.000 A 
ENDROOT
BRANCH   1  16
ATOM     11  C   LIG    1        2.901  -0.535   6.950  0.00  0.00    +0.130 C 
ATOM     12  C   LIG    1        3.370  -0.419   8.402  0.00  0.00    +0.030 C 
ATOM     13  C   LIG    1        4.422  -1.496   8.681  0.00  0.00    +0.010 C 
ATOM     14  C   LIG    1        5.583  -1.331   7.697  0.00  0.00    +0.020 C 
ATOM     15  C   LIG    1        5.050  -1.421   6.266  0.00  0.00    +0.180 C 
ATOM     16  N   LIG    1        4.048  -0.369   6.049  0.00  0.00    -0.500 N 
BRANCH  11  18
ATOM     17  C   LIG    1        0.618   0.309   7.515  0.00  0.00    +0.020 C 
ATOM     18  C   LIG    1        1.864   0.552   6.662  0.00  0.00    +0.020 C 
ENDBRANCH  11  18
ENDBRANCH   1  16
BRANCH   9  19
ATOM     19  S   LIG    1        2.178   1.229  -0.026  0.00  0.00    +2.710 S 
ATOM     20  O   LIG    1        1.404   0.965  -1.188  0.00  0.00    -0.940 OA
ATOM     21  O   LIG    1        1.777   2.146   0.983  0.00  0.00    -0.920 OA
BRANCH  19  22
ATOM     22  C   LIG    1        3.756   1.770  -0.592  0.00  0.00    -0.500 A 
ATOM     23  C   LIG    1        4.949   1.492  -0.016  0.00  0.00    +0.000 A 
ATOM     24  C   LIG    1        5.947   2.115  -0.772  0.00  0.00    +0.230 A 
ATOM     25  N   LIG    1        5.375   2.737  -1.771  0.00  0.00    -0.250 NA
ATOM     26  N   LIG    1        3.992   2.537  -1.677  0.00  0.00    -0.310 N 
ATOM     27  C   LIG    1        2.980   3.067  -2.595  0.00  0.00    +0.370 C 
ENDBRANCH  19  22
ENDBRANCH   9  19
TORSDOF 4
