REMARK  Name = ZINCpe000000YTOL.0
REMARK                            x       y       z     vdW  Elec       q    Type
REMARK                         _______ _______ _______ _____ _____    ______ ____
ROOT
ATOM      1  N   LIG    1        0.099   8.032  -0.077  0.00  0.00    -0.520 NA
ATOM      2  C   LIG    1        1.506   8.454  -0.076  0.00  0.00    +0.180 C 
ATOM      3  C   LIG    1        1.593   9.931  -0.478  0.00  0.00    +0.290 C 
ATOM      4  N   LIG    1        0.710  10.708   0.404  0.00  0.00    -0.610 N 
ATOM      5  C   LIG    1       -0.683  10.263   0.562  0.00  0.00    +0.300 C 
ATOM      6  C   LIG    1        1.165  11.799   1.052  0.00  0.00    +0.560 C 
ATOM      7  O   LIG    1        0.404  12.471   1.720  0.00  0.00    -0.520 OA
ATOM      8  C   LIG    1       -0.681   8.774   0.923  0.00  0.00    +0.170 C 
ENDROOT
BRANCH   6   9
ATOM      9  C   LIG    1        2.589  12.178   0.949  0.00  0.00    -0.160 A 
ATOM     10  C   LIG    1        3.189  12.320  -0.303  0.00  0.00    +0.080 A 
ATOM     11  C   LIG    1        4.517  12.679  -0.392  0.00  0.00    +0.010 A 
ATOM     12  C   LIG    1        5.261  12.889   0.757  0.00  0.00    +0.070 A 
ATOM     13  C   LIG    1        4.677  12.745   2.002  0.00  0.00    -0.020 A 
ATOM     14  C   LIG    1        3.345  12.391   2.107  0.00  0.00    +0.150 A 
ATOM     15  F   LIG    1        2.774  12.251   3.324  0.00  0.00    -0.130 F 
ENDBRANCH   6   9
BRANCH   1  16
ATOM     16  C   LIG    1       -0.016   6.583   0.135  0.00  0.00    +0.220 C 
BRANCH  16  18
ATOM     17  O   LIG    1        1.063   6.481  -1.961  0.00  0.00    -0.520 OA
ATOM     18  C   LIG    1        0.586   5.854  -1.039  0.00  0.00    +0.510 C 
ATOM     19  N   LIG    1        0.593   4.507  -1.064  0.00  0.00    -0.730 N 
ATOM     20  H   LIG    1        0.211   4.006  -0.326  0.00  0.00    +0.400 HD
BRANCH  19  21
ATOM     21  C   LIG    1        1.178   3.799  -2.205  0.00  0.00    +0.290 C 
BRANCH  21  22
ATOM     22  C   LIG    1        1.058   2.289  -1.984  0.00  0.00    +0.140 C 
ATOM     23  C   LIG    1        1.681   1.513  -3.172  0.00  0.00    +0.010 C 
ATOM     24  C   LIG    1        0.933   0.159  -3.103  0.00  0.00    +0.000 C 
ATOM     25  C   LIG    1       -0.345   0.475  -2.302  0.00  0.00    +0.200 C 
ATOM     26  O   LIG    1       -0.327   1.881  -2.004  0.00  0.00    -0.370 OA
ENDBRANCH  21  22
ENDBRANCH  19  21
ENDBRANCH  16  18
ENDBRANCH   1  16
TORSDOF 5
