REMARK  Name = ZINCpk000000nK8u.0
REMARK                            x       y       z     vdW  Elec       q    Type
REMARK                         _______ _______ _______ _____ _____    ______ ____
ROOT
ATOM      1  C   LIG    1       -0.729   4.761   4.897  0.00  0.00    +0.170 C 
ENDROOT
BRANCH   1   2
ATOM      2  C   LIG    1       -0.621   3.259   4.845  0.00  0.00    +0.520 C 
ATOM      3  N   LIG    1       -1.046   2.591   3.754  0.00  0.00    -0.610 N 
ATOM      4  C   LIG    1       -0.879   1.133   3.650  0.00  0.00    +0.300 C 
ATOM      5  C   LIG    1       -0.208   0.815   2.309  0.00  0.00    +0.170 C 
ATOM      6  N   LIG    1       -0.979   1.431   1.221  0.00  0.00    -0.530 NA
ATOM      7  C   LIG    1       -0.986   2.896   1.336  0.00  0.00    +0.160 C 
ATOM      8  C   LIG    1       -1.688   3.299   2.637  0.00  0.00    +0.290 C 
ATOM      9  O   LIG    1       -0.151   2.652   5.783  0.00  0.00    -0.510 OA
BRANCH   6  10
ATOM     10  C   LIG    1       -0.470   1.008  -0.090  0.00  0.00    +0.140 C 
BRANCH  10  11
ATOM     11  C   LIG    1       -1.438   1.462  -1.184  0.00  0.00    +0.210 C 
ATOM     12  C   LIG    1       -0.908   1.022  -2.550  0.00  0.00    +0.000 C 
BRANCH  11  13
ATOM     13  O   LIG    1       -2.721   0.874  -0.959  0.00  0.00    -0.550 OA
ATOM     14  H   LIG    1       -2.717  -0.093  -0.965  0.00  0.00    +0.370 HD
ENDBRANCH  11  13
ENDBRANCH  10  11
ENDBRANCH   6  10
ENDBRANCH   1   2
BRANCH   1  16
ATOM     15  C   LIG    1       -2.226   6.678   5.471  0.00  0.00    +0.040 C 
ATOM     16  C   LIG    1       -2.079   5.155   5.499  0.00  0.00    -0.020 C 
ATOM     17  C   LIG    1       -3.206   4.519   4.683  0.00  0.00    +0.040 C 
ENDBRANCH   1  16
BRANCH   1  18
ATOM     18  O   LIG    1        0.325   5.287   5.707  0.00  0.00    -0.280 OA
BRANCH  18  19
ATOM     19  C   LIG    1        0.909   6.438   5.287  0.00  0.00    +0.170 A 
ATOM     20  C   LIG    1        0.419   7.101   4.172  0.00  0.00    -0.080 A 
ATOM     21  C   LIG    1        1.012   8.275   3.749  0.00  0.00    +0.090 A 
ATOM     22  C   LIG    1        2.103   8.793   4.426  0.00  0.00    -0.020 A 
ATOM     23  C   LIG    1        2.606   8.144   5.534  0.00  0.00    +0.110 A 
ATOM     24  C   LIG    1        2.013   6.959   5.975  0.00  0.00    -0.060 A 
BRANCH  24  25
ATOM     25  C   LIG    1        2.531   6.279   7.125  0.00  0.00    +0.250 C 
ATOM     26  N   LIG    1        2.942   5.741   8.036  0.00  0.00    -0.410 NA
ENDBRANCH  24  25
ENDBRANCH  18  19
ENDBRANCH   1  18
TORSDOF 8
