REMARK  Name = ZINCpe000000YkJn.0
REMARK                            x       y       z     vdW  Elec       q    Type
REMARK                         _______ _______ _______ _____ _____    ______ ____
ROOT
ATOM      1  N   LIG    1        2.127   0.236   1.177  0.00  0.00    -1.000 NA
ATOM      2  C   LIG    1        0.849  -0.489   1.185  0.00  0.00    +0.300 C 
ATOM      3  C   LIG    1        0.002  -0.004   0.002  0.00  0.00    +0.290 C 
ATOM      4  N   LIG    1       -0.018   1.465   0.010  0.00  0.00    -0.990 NA
ATOM      5  C   LIG    1        1.260   2.191   0.002  0.00  0.00    +0.280 C 
ATOM      6  C   LIG    1        2.107   1.706   1.185  0.00  0.00    +0.290 C 
ENDROOT
BRANCH   1   7
ATOM      7  S   LIG    1        3.563  -0.587   1.158  0.00  0.00    +2.720 S 
ATOM      8  O   LIG    1        3.296  -1.874   1.698  0.00  0.00    -0.960 OA
ATOM      9  O   LIG    1        4.538   0.295   1.698  0.00  0.00    -0.960 OA
BRANCH   7  14
ATOM     10  C   LIG    1        5.572   0.027  -3.669  0.00  0.00    +0.320 C 
ATOM     11  N   LIG    1        4.848  -0.557  -2.538  0.00  0.00    -0.440 N 
ATOM     12  C   LIG    1        4.174  -1.742  -2.553  0.00  0.00    +0.150 A 
ATOM     13  C   LIG    1        3.647  -1.943  -1.328  0.00  0.00    +0.030 A 
ATOM     14  C   LIG    1        4.000  -0.837  -0.531  0.00  0.00    -0.750 A 
ATOM     15  C   LIG    1        4.738  -0.007  -1.296  0.00  0.00    +0.290 A 
ENDBRANCH   7  14
ENDBRANCH   1   7
BRANCH   4  16
ATOM     16  S   LIG    1       -1.455   2.289   0.021  0.00  0.00    +2.690 S 
ATOM     17  O   LIG    1       -2.427   1.407  -0.523  0.00  0.00    -0.950 OA
ATOM     18  O   LIG    1       -1.184   3.575  -0.517  0.00  0.00    -0.950 OA
BRANCH  16  19
ATOM     19  C   LIG    1       -1.899   2.539   1.708  0.00  0.00    -0.690 A 
ATOM     20  C   LIG    1       -2.674   1.601   2.365  0.00  0.00    +0.160 A 
ATOM     21  C   LIG    1       -3.019   1.794   3.689  0.00  0.00    -0.020 A 
ATOM     22  C   LIG    1       -2.598   2.932   4.355  0.00  0.00    +0.160 A 
ATOM     23  C   LIG    1       -1.826   3.873   3.695  0.00  0.00    -0.020 A 
ATOM     24  F   LIG    1       -2.938   3.124   5.648  0.00  0.00    -0.130 F 
ATOM     25  C   LIG    1       -1.478   3.676   2.372  0.00  0.00    +0.160 A 
ENDBRANCH  16  19
ENDBRANCH   4  16
TORSDOF 4
