REMARK  Name = ZINCrD000000CsDC.0
REMARK                            x       y       z     vdW  Elec       q    Type
REMARK                         _______ _______ _______ _____ _____    ______ ____
ROOT
ATOM      1  O   LIG    1       -9.233   1.187   0.982  0.00  0.00    -0.550 OA
ATOM      2  C   LIG    1       -8.020   1.122   0.977  0.00  0.00    +0.650 C 
ATOM      3  N   LIG    1       -7.284   2.246   1.077  0.00  0.00    -0.590 N 
ATOM      4  C   LIG    1       -7.935   3.559   1.192  0.00  0.00    +0.300 C 
ATOM      5  C   LIG    1       -7.408   4.468   0.075  0.00  0.00    +0.290 C 
ATOM      6  N   LIG    1       -5.940   4.403   0.070  0.00  0.00    -0.600 N 
ATOM      7  C   LIG    1       -5.289   3.092  -0.051  0.00  0.00    +0.290 C 
ATOM      8  C   LIG    1       -5.204   5.528   0.170  0.00  0.00    +0.600 C 
ATOM      9  O   LIG    1       -5.743   6.586   0.433  0.00  0.00    -0.530 OA
ATOM     10  C   LIG    1       -5.815   2.182   1.072  0.00  0.00    +0.290 C 
ENDROOT
BRANCH   8  11
ATOM     11  C   LIG    1       -3.747   5.476  -0.040  0.00  0.00    +0.010 A 
ATOM     12  C   LIG    1       -2.943   6.537   0.192  0.00  0.00    -0.010 A 
ATOM     13  S   LIG    1       -1.327   6.104  -0.159  0.00  0.00    +0.250 S 
ATOM     14  C   LIG    1       -1.839   4.482  -0.608  0.00  0.00    +0.110 A 
ATOM     15  N   LIG    1       -3.130   4.385  -0.474  0.00  0.00    -0.430 NA
BRANCH  14  16
ATOM     16  C   LIG    1       -0.949   3.405  -1.070  0.00  0.00    +0.040 A 
ATOM     17  C   LIG    1        0.402   3.494  -1.221  0.00  0.00    +0.000 A 
ATOM     18  C   LIG    1        0.842   2.238  -1.680  0.00  0.00    -0.050 A 
ATOM     19  C   LIG    1       -0.248   1.452  -1.787  0.00  0.00    +0.200 A 
ATOM     20  O   LIG    1       -1.328   2.161  -1.423  0.00  0.00    -0.150 OA
ENDBRANCH  14  16
ENDBRANCH   8  11
BRANCH   2  21
ATOM     21  O   LIG    1       -7.410  -0.075   0.871  0.00  0.00    -0.300 OA
BRANCH  21  22
ATOM     22  C   LIG    1       -8.207  -1.157   0.663  0.00  0.00    +0.100 A 
ATOM     23  C   LIG    1       -8.364  -2.106   1.663  0.00  0.00    +0.010 A 
ATOM     24  C   LIG    1       -9.176  -3.203   1.451  0.00  0.00    +0.020 A 
ATOM     25  C   LIG    1       -9.826  -3.359   0.240  0.00  0.00    +0.010 A 
ATOM     26  C   LIG    1       -9.667  -2.417  -0.759  0.00  0.00    +0.030 A 
ATOM     27  C   LIG    1       -8.859  -1.317  -0.550  0.00  0.00    +0.010 A 
ENDBRANCH  21  22
ENDBRANCH   2  21
TORSDOF 4
