REMARK  Name = ZINCrg00000fRjPp.2
REMARK                            x       y       z     vdW  Elec       q    Type
REMARK                         _______ _______ _______ _____ _____    ______ ____
ROOT
ATOM      1  N   LIG    1       -2.696  -1.169   1.709  0.00  0.00    -0.490 NA
ATOM      2  C   LIG    1       -2.865   0.178   1.116  0.00  0.00    +0.180 C 
ATOM      3  C   LIG    1       -2.488   0.063  -0.373  0.00  0.00    -0.010 C 
ATOM      4  C   LIG    1       -2.132  -1.426  -0.588  0.00  0.00    +0.090 C 
ATOM      5  C   LIG    1       -2.858  -2.129   0.587  0.00  0.00    +0.190 C 
ENDROOT
BRANCH   4   6
ATOM      6  C   LIG    1       -2.663  -1.916  -1.911  0.00  0.00    -0.230 A 
ATOM      7  C   LIG    1       -1.924  -2.411  -2.930  0.00  0.00    +0.230 A 
ATOM      8  N   LIG    1       -2.769  -2.738  -3.930  0.00  0.00    -0.360 N 
ATOM      9  N   LIG    1       -4.070  -2.425  -3.514  0.00  0.00    -0.290 NA
ATOM     10  C   LIG    1       -4.005  -1.932  -2.304  0.00  0.00    +0.230 A 
BRANCH   8  11
ATOM     11  C   LIG    1       -2.393  -3.313  -5.224  0.00  0.00    +0.250 C 
ATOM     12  C   LIG    1       -1.209  -4.264  -5.034  0.00  0.00    +0.050 C 
ATOM     13  C   LIG    1       -1.996  -2.191  -6.185  0.00  0.00    +0.040 C 
ENDBRANCH   8  11
ENDBRANCH   4   6
BRANCH   1  14
ATOM     14  C   LIG    1       -3.697  -1.410   2.757  0.00  0.00    +0.120 C 
ATOM     15  C   LIG    1       -3.382  -2.726   3.470  0.00  0.00    +0.060 C 
BRANCH  14  21
ATOM     16  N   LIG    1       -7.229   1.175   5.089  0.00  0.00    -0.540 NA
ATOM     17  C   LIG    1       -7.175   0.111   4.077  0.00  0.00    +0.170 C 
ATOM     18  C   LIG    1       -5.981  -0.804   4.367  0.00  0.00    +0.280 C 
ATOM     19  N   LIG    1       -4.769   0.025   4.463  0.00  0.00    -0.620 N 
ATOM     20  C   LIG    1       -4.793   1.190   5.361  0.00  0.00    +0.300 C 
ATOM     21  C   LIG    1       -3.665  -0.279   3.752  0.00  0.00    +0.520 C 
ATOM     22  O   LIG    1       -2.646   0.358   3.914  0.00  0.00    -0.520 OA
ATOM     23  C   LIG    1       -6.036   2.030   5.027  0.00  0.00    +0.170 C 
BRANCH  16  25
ATOM     24  C   LIG    1       -8.600   2.900   6.157  0.00  0.00    +0.030 C 
ATOM     25  C   LIG    1       -8.455   1.972   4.949  0.00  0.00    +0.160 C 
ENDBRANCH  16  25
ENDBRANCH  14  21
ENDBRANCH   1  14
BRANCH   3  26
ATOM     26  C   LIG    1       -1.279   0.948  -0.685  0.00  0.00    +0.180 C 
BRANCH  26  27
ATOM     27  O   LIG    1       -1.651   2.322  -0.562  0.00  0.00    -0.570 OA
ATOM     28  H   LIG    1       -0.932   2.942  -0.746  0.00  0.00    +0.380 HD
ENDBRANCH  26  27
ENDBRANCH   3  26
TORSDOF 7
