REMARK  Name = ZINCvU0000000Cvz.0
REMARK                            x       y       z     vdW  Elec       q    Type
REMARK                         _______ _______ _______ _____ _____    ______ ____
ROOT
ATOM      1  C   LIG    1       -4.163  -4.148  -0.270  0.00  0.00    +0.510 C 
ATOM      2  N   LIG    1       -3.250  -3.157  -0.242  0.00  0.00    -0.670 N 
ATOM      3  H   LIG    1       -3.539  -2.231  -0.215  0.00  0.00    +0.410 HD
ATOM      4  O   LIG    1       -3.803  -5.301  -0.386  0.00  0.00    -0.500 OA
ENDROOT
BRANCH   2   5
ATOM      5  C   LIG    1       -1.883  -3.463  -0.253  0.00  0.00    +0.170 A 
ATOM      6  C   LIG    1       -1.421  -4.557  -0.968  0.00  0.00    +0.040 A 
ATOM      7  C   LIG    1       -0.071  -4.858  -0.978  0.00  0.00    +0.030 A 
ATOM      8  C   LIG    1        0.822  -4.070  -0.275  0.00  0.00    +0.020 A 
ATOM      9  C   LIG    1        0.372  -2.974   0.437  0.00  0.00    +0.020 A 
ATOM     10  C   LIG    1       -0.982  -2.668   0.456  0.00  0.00    -0.130 A 
BRANCH  10  11
ATOM     11  S   LIG    1       -1.560  -1.275   1.368  0.00  0.00    -0.000 S 
BRANCH  11  12
ATOM     12  C   LIG    1       -0.069  -0.531   1.942  0.00  0.00    -0.140 A 
ATOM     13  C   LIG    1        0.416  -0.832   3.209  0.00  0.00    +0.090 A 
ATOM     14  C   LIG    1        1.584  -0.248   3.656  0.00  0.00    +0.020 A 
ATOM     15  C   LIG    1        2.272   0.637   2.844  0.00  0.00    -0.010 A 
ATOM     16  C   LIG    1        1.792   0.939   1.582  0.00  0.00    +0.020 A 
ATOM     17 CL   LIG    1        3.740   1.370   3.410  0.00  0.00    -0.060 Cl
ATOM     18  C   LIG    1        0.624   0.358   1.129  0.00  0.00    +0.090 A 
ENDBRANCH  11  12
ENDBRANCH  10  11
ENDBRANCH   2   5
BRANCH   1  19
ATOM     19  C   LIG    1       -5.630  -3.824  -0.156  0.00  0.00    +0.360 C 
BRANCH  19  24
ATOM     20  C   LIG    1       -7.615  -6.867  -0.927  0.00  0.00    +0.130 C 
ATOM     21  N   LIG    1       -7.462  -6.881   0.538  0.00  0.00    -0.710 N 
ATOM     22  H   LIG    1       -7.811  -7.547   1.151  0.00  0.00    +0.440 HD
ATOM     23  C   LIG    1       -6.745  -5.790   0.860  0.00  0.00    +0.710 C 
ATOM     24  N   LIG    1       -6.409  -5.063  -0.212  0.00  0.00    -0.560 N 
ATOM     25  O   LIG    1       -6.436  -5.496   1.998  0.00  0.00    -0.540 OA
ATOM     26  C   LIG    1       -6.971  -8.109  -1.547  0.00  0.00    +0.080 C 
ATOM     27  C   LIG    1       -6.882  -5.610  -1.350  0.00  0.00    +0.540 C 
ATOM     28  O   LIG    1       -6.748  -5.184  -2.477  0.00  0.00    -0.460 OA
BRANCH  20  29
ATOM     29  C   LIG    1       -9.093  -6.780  -1.313  0.00  0.00    +0.040 C 
BRANCH  29  30
ATOM     30  C   LIG    1       -9.857  -7.941  -0.674  0.00  0.00    +0.020 C 
BRANCH  30  32
ATOM     31  C   LIG    1      -11.480  -8.055  -2.570  0.00  0.00    +0.030 C 
ATOM     32  C   LIG    1      -11.335  -7.854  -1.060  0.00  0.00    -0.030 C 
ATOM     33  C   LIG    1      -12.120  -8.941  -0.323  0.00  0.00    +0.020 C 
ENDBRANCH  30  32
ENDBRANCH  29  30
ENDBRANCH  20  29
ENDBRANCH  19  24
ENDBRANCH   1  19
TORSDOF 8
