REMARK  Name = ZINCrg000000nAaV.0
REMARK                            x       y       z     vdW  Elec       q    Type
REMARK                         _______ _______ _______ _____ _____    ______ ____
ROOT
ATOM      1  C   LIG    1       -1.024  -2.120   0.601  0.00  0.00    +0.550 C 
ATOM      2  N   LIG    1       -2.047  -2.991   0.710  0.00  0.00    -0.640 N 
ATOM      3  C   LIG    1       -3.483  -2.982   0.387  0.00  0.00    +0.320 C 
ATOM      4  C   LIG    1       -3.398  -4.503   0.251  0.00  0.00    +0.120 C 
ATOM      5  C   LIG    1       -4.597  -5.254   0.828  0.00  0.00    +0.140 C 
ATOM      6  C   LIG    1       -4.489  -6.726   0.529  0.00  0.00    +0.530 C 
ATOM      7  N   LIG    1       -3.903  -7.186  -0.597  0.00  0.00    -0.620 N 
ATOM      8  H   LIG    1       -3.890  -8.136  -0.794  0.00  0.00    +0.430 HD
ATOM      9  C   LIG    1       -3.319  -6.274  -1.470  0.00  0.00    +0.430 A 
ATOM     10  N   LIG    1       -2.925  -6.418  -2.700  0.00  0.00    -0.480 NA
ATOM     11  C   LIG    1       -2.388  -5.262  -3.133  0.00  0.00    +0.170 A 
ATOM     12  C   LIG    1       -2.456  -4.360  -2.132  0.00  0.00    +0.160 A 
ATOM     13  O   LIG    1       -4.941  -7.522   1.324  0.00  0.00    -0.500 OA
ATOM     14  N   LIG    1       -3.049  -4.986  -1.080  0.00  0.00    -0.460 N 
ATOM     15  C   LIG    1       -2.219  -4.364   1.211  0.00  0.00    +0.310 C 
ATOM     16  O   LIG    1        0.085  -2.437   0.978  0.00  0.00    -0.520 OA
ENDROOT
BRANCH   1  17
ATOM     17  C   LIG    1       -1.256  -0.754   0.010  0.00  0.00    +0.300 C 
BRANCH  17  18
ATOM     18  C   LIG    1       -1.765  -0.897  -1.401  0.00  0.00    -0.110 A 
ATOM     19  C   LIG    1       -0.880  -1.148  -2.433  0.00  0.00    +0.020 A 
ATOM     20  C   LIG    1       -1.347  -1.284  -3.727  0.00  0.00    +0.020 A 
ATOM     21  C   LIG    1       -2.698  -1.159  -3.991  0.00  0.00    +0.020 A 
ATOM     22  C   LIG    1       -3.583  -0.902  -2.960  0.00  0.00    +0.020 A 
ATOM     23  C   LIG    1       -3.116  -0.771  -1.665  0.00  0.00    +0.020 A 
ENDBRANCH  17  18
BRANCH  17  25
ATOM     24  C   LIG    1       -0.016   1.344   0.009  0.00  0.00    +0.520 C 
ATOM     25  N   LIG    1        0.002  -0.004   0.002  0.00  0.00    -0.720 N 
ATOM     26  H   LIG    1        0.849  -0.478  -0.009  0.00  0.00    +0.410 HD
ATOM     27  O   LIG    1       -1.075   1.936   0.018  0.00  0.00    -0.530 OA
BRANCH  24  29
ATOM     28  C   LIG    1        0.979   3.615   0.012  0.00  0.00    +0.040 C 
ATOM     29  C   LIG    1        1.278   2.115   0.001  0.00  0.00    +0.060 C 
ENDBRANCH  24  29
ENDBRANCH  17  25
ENDBRANCH   1  17
TORSDOF 4
