REMARK  Name = ZINCpk00000ebHp7.1
REMARK                            x       y       z     vdW  Elec       q    Type
REMARK                         _______ _______ _______ _____ _____    ______ ____
ROOT
ATOM      1  C   LIG    1        3.475   2.647  -0.138  0.00  0.00    +0.340 C 
ENDROOT
BRANCH   1   2
ATOM      2  C   LIG    1        2.327   1.678  -0.247  0.00  0.00    +0.430 C 
ATOM      3  N   LIG    1        1.142   2.110   0.003  0.00  0.00    -0.510 NA
ATOM      4  C   LIG    1       -0.017   1.396   0.010  0.00  0.00    +0.190 A 
ATOM      5  C   LIG    1       -1.252   2.048   0.019  0.00  0.00    +0.040 A 
ATOM      6  C   LIG    1       -2.419   1.312   0.018  0.00  0.00    +0.080 A 
ATOM      7  C   LIG    1       -2.380  -0.071   0.005  0.00  0.00    +0.000 A 
ATOM      8  C   LIG    1       -1.160  -0.730  -0.003  0.00  0.00    +0.140 A 
ATOM      9  C   LIG    1        0.002  -0.004   0.002  0.00  0.00    -0.700 A 
ATOM     10  S   LIG    1        1.585  -0.795   0.003  0.00  0.00    +2.670 S 
ATOM     11  O   LIG    1        1.528  -1.838  -0.960  0.00  0.00    -0.930 OA
ATOM     12  O   LIG    1        1.949  -0.995   1.362  0.00  0.00    -0.930 OA
ATOM     13  N   LIG    1        2.604   0.381  -0.607  0.00  0.00    -1.060 N 
ATOM     14  H   LIG    1        3.352   0.160  -1.185  0.00  0.00    +0.440 HD
ENDBRANCH   1   2
BRANCH   1  15
ATOM     15  O   LIG    1        2.972   3.953   0.251  0.00  0.00    -0.310 OA
BRANCH  15  17
ATOM     16  O   LIG    1        5.056   4.716   0.197  0.00  0.00    -0.490 OA
ATOM     17  C   LIG    1        3.877   4.940   0.393  0.00  0.00    +0.560 C 
BRANCH  17  18
ATOM     18  C   LIG    1        3.438   6.293   0.787  0.00  0.00    +0.000 A 
ATOM     19  N   LIG    1        2.197   6.682   1.026  0.00  0.00    -0.230 NA
ATOM     20  N   LIG    1        2.179   7.929   1.349  0.00  0.00    -0.370 N 
ATOM     21  H   LIG    1        1.381   8.434   1.571  0.00  0.00    +0.450 HD
ATOM     22  C   LIG    1        3.425   8.429   1.330  0.00  0.00    +0.010 A 
ATOM     23  C   LIG    1        3.887   9.832   1.633  0.00  0.00    +0.120 C 
ATOM     24  C   LIG    1        5.401   9.798   1.879  0.00  0.00    +0.030 C 
ATOM     25  C   LIG    1        6.092   9.046   0.739  0.00  0.00    +0.020 C 
ATOM     26  C   LIG    1        5.748   7.552   0.827  0.00  0.00    +0.110 C 
ATOM     27  C   LIG    1        4.257   7.420   0.974  0.00  0.00    -0.140 A 
ENDBRANCH  17  18
ENDBRANCH  15  17
ENDBRANCH   1  15
TORSDOF 4
