REMARK  Name = ZINCpk000000nlE7.1
REMARK                            x       y       z     vdW  Elec       q    Type
REMARK                         _______ _______ _______ _____ _____    ______ ____
ROOT
ATOM      1  C   LIG    1       -2.150   1.076   1.266  0.00  0.00    +0.220 A 
ATOM      2  N   LIG    1       -2.699   0.312   0.354  0.00  0.00    -0.260 NA
ATOM      3  N   LIG    1       -3.914   0.037   0.679  0.00  0.00    -0.250 NA
ATOM      4  C   LIG    1       -4.201   0.622   1.831  0.00  0.00    +0.110 A 
ATOM      5  C   LIG    1       -5.351   0.666   2.641  0.00  0.00    +0.200 A 
ATOM      6  C   LIG    1       -5.319   1.378   3.798  0.00  0.00    -0.030 A 
ATOM      7  C   LIG    1       -4.146   2.061   4.175  0.00  0.00    +0.420 A 
ATOM      8  N   LIG    1       -3.073   2.021   3.420  0.00  0.00    -0.330 NA
ATOM      9  N   LIG    1       -3.071   1.294   2.228  0.00  0.00    -0.270 N 
ENDROOT
BRANCH   7  10
ATOM     10  N   LIG    1       -4.124   2.786   5.362  0.00  0.00    -0.580 N 
ATOM     11  C   LIG    1       -2.880   3.404   5.839  0.00  0.00    +0.300 C 
ATOM     12  C   LIG    1       -3.136   4.893   6.096  0.00  0.00    +0.030 C 
ATOM     13  C   LIG    1       -4.320   5.045   7.053  0.00  0.00    +0.060 C 
ATOM     14  C   LIG    1       -5.574   4.442   6.415  0.00  0.00    +0.110 C 
ATOM     15  C   LIG    1       -5.347   2.953   6.159  0.00  0.00    +0.320 C 
BRANCH  14  16
ATOM     16  C   LIG    1       -6.747   4.621   7.345  0.00  0.00    +0.250 A 
ATOM     17  N   LIG    1       -6.670   4.757   8.627  0.00  0.00    -0.250 NA
ATOM     18  N   LIG    1       -7.974   4.898   9.124  0.00  0.00    -0.550 N 
ATOM     19  H   LIG    1       -8.230   5.017  10.052  0.00  0.00    +0.470 HD
ATOM     20  C   LIG    1       -8.804   4.835   8.061  0.00  0.00    +0.610 A 
ATOM     21  O   LIG    1      -10.018   4.918   8.087  0.00  0.00    -0.480 OA
ATOM     22  O   LIG    1       -8.040   4.670   6.968  0.00  0.00    -0.270 OA
ENDBRANCH  14  16
ENDBRANCH   7  10
BRANCH   1  24
ATOM     23  C   LIG    1       -0.027   1.124  -0.015  0.00  0.00    +0.080 C 
ATOM     24  C   LIG    1       -0.741   1.611   1.248  0.00  0.00    +0.020 C 
ATOM     25  C   LIG    1       -0.775   3.140   1.257  0.00  0.00    +0.050 C 
ATOM     26  C   LIG    1        0.011   1.110   2.483  0.00  0.00    +0.050 C 
ENDBRANCH   1  24
TORSDOF 3
