REMARK  Name = ZINCpe000014UZTq.0
REMARK                            x       y       z     vdW  Elec       q    Type
REMARK                         _______ _______ _______ _____ _____    ______ ____
ROOT
ATOM      1  C   LIG    1        1.237   3.617  -0.129  0.00  0.00    +0.400 A 
ATOM      2  C   LIG    1        0.010   4.299  -0.209  0.00  0.00    -0.040 A 
ATOM      3  N   LIG    1       -0.352   5.603  -0.271  0.00  0.00    -0.450 NA
ATOM      4  C   LIG    1       -1.649   5.689  -0.334  0.00  0.00    +0.510 A 
ATOM      5  N   LIG    1       -2.200   4.442  -0.317  0.00  0.00    -0.460 N 
ATOM      6  C   LIG    1       -1.171   3.538  -0.238  0.00  0.00    +0.300 A 
ATOM      7  N   LIG    1       -1.087   2.213  -0.193  0.00  0.00    -0.510 NA
ATOM      8  C   LIG    1        0.085   1.616  -0.113  0.00  0.00    +0.400 A 
ATOM      9 CL   LIG    1        0.138  -0.118  -0.051  0.00  0.00    +0.040 Cl
ATOM     10  N   LIG    1        1.222   2.289  -0.084  0.00  0.00    -0.540 NA
ENDROOT
BRANCH   1  13
ATOM     11  C   LIG    1        4.212   4.357   0.997  0.00  0.00    -0.610 C 
ATOM     12  C   LIG    1        3.579   3.390  -0.013  0.00  0.00    +0.320 C 
ATOM     13  N   LIG    1        2.432   4.313  -0.098  0.00  0.00    -0.390 N 
ATOM     14  C   LIG    1        2.754   4.750   1.273  0.00  0.00    +0.310 C 
BRANCH  11  15
ATOM     15  S   LIG    1        5.044   3.541   2.387  0.00  0.00    +2.440 S 
ATOM     16  O   LIG    1        4.167   2.562   2.927  0.00  0.00    -0.910 OA
ATOM     17  O   LIG    1        5.580   4.540   3.244  0.00  0.00    -0.900 OA
ATOM     18  C   LIG    1        6.416   2.693   1.557  0.00  0.00    -0.240 C 
ENDBRANCH  11  15
BRANCH  11  19
ATOM     19  C   LIG    1        5.037   5.451   0.369  0.00  0.00    +0.500 C 
ATOM     20  O   LIG    1        4.950   5.670  -0.816  0.00  0.00    -0.460 OA
BRANCH  19  22
ATOM     21  C   LIG    1        6.633   7.220   0.456  0.00  0.00    +0.290 C 
ATOM     22  O   LIG    1        5.869   6.183   1.127  0.00  0.00    -0.340 OA
ENDBRANCH  19  22
ENDBRANCH  11  19
ENDBRANCH   1  13
BRANCH   5  23
ATOM     23  C   LIG    1       -3.630   4.125  -0.372  0.00  0.00    +0.240 C 
ATOM     24  C   LIG    1       -4.224   4.676  -1.669  0.00  0.00    +0.070 C 
ATOM     25  C   LIG    1       -4.340   4.761   0.825  0.00  0.00    +0.070 C 
ENDBRANCH   5  23
TORSDOF 5
