REMARK  Name = ZINCpk00000y6xwU.0
REMARK                            x       y       z     vdW  Elec       q    Type
REMARK                         _______ _______ _______ _____ _____    ______ ____
ROOT
ATOM      1  C   LIG    1        3.301   0.631   0.846  0.00  0.00    +0.320 C 
ENDROOT
BRANCH   1   6
ATOM      2  C   LIG    1        1.258   1.853   0.006  0.00  0.00    +0.100 C 
ATOM      3  C   LIG    1       -0.219   1.400  -0.029  0.00  0.00    +0.020 C 
ATOM      4  C   LIG    1       -0.137  -0.141  -0.091  0.00  0.00    +0.210 C 
ATOM      5  O   LIG    1        1.150  -0.466   0.477  0.00  0.00    -0.360 OA
ATOM      6  C   LIG    1        2.057   0.532  -0.040  0.00  0.00    +0.160 C 
BRANCH   2  11
ATOM      7  C   LIG    1        1.255   3.421   4.809  0.00  0.00    +0.200 C 
ATOM      8  C   LIG    1        1.549   3.275   3.338  0.00  0.00    +0.180 A 
ATOM      9  N   LIG    1        2.384   3.997   2.640  0.00  0.00    -0.290 NA
ATOM     10  N   LIG    1        2.389   3.594   1.419  0.00  0.00    -0.280 NA
ATOM     11  C   LIG    1        1.551   2.603   1.280  0.00  0.00    +0.190 A 
ATOM     12  N   LIG    1        0.997   2.370   2.494  0.00  0.00    -0.580 N 
ATOM     13  H   LIG    1        0.338   1.692   2.715  0.00  0.00    +0.430 HD
ENDBRANCH   2  11
ENDBRANCH   1   6
BRANCH   1  14
ATOM     14  N   LIG    1        4.067  -0.615   0.753  0.00  0.00    -0.600 N 
ATOM     15  C   LIG    1        5.023  -0.751  -0.187  0.00  0.00    +0.590 C 
ATOM     16  O   LIG    1        5.189   0.123  -1.015  0.00  0.00    -0.510 OA
ATOM     17  C   LIG    1        3.792  -1.714   1.683  0.00  0.00    +0.290 C 
BRANCH  15  18
ATOM     18  C   LIG    1        5.871  -1.965  -0.210  0.00  0.00    +0.040 A 
ATOM     19  N   LIG    1        5.383  -3.111  -0.678  0.00  0.00    -0.400 NA
ATOM     20  C   LIG    1        6.141  -4.189  -0.698  0.00  0.00    +0.070 A 
ATOM     21  C   LIG    1        7.447  -4.130  -0.232  0.00  0.00    +0.100 A 
ATOM     22  N   LIG    1        7.937  -2.995   0.233  0.00  0.00    -0.430 NA
ATOM     23  C   LIG    1        8.309  -5.366  -0.257  0.00  0.00    +0.150 C 
ATOM     24  C   LIG    1        5.589  -5.487  -1.228  0.00  0.00    +0.160 C 
ATOM     25  C   LIG    1        7.186  -1.909   0.252  0.00  0.00    +0.120 A 
ATOM     26  C   LIG    1        7.746  -0.612   0.777  0.00  0.00    +0.160 C 
ENDBRANCH  15  18
ENDBRANCH   1  14
TORSDOF 4
