REMARK  Name = ZINCpe000000XuIu.0
REMARK                            x       y       z     vdW  Elec       q    Type
REMARK                         _______ _______ _______ _____ _____    ______ ____
ROOT
ATOM      1  C   LIG    1        0.018   0.417   4.842  0.00  0.00    +0.330 C 
ENDROOT
BRANCH   1  11
ATOM      2  C   LIG    1       -0.013   1.086   0.008  0.00  0.00    +0.100 C 
ATOM      3  C   LIG    1       -0.729   1.579   1.267  0.00  0.00    +0.180 C 
ATOM      4  O   LIG    1       -2.071   1.087   1.274  0.00  0.00    -0.300 OA
ATOM      5  C   LIG    1       -2.754   1.192   2.446  0.00  0.00    +0.080 A 
ATOM      6  C   LIG    1       -4.121   1.405   2.449  0.00  0.00    +0.030 A 
ATOM      7  C   LIG    1       -4.799   1.510   3.651  0.00  0.00    +0.030 A 
ATOM      8  C   LIG    1       -4.116   1.404   4.848  0.00  0.00    +0.020 A 
ATOM      9  C   LIG    1       -2.749   1.191   4.852  0.00  0.00    +0.000 A 
ATOM     10  C   LIG    1       -2.065   1.084   3.653  0.00  0.00    +0.090 A 
ATOM     11  N   LIG    1       -0.680   0.867   3.635  0.00  0.00    -0.550 N 
ATOM     12  C   LIG    1        0.001   1.079   2.488  0.00  0.00    +0.490 C 
ATOM     13  O   LIG    1        1.194   0.869   2.440  0.00  0.00    -0.500 OA
ENDBRANCH   1  11
BRANCH   1  14
ATOM     14  C   LIG    1        0.481   1.634   5.646  0.00  0.00    +0.040 C 
BRANCH  14  15
ATOM     15  C   LIG    1        1.199   1.171   6.888  0.00  0.00    +0.520 C 
ATOM     16  N   LIG    1        1.698   2.075   7.754  0.00  0.00    -0.720 N 
ATOM     17  H   LIG    1        1.595   3.024   7.579  0.00  0.00    +0.410 HD
ATOM     18  O   LIG    1        1.328  -0.015   7.107  0.00  0.00    -0.530 OA
BRANCH  16  19
ATOM     19  C   LIG    1        2.396   1.626   8.961  0.00  0.00    +0.190 C 
ATOM     20  C   LIG    1        1.442   0.770   9.796  0.00  0.00    +0.080 C 
ATOM     21  C   LIG    1        1.829   0.908  11.291  0.00  0.00    -0.290 C 
ATOM     22  S   LIG    1        2.163   2.712  11.405  0.00  0.00    +2.390 S 
ATOM     23  O   LIG    1        0.933   3.423  11.447  0.00  0.00    -0.930 OA
ATOM     24  O   LIG    1        3.161   2.951  12.388  0.00  0.00    -0.930 OA
ATOM     25  C   LIG    1        3.598   0.772   8.550  0.00  0.00    +0.050 C 
ATOM     26  C   LIG    1        2.899   2.855   9.733  0.00  0.00    -0.310 C 
ENDBRANCH  16  19
ENDBRANCH  14  15
ENDBRANCH   1  14
TORSDOF 4
