REMARK  Name = ZINCvU0000000I38.0
REMARK                            x       y       z     vdW  Elec       q    Type
REMARK                         _______ _______ _______ _____ _____    ______ ____
ROOT
ATOM      1  C   LIG    1        0.002  -0.004   0.002  0.00  0.00    +0.290 C 
ENDROOT
BRANCH   1   2
ATOM      2  C   LIG    1       -0.018   1.503   0.010  0.00  0.00    -0.100 A 
ATOM      3  C   LIG    1       -1.225   2.178   0.020  0.00  0.00    +0.010 A 
ATOM      4  C   LIG    1       -1.244   3.560   0.032  0.00  0.00    +0.010 A 
ATOM      5  C   LIG    1       -0.056   4.267   0.025  0.00  0.00    -0.070 A 
ATOM      6  C   LIG    1        1.151   3.592   0.010  0.00  0.00    +0.010 A 
ATOM      7  C   LIG    1        1.169   2.210   0.003  0.00  0.00    +0.020 A 
BRANCH   5   8
ATOM      8  C   LIG    1       -0.076   5.774   0.032  0.00  0.00    +0.030 C 
ATOM      9  C   LIG    1       -0.792   6.268   1.290  0.00  0.00    +0.010 C 
ATOM     10  C   LIG    1       -0.813   7.798   1.298  0.00  0.00    +0.000 C 
ATOM     11  C   LIG    1       -1.553   8.304   0.058  0.00  0.00    +0.000 C 
ATOM     12  C   LIG    1       -0.837   7.810  -1.200  0.00  0.00    +0.000 C 
ATOM     13  C   LIG    1       -0.816   6.280  -1.208  0.00  0.00    +0.010 C 
ENDBRANCH   5   8
ENDBRANCH   1   2
BRANCH   1  14
ATOM     14  N   LIG    1       -1.041  -0.511   0.897  0.00  0.00    -0.720 N 
ATOM     15  H   LIG    1       -1.819   0.033   1.093  0.00  0.00    +0.400 HD
ATOM     16  C   LIG    1       -0.918  -1.735   1.449  0.00  0.00    +0.490 C 
ATOM     17  O   LIG    1        0.055  -2.416   1.205  0.00  0.00    -0.510 OA
BRANCH  16  18
ATOM     18  C   LIG    1       -1.991  -2.257   2.370  0.00  0.00    +0.320 C 
BRANCH  18  19
ATOM     19  N   LIG    1       -1.626  -3.598   2.834  0.00  0.00    -0.480 N 
ATOM     20  C   LIG    1       -0.898  -3.729   3.969  0.00  0.00    +0.340 A 
ATOM     21  C   LIG    1       -0.525  -4.930   4.457  0.00  0.00    -0.160 A 
ATOM     22  C   LIG    1       -0.893  -6.116   3.781  0.00  0.00    +0.420 A 
ATOM     23  C   LIG    1       -1.686  -5.984   2.545  0.00  0.00    -0.200 A 
ATOM     24  C   LIG    1       -2.091  -7.102   1.817  0.00  0.00    +0.110 A 
ATOM     25  C   LIG    1       -2.825  -6.937   0.676  0.00  0.00    -0.030 A 
ATOM     26  C   LIG    1       -3.170  -5.667   0.237  0.00  0.00    +0.080 A 
ATOM     27  C   LIG    1       -2.780  -4.548   0.942  0.00  0.00    -0.050 A 
ATOM     28  O   LIG    1       -0.567  -7.212   4.206  0.00  0.00    -0.500 OA
ATOM     29  C   LIG    1       -2.037  -4.694   2.109  0.00  0.00    +0.200 A 
ENDBRANCH  18  19
ENDBRANCH  16  18
ENDBRANCH   1  14
BRANCH   1  31
ATOM     30  C   LIG    1       -0.234  -2.040  -1.427  0.00  0.00    +0.020 C 
ATOM     31  C   LIG    1       -0.255  -0.510  -1.419  0.00  0.00    -0.020 C 
ATOM     32  C   LIG    1       -1.622  -0.016  -1.897  0.00  0.00    +0.020 C 
ENDBRANCH   1  31
TORSDOF 6
