REMARK  Name = ZINCrH000004mEu2.0
REMARK                            x       y       z     vdW  Elec       q    Type
REMARK                         _______ _______ _______ _____ _____    ______ ____
ROOT
ATOM      1  N   LIG    1       -2.283   5.970   0.054  0.00  0.00    -0.720 N 
ATOM      2  H   LIG    1       -3.016   5.335   0.058  0.00  0.00    +0.410 HD
ATOM      3  C   LIG    1       -1.009   5.529   0.040  0.00  0.00    +0.530 C 
ATOM      4  O   LIG    1       -0.092   6.323   0.035  0.00  0.00    -0.520 OA
ENDROOT
BRANCH   1   5
ATOM      5  C   LIG    1       -2.559   7.409   0.064  0.00  0.00    +0.330 C 
BRANCH   5   9
ATOM      6  C   LIG    1       -6.788   8.048   0.100  0.00  0.00    +0.110 A 
ATOM      7  C   LIG    1       -6.110   7.950  -1.103  0.00  0.00    -0.040 A 
ATOM      8  C   LIG    1       -4.742   7.748  -1.112  0.00  0.00    +0.040 A 
ATOM      9  C   LIG    1       -4.050   7.634   0.079  0.00  0.00    -0.110 A 
ATOM     10  C   LIG    1       -4.721   7.731   1.284  0.00  0.00    -0.010 A 
ATOM     11  C   LIG    1       -6.090   7.938   1.300  0.00  0.00    +0.100 A 
BRANCH   6  13
ATOM     12  C   LIG    1       -8.783   8.354  -1.158  0.00  0.00    +0.240 C 
ATOM     13  O   LIG    1       -8.133   8.251   0.111  0.00  0.00    -0.310 OA
ENDBRANCH   6  13
BRANCH  11  14
ATOM     14  O   LIG    1       -6.752   8.033   2.484  0.00  0.00    -0.310 OA
ATOM     15  C   LIG    1       -5.971   7.910   3.675  0.00  0.00    +0.240 C 
ENDBRANCH  11  14
ENDBRANCH   5   9
ENDBRANCH   1   5
BRANCH   3  16
ATOM     16  C   LIG    1       -0.725   4.049   0.030  0.00  0.00    +0.090 C 
BRANCH  16  17
ATOM     17  S   LIG    1        1.065   3.779   0.012  0.00  0.00    +0.080 S 
BRANCH  17  18
ATOM     18  C   LIG    1        1.109   2.018   0.002  0.00  0.00    +0.190 A 
ATOM     19  C   LIG    1        2.349   1.327  -0.013  0.00  0.00    -0.160 A 
ATOM     20  C   LIG    1        2.310  -0.069  -0.020  0.00  0.00    +0.100 A 
ATOM     21  S   LIG    1        3.949  -0.705  -0.038  0.00  0.00    +0.180 S 
ATOM     22  C   LIG    1        4.644   0.905  -0.037  0.00  0.00    -0.170 A 
ATOM     23  C   LIG    1        6.124   1.191  -0.050  0.00  0.00    +0.150 C 
ATOM     24  N   LIG    1        1.123  -0.688  -0.012  0.00  0.00    -0.500 NA
ATOM     25  C   LIG    1        0.002  -0.004   0.002  0.00  0.00    +0.540 A 
ATOM     26  C   LIG    1        3.708   1.834  -0.023  0.00  0.00    -0.070 A 
ATOM     27  C   LIG    1        4.025   3.307  -0.018  0.00  0.00    +0.140 C 
ATOM     28  N   LIG    1       -0.016   1.316   0.009  0.00  0.00    -0.530 NA
ENDBRANCH  17  18
ENDBRANCH  16  17
ENDBRANCH   3  16
TORSDOF 7
