REMARK  Name = ZINCvU0000000EIa.0
REMARK                            x       y       z     vdW  Elec       q    Type
REMARK                         _______ _______ _______ _____ _____    ______ ____
ROOT
ATOM      1  C   LIG    1       -5.655   1.696   1.595  0.00  0.00    -0.230 A 
ATOM      2  C   LIG    1       -5.530   0.525   2.259  0.00  0.00    +0.240 A 
ATOM      3  N   LIG    1       -5.718   0.774   3.581  0.00  0.00    -0.320 N 
ATOM      4  N   LIG    1       -5.967   2.144   3.733  0.00  0.00    -0.260 NA
ATOM      5  C   LIG    1       -5.924   2.704   2.542  0.00  0.00    +0.130 A 
ENDROOT
BRANCH   5   6
ATOM      6  C   LIG    1       -6.127   4.144   2.248  0.00  0.00    -0.010 A 
ATOM      7  C   LIG    1       -5.311   4.790   1.323  0.00  0.00    +0.060 A 
ATOM      8  C   LIG    1       -5.507   6.128   1.048  0.00  0.00    +0.030 A 
ATOM      9  C   LIG    1       -6.507   6.831   1.699  0.00  0.00    -0.030 A 
ATOM     10  C   LIG    1       -7.317   6.194   2.623  0.00  0.00    +0.030 A 
ATOM     11 CL   LIG    1       -6.744   8.516   1.355  0.00  0.00    -0.060 Cl
ATOM     12  C   LIG    1       -7.132   4.855   2.900  0.00  0.00    +0.060 A 
ENDBRANCH   5   6
BRANCH   3  13
ATOM     13  C   LIG    1       -5.671  -0.174   4.612  0.00  0.00    +0.160 A 
ATOM     14  C   LIG    1       -5.418  -1.507   4.320  0.00  0.00    -0.010 A 
ATOM     15  C   LIG    1       -5.365  -2.438   5.339  0.00  0.00    +0.040 A 
ATOM     16  C   LIG    1       -5.577  -2.045   6.648  0.00  0.00    +0.000 A 
ATOM     17  C   LIG    1       -5.835  -0.719   6.941  0.00  0.00    +0.040 A 
ATOM     18  C   LIG    1       -5.882   0.218   5.927  0.00  0.00    +0.020 A 
ENDBRANCH   3  13
BRANCH   1  19
ATOM     19  C   LIG    1       -5.524   1.889   0.107  0.00  0.00    +0.380 C 
BRANCH  19  21
ATOM     20  C   LIG    1       -4.040  -0.024  -0.653  0.00  0.00    +0.290 C 
ATOM     21  N   LIG    1       -5.368   0.586  -0.544  0.00  0.00    -0.600 N 
ATOM     22  C   LIG    1       -6.446  -0.052  -1.041  0.00  0.00    +0.600 C 
ATOM     23  O   LIG    1       -7.532   0.493  -1.034  0.00  0.00    -0.510 OA
BRANCH  22  24
ATOM     24  C   LIG    1       -6.306  -1.420  -1.598  0.00  0.00    -0.020 A 
ATOM     25  N   LIG    1       -5.196  -2.096  -1.755  0.00  0.00    -0.330 NA
ATOM     26  O   LIG    1       -5.406  -3.184  -2.241  0.00  0.00    +0.120 OA
ATOM     27  C   LIG    1       -6.711  -3.383  -2.471  0.00  0.00    +0.010 A 
ATOM     28  C   LIG    1       -7.352  -2.263  -2.066  0.00  0.00    +0.000 A 
BRANCH  27  29
ATOM     29  C   LIG    1       -7.341  -4.617  -3.066  0.00  0.00    +0.050 C 
ATOM     30  C   LIG    1       -6.447  -5.843  -3.261  0.00  0.00    +0.060 C 
ATOM     31  C   LIG    1       -6.903  -5.026  -4.473  0.00  0.00    +0.050 C 
ENDBRANCH  27  29
ENDBRANCH  22  24
ENDBRANCH  19  21
ENDBRANCH   1  19
TORSDOF 6
