REMARK  Name = ZINCrD000000Atsp.0
REMARK                            x       y       z     vdW  Elec       q    Type
REMARK                         _______ _______ _______ _____ _____    ______ ____
ROOT
ATOM      1  O   LIG    1        3.431   7.600  -1.199  0.00  0.00    -0.500 OA
ATOM      2  C   LIG    1        2.527   8.235  -0.699  0.00  0.00    +0.540 C 
ATOM      3  N   LIG    1        1.456   7.596  -0.189  0.00  0.00    -0.660 N 
ATOM      4  H   LIG    1        0.699   8.105   0.141  0.00  0.00    +0.420 HD
ENDROOT
BRANCH   3   5
ATOM      5  C   LIG    1        1.435   6.196  -0.136  0.00  0.00    +0.120 A 
ATOM      6  C   LIG    1        2.613   5.491   0.073  0.00  0.00    +0.050 A 
ATOM      7  C   LIG    1        2.592   4.112   0.125  0.00  0.00    +0.010 A 
ATOM      8  C   LIG    1        1.393   3.429  -0.032  0.00  0.00    +0.100 A 
ATOM      9  C   LIG    1        0.216   4.133  -0.246  0.00  0.00    -0.020 A 
ATOM     10  C   LIG    1        0.236   5.513  -0.292  0.00  0.00    +0.020 A 
BRANCH   8  11
ATOM     11  N   LIG    1        1.372   2.031   0.021  0.00  0.00    -0.490 N 
ATOM     12  C   LIG    1        0.008   1.517  -0.168  0.00  0.00    +0.160 C 
ATOM     13  C   LIG    1        0.040  -0.013  -0.163  0.00  0.00    +0.220 C 
ATOM     14  O   LIG    1        0.626  -0.469   1.059  0.00  0.00    -0.380 OA
ATOM     15  C   LIG    1        1.955   0.012   1.275  0.00  0.00    +0.220 C 
ATOM     16  C   LIG    1        1.943   1.543   1.285  0.00  0.00    +0.160 C 
ENDBRANCH   8  11
ENDBRANCH   3   5
BRANCH   2  17
ATOM     17  C   LIG    1        2.602   9.739  -0.648  0.00  0.00    +0.110 C 
BRANCH  17  18
ATOM     18  S   LIG    1        4.149  10.293  -1.407  0.00  0.00    +0.160 S 
BRANCH  18  19
ATOM     19  C   LIG    1        3.978  12.036  -1.215  0.00  0.00    +0.120 A 
ATOM     20  N   LIG    1        2.963  12.660  -0.666  0.00  0.00    -0.280 NA
ATOM     21  N   LIG    1        3.175  13.929  -0.692  0.00  0.00    -0.260 NA
ATOM     22  C   LIG    1        4.330  14.166  -1.269  0.00  0.00    +0.250 A 
ATOM     23  O   LIG    1        4.863  12.972  -1.612  0.00  0.00    -0.200 OA
BRANCH  22  24
ATOM     24  C   LIG    1        4.934  15.488  -1.499  0.00  0.00    -0.160 A 
ATOM     25  C   LIG    1        4.379  16.679  -1.144  0.00  0.00    +0.100 A 
ATOM     26  C   LIG    1        5.141  17.781  -1.468  0.00  0.00    +0.020 A 
ATOM     27  C   LIG    1        6.300  17.513  -2.076  0.00  0.00    -0.010 A 
ATOM     28  S   LIG    1        6.489  15.775  -2.268  0.00  0.00    +0.180 S 
ENDBRANCH  22  24
ENDBRANCH  18  19
ENDBRANCH  17  18
ENDBRANCH   2  17
TORSDOF 6
