REMARK  Name = ZINCpk00000KfKhk.0
REMARK                            x       y       z     vdW  Elec       q    Type
REMARK                         _______ _______ _______ _____ _____    ______ ____
ROOT
ATOM      1  C   LIG    1        2.125  -0.061   1.224  0.00  0.00    +0.030 C 
ATOM      2  C   LIG    1        2.160   1.470   1.231  0.00  0.00    +0.010 C 
ATOM      3  C   LIG    1        1.417   1.995  -0.001  0.00  0.00    +0.040 C 
ATOM      4  C   LIG    1       -0.018   1.464   0.010  0.00  0.00    +0.160 C 
ATOM      5  N   LIG    1        0.002  -0.004   0.002  0.00  0.00    -0.530 NA
ATOM      6  C   LIG    1        0.669  -0.533   1.199  0.00  0.00    +0.190 C 
ENDROOT
BRANCH   1  12
ATOM      7  C   LIG    1        5.524   1.310   4.161  0.00  0.00    +0.340 C 
ATOM      8  N   LIG    1        4.312   0.634   3.691  0.00  0.00    -0.580 N 
ATOM      9  C   LIG    1        3.138   0.664   4.332  0.00  0.00    +0.700 C 
ATOM     10  N   LIG    1        2.185  -0.036   3.692  0.00  0.00    -0.720 N 
ATOM     11  H   LIG    1        1.263  -0.152   3.972  0.00  0.00    +0.440 HD
ATOM     12  C   LIG    1        2.813  -0.594   2.482  0.00  0.00    +0.130 C 
ATOM     13  C   LIG    1        2.771  -2.123   2.510  0.00  0.00    +0.090 C 
ATOM     14  O   LIG    1        2.953   1.258   5.376  0.00  0.00    -0.540 OA
ATOM     15  C   LIG    1        4.243  -0.098   2.558  0.00  0.00    +0.530 C 
ATOM     16  O   LIG    1        5.136  -0.314   1.766  0.00  0.00    -0.450 OA
ENDBRANCH   1  12
BRANCH   5  17
ATOM     17  C   LIG    1       -1.356  -0.548  -0.128  0.00  0.00    +0.350 C 
BRANCH  17  18
ATOM     18  C   LIG    1       -1.914  -0.190  -1.481  0.00  0.00    +0.160 A 
ATOM     19  N   LIG    1       -1.806  -0.895  -2.571  0.00  0.00    -0.260 NA
ATOM     20  N   LIG    1       -2.402  -0.286  -3.534  0.00  0.00    -0.280 NA
ATOM     21  C   LIG    1       -2.911   0.829  -3.092  0.00  0.00    +0.180 A 
ATOM     22  O   LIG    1       -2.619   0.913  -1.783  0.00  0.00    -0.230 OA
BRANCH  21  23
ATOM     23  C   LIG    1       -3.689   1.836  -3.899  0.00  0.00    +0.090 C 
ATOM     24  C   LIG    1       -4.647   1.199  -4.920  0.00  0.00    +0.060 C 
ATOM     25  C   LIG    1       -4.222   2.314  -5.893  0.00  0.00    +0.030 C 
ATOM     26  C   LIG    1       -2.909   2.400  -5.098  0.00  0.00    +0.050 C 
ENDBRANCH  21  23
ENDBRANCH  17  18
ENDBRANCH   5  17
TORSDOF 4
