REMARK  Name = ZINCqH00000069NH.0
REMARK                            x       y       z     vdW  Elec       q    Type
REMARK                         _______ _______ _______ _____ _____    ______ ____
ROOT
ATOM      1  C   LIG    1        0.002  -0.004  -0.046  0.00  0.00    +0.200 A 
ATOM      2  N   LIG    1       -0.016   1.306  -0.023  0.00  0.00    -0.470 NA
ATOM      3  C   LIG    1        1.281   1.687  -0.031  0.00  0.00    +0.210 A 
ATOM      4  N   LIG    1        2.003   0.597  -0.059  0.00  0.00    -0.370 NA
ATOM      5  O   LIG    1        1.284  -0.380  -0.067  0.00  0.00    +0.090 OA
ENDROOT
BRANCH   3   6
ATOM      6  C   LIG    1        1.791   3.081  -0.013  0.00  0.00    +0.010 A 
ATOM      7  C   LIG    1        0.898   4.150   0.015  0.00  0.00    +0.040 A 
ATOM      8  C   LIG    1        1.373   5.447   0.032  0.00  0.00    +0.050 A 
ATOM      9  C   LIG    1        2.733   5.688   0.021  0.00  0.00    -0.010 A 
ATOM     10  C   LIG    1        3.631   4.628  -0.008  0.00  0.00    +0.160 A 
ATOM     11  C   LIG    1        3.162   3.323  -0.019  0.00  0.00    +0.040 A 
BRANCH  10  12
ATOM     12  N   LIG    1        5.008   4.877  -0.018  0.00  0.00    -0.560 N 
ATOM     13  C   LIG    1        5.607   6.212  -0.128  0.00  0.00    +0.260 C 
ATOM     14  C   LIG    1        7.072   6.043   0.339  0.00  0.00    +0.060 C 
ATOM     15  C   LIG    1        7.328   4.549   0.033  0.00  0.00    +0.070 C 
ATOM     16  C   LIG    1        5.952   3.923   0.064  0.00  0.00    +0.510 C 
ATOM     17  O   LIG    1        5.731   2.733   0.151  0.00  0.00    -0.500 OA
ENDBRANCH  10  12
ENDBRANCH   3   6
BRANCH   1  18
ATOM     18  C   LIG    1       -1.198  -0.915  -0.048  0.00  0.00    +0.030 C 
ATOM     19  C   LIG    1       -1.983  -0.782   1.281  0.00  0.00    +0.060 C 
ATOM     20  C   LIG    1       -1.170  -1.676   2.249  0.00  0.00    +0.010 C 
ATOM     21  C   LIG    1       -0.736  -2.876   1.382  0.00  0.00    +0.010 C 
ATOM     22  C   LIG    1       -0.755  -2.392  -0.078  0.00  0.00    +0.050 C 
BRANCH  18  23
ATOM     23  C   LIG    1       -2.104  -0.603  -1.241  0.00  0.00    +0.070 C 
BRANCH  23  24
ATOM     24  C   LIG    1       -2.567   0.853  -1.163  0.00  0.00    +0.180 C 
BRANCH  24  26
ATOM     25  C   LIG    1       -3.902   2.487  -2.300  0.00  0.00    +0.200 C 
ATOM     26  O   LIG    1       -3.413   1.144  -2.277  0.00  0.00    -0.400 OA
ENDBRANCH  24  26
ENDBRANCH  23  24
ENDBRANCH  18  23
ENDBRANCH   1  18
TORSDOF 6
