REMARK  Name = ZINCqH0000033O2P.0
REMARK                            x       y       z     vdW  Elec       q    Type
REMARK                         _______ _______ _______ _____ _____    ______ ____
ROOT
ATOM      1  N   LIG    1       -1.380  -2.059  -0.626  0.00  0.00    -0.670 N 
ATOM      2  H   LIG    1       -0.537  -2.522  -0.756  0.00  0.00    +0.410 HD
ATOM      3  C   LIG    1       -1.429  -0.715  -0.708  0.00  0.00    +0.570 C 
ATOM      4  O   LIG    1       -2.498  -0.140  -0.631  0.00  0.00    -0.520 OA
ENDROOT
BRANCH   3   5
ATOM      5  C   LIG    1       -0.186   0.060  -0.891  0.00  0.00    -0.170 A 
ATOM      6  C   LIG    1        1.046  -0.603  -0.979  0.00  0.00    +0.060 A 
ATOM      7  C   LIG    1        2.203   0.099  -1.148  0.00  0.00    +0.000 A 
ATOM      8  C   LIG    1        2.174   1.489  -1.235  0.00  0.00    +0.120 A 
ATOM      9  N   LIG    1        3.149   2.443  -1.401  0.00  0.00    -0.590 N 
ATOM     10  H   LIG    1        4.097   2.259  -1.490  0.00  0.00    +0.420 HD
ATOM     11  C   LIG    1        2.585   3.690  -1.421  0.00  0.00    +0.070 A 
ATOM     12  C   LIG    1        1.255   3.594  -1.274  0.00  0.00    -0.160 A 
ATOM     13  C   LIG    1        0.271   4.735  -1.243  0.00  0.00    +0.130 C 
ATOM     14  C   LIG    1        3.346   4.980  -1.587  0.00  0.00    +0.140 C 
ATOM     15  C   LIG    1        0.942   2.167  -1.148  0.00  0.00    -0.110 A 
ATOM     16  C   LIG    1       -0.238   1.449  -0.975  0.00  0.00    +0.150 A 
ENDBRANCH   3   5
BRANCH   1  20
ATOM     17  C   LIG    1       -4.848  -4.229   0.183  0.00  0.00    +0.120 A 
ATOM     18  C   LIG    1       -4.913  -3.080  -0.595  0.00  0.00    +0.020 A 
ATOM     19  C   LIG    1       -3.765  -2.362  -0.862  0.00  0.00    +0.050 A 
ATOM     20  C   LIG    1       -2.545  -2.788  -0.354  0.00  0.00    +0.140 A 
ATOM     21  C   LIG    1       -2.478  -3.939   0.419  0.00  0.00    +0.010 A 
ATOM     22  C   LIG    1       -3.627  -4.655   0.692  0.00  0.00    +0.030 A 
BRANCH  17  23
ATOM     23  N   LIG    1       -6.011  -4.957   0.454  0.00  0.00    -1.060 N 
ATOM     24  H   LIG    1       -6.821  -4.495   0.721  0.00  0.00    +0.430 HD
BRANCH  23  25
ATOM     25  S   LIG    1       -6.004  -6.608   0.320  0.00  0.00    +2.600 S 
ATOM     26  O   LIG    1       -7.338  -6.990   0.627  0.00  0.00    -0.950 OA
ATOM     27  O   LIG    1       -4.918  -7.022   1.137  0.00  0.00    -0.950 OA
BRANCH  25  29
ATOM     28  C   LIG    1       -5.728  -8.420  -1.710  0.00  0.00    +0.070 C 
ATOM     29  C   LIG    1       -5.640  -6.919  -1.429  0.00  0.00    -0.370 C 
ENDBRANCH  25  29
ENDBRANCH  23  25
ENDBRANCH  17  23
ENDBRANCH   1  20
TORSDOF 5
