REMARK  Name = ZINCrg000000pjnD.0
REMARK                            x       y       z     vdW  Elec       q    Type
REMARK                         _______ _______ _______ _____ _____    ______ ____
ROOT
ATOM      1  S   LIG    1       -2.271  10.217   3.826  0.00  0.00    +2.690 S 
ATOM      2  O   LIG    1       -1.437  10.673   4.883  0.00  0.00    -0.950 OA
ATOM      3  O   LIG    1       -3.614  10.648   3.655  0.00  0.00    -0.950 OA
ENDROOT
BRANCH   1   7
ATOM      4  C   LIG    1       -0.107  11.211  -0.030  0.00  0.00    -0.080 A 
ATOM      5  C   LIG    1       -1.493  11.046  -0.026  0.00  0.00    +0.070 A 
ATOM      6  C   LIG    1       -2.146  10.743   1.151  0.00  0.00    +0.130 A 
ATOM      7  C   LIG    1       -1.429  10.604   2.326  0.00  0.00    -0.660 A 
ATOM      8  C   LIG    1       -0.056  10.772   2.331  0.00  0.00    +0.120 A 
ATOM      9  C   LIG    1        0.610  11.070   1.160  0.00  0.00    +0.030 A 
BRANCH   4  13
ATOM     10  C   LIG    1        2.636  12.018  -2.534  0.00  0.00    +0.290 C 
ATOM     11  N   LIG    1        1.937  11.696  -1.287  0.00  0.00    -0.730 N 
ATOM     12  H   LIG    1        2.437  11.597  -0.462  0.00  0.00    +0.400 HD
ATOM     13  C   LIG    1        0.599  11.536  -1.288  0.00  0.00    +0.550 C 
ATOM     14  O   LIG    1       -0.028  11.659  -2.322  0.00  0.00    -0.520 OA
ENDBRANCH   4  13
ENDBRANCH   1   7
BRANCH   1  15
ATOM     15  N   LIG    1       -2.321   8.566   3.948  0.00  0.00    -1.000 NA
ATOM     16  C   LIG    1       -1.242   7.833   4.625  0.00  0.00    +0.310 C 
ATOM     17  C   LIG    1       -0.712   6.752   3.677  0.00  0.00    +0.040 C 
ATOM     18  C   LIG    1       -1.874   5.872   3.211  0.00  0.00    +0.130 C 
ATOM     19  C   LIG    1       -2.889   6.727   2.449  0.00  0.00    +0.040 C 
ATOM     20  C   LIG    1       -3.444   7.808   3.382  0.00  0.00    +0.310 C 
BRANCH  18  21
ATOM     21  C   LIG    1       -1.351   4.787   2.306  0.00  0.00    +0.200 A 
ATOM     22  N   LIG    1       -1.452   3.495   2.500  0.00  0.00    -0.510 NA
ATOM     23  C   LIG    1       -0.842   2.920   1.442  0.00  0.00    +0.430 A 
ATOM     24  N   LIG    1       -0.416   3.885   0.670  0.00  0.00    -0.430 NA
ATOM     25  O   LIG    1       -0.700   4.961   1.151  0.00  0.00    +0.060 OA
BRANCH  23  26
ATOM     26  N   LIG    1       -0.698   1.558   1.213  0.00  0.00    -0.590 N 
ATOM     27  C   LIG    1       -1.233   0.594   2.178  0.00  0.00    +0.310 C 
ATOM     28  C   LIG    1       -0.013   1.086   0.008  0.00  0.00    +0.310 C 
ENDBRANCH  23  26
ENDBRANCH  18  21
ENDBRANCH   1  15
TORSDOF 5
