REMARK  Name = ZINCvU0000000GfH.0
REMARK                            x       y       z     vdW  Elec       q    Type
REMARK                         _______ _______ _______ _____ _____    ______ ____
ROOT
ATOM      1  C   LIG    1        2.529  13.033  -1.212  0.00  0.00    +0.310 A 
ATOM      2  N   LIG    1        1.672  13.102  -0.245  0.00  0.00    -0.530 NA
ATOM      3  C   LIG    1        1.082  11.970   0.135  0.00  0.00    +0.110 A 
ATOM      4  C   LIG    1        1.488  10.909  -0.555  0.00  0.00    -0.260 A 
ATOM      5  C   LIG    1        1.006   9.484  -0.333  0.00  0.00    +0.130 C 
ATOM      6  C   LIG    1       -0.474   9.434  -0.727  0.00  0.00    +0.290 C 
ATOM      7  N   LIG    1       -1.278  10.068   0.308  0.00  0.00    -0.600 N 
ATOM      8  C   LIG    1       -1.293  11.490   0.611  0.00  0.00    +0.310 C 
ATOM      9  C   LIG    1       -2.070   9.269   1.051  0.00  0.00    +0.590 C 
ATOM     10  O   LIG    1       -2.842   9.757   1.857  0.00  0.00    -0.510 OA
ATOM     11  C   LIG    1        0.039  11.906   1.249  0.00  0.00    +0.140 C 
ATOM     12  S   LIG    1        2.670  11.418  -1.755  0.00  0.00    +0.110 S 
ENDROOT
BRANCH   9  13
ATOM     13  C   LIG    1       -2.003   7.819   0.889  0.00  0.00    -0.260 A 
ATOM     14  C   LIG    1       -2.999   7.045   0.391  0.00  0.00    +0.140 A 
ATOM     15  C   LIG    1       -2.717   5.682   0.327  0.00  0.00    -0.250 A 
ATOM     16  C   LIG    1       -1.463   5.353   0.785  0.00  0.00    +0.060 A 
ATOM     17  N   LIG    1       -1.196   4.038   0.720  0.00  0.00    -0.520 NA
ATOM     18  C   LIG    1       -2.109   3.256   0.255  0.00  0.00    +0.380 A 
ATOM     19  S   LIG    1       -3.526   4.191  -0.198  0.00  0.00    +0.100 S 
ATOM     20  S   LIG    1       -0.623   6.823   1.311  0.00  0.00    +0.240 S 
BRANCH  18  21
ATOM     21  N   LIG    1       -1.989   1.887   0.125  0.00  0.00    -0.580 N 
ATOM     22  C   LIG    1       -3.100   1.103  -0.421  0.00  0.00    +0.320 C 
ATOM     23  C   LIG    1       -0.751   1.218   0.533  0.00  0.00    +0.320 C 
ENDBRANCH  18  21
ENDBRANCH   9  13
BRANCH   1  24
ATOM     24  N   LIG    1        3.230  14.111  -1.733  0.00  0.00    -0.640 N 
ATOM     25  H   LIG    1        3.792  13.992  -2.515  0.00  0.00    +0.420 HD
BRANCH  24  31
ATOM     26  C   LIG    1        3.084  19.006  -2.154  0.00  0.00    +0.090 C 
ATOM     27  C   LIG    1        3.054  17.758  -1.310  0.00  0.00    -0.060 A 
ATOM     28  C   LIG    1        2.925  17.856   0.063  0.00  0.00    -0.020 A 
ATOM     29  C   LIG    1        2.897  16.713   0.842  0.00  0.00    +0.030 A 
ATOM     30  C   LIG    1        2.998  15.470   0.249  0.00  0.00    +0.010 A 
ATOM     31  C   LIG    1        3.128  15.367  -1.130  0.00  0.00    +0.170 A 
ATOM     32  C   LIG    1        3.162  16.517  -1.908  0.00  0.00    -0.030 A 
ENDBRANCH  24  31
ENDBRANCH   1  24
TORSDOF 4
