REMARK  Name = ZINCpk00000KfLjA.0
REMARK                            x       y       z     vdW  Elec       q    Type
REMARK                         _______ _______ _______ _____ _____    ______ ____
ROOT
ATOM      1  C   LIG    1        6.010   2.065  -0.362  0.00  0.00    +0.060 C 
ATOM      2  S   LIG    1        6.234   2.951   1.216  0.00  0.00    +0.070 S 
ATOM      3  C   LIG    1        7.889   2.370   1.468  0.00  0.00    +0.360 C 
ATOM      4  N   LIG    1        8.209   1.562   0.403  0.00  0.00    -0.670 N 
ATOM      5  H   LIG    1        9.083   1.144   0.358  0.00  0.00    +0.430 HD
ATOM      6  N   LIG    1        8.665   2.658   2.482  0.00  0.00    -0.330 NA
ATOM      7  C   LIG    1        7.327   1.354  -0.565  0.00  0.00    +0.530 C 
ATOM      8  O   LIG    1        7.555   0.653  -1.528  0.00  0.00    -0.470 OA
ENDROOT
BRANCH   6   9
ATOM      9  N   LIG    1        9.958   2.123   2.549  0.00  0.00    -0.380 NA
ATOM     10  C   LIG    1       10.734   2.410   3.562  0.00  0.00    +0.400 C 
ATOM     11  N   LIG    1       12.017   1.956   3.760  0.00  0.00    -0.640 N 
ATOM     12  H   LIG    1       12.425   1.362   3.111  0.00  0.00    +0.420 HD
ATOM     13  C   LIG    1       12.696   2.328   4.832  0.00  0.00    +0.540 C 
ATOM     14  C   LIG    1       11.937   3.247   5.760  0.00  0.00    +0.150 C 
ATOM     15  O   LIG    1       13.830   1.960   5.053  0.00  0.00    -0.480 OA
ATOM     16  S   LIG    1       10.323   3.452   4.936  0.00  0.00    -0.060 S 
ENDBRANCH   6   9
BRANCH   1  17
ATOM     17  C   LIG    1        4.864   1.057  -0.255  0.00  0.00    +0.130 C 
BRANCH  17  19
ATOM     18  O   LIG    1        3.542   3.007  -0.118  0.00  0.00    -0.510 OA
ATOM     19  C   LIG    1        3.556   1.794  -0.124  0.00  0.00    +0.520 C 
ATOM     20  N   LIG    1        2.403   1.106  -0.015  0.00  0.00    -0.670 N 
ATOM     21  H   LIG    1        2.419   0.138   0.046  0.00  0.00    +0.420 HD
BRANCH  20  22
ATOM     22  C   LIG    1        1.181   1.788   0.008  0.00  0.00    +0.160 A 
ATOM     23  C   LIG    1        0.059   1.225  -0.586  0.00  0.00    +0.000 A 
ATOM     24  C   LIG    1       -1.145   1.903  -0.566  0.00  0.00    +0.070 A 
ATOM     25  C   LIG    1       -1.235   3.136   0.054  0.00  0.00    -0.100 A 
ATOM     26  C   LIG    1       -0.119   3.699   0.647  0.00  0.00    +0.070 A 
ATOM     27 BR   LIG    1       -2.886   4.058   0.085  0.00  0.00    -0.050 Br
ATOM     28  C   LIG    1        1.088   3.028   0.626  0.00  0.00    +0.040 A 
ENDBRANCH  20  22
ENDBRANCH  17  19
ENDBRANCH   1  17
TORSDOF 4
