REMARK  Name = ZINCqH00000014Z9.0
REMARK                            x       y       z     vdW  Elec       q    Type
REMARK                         _______ _______ _______ _____ _____    ______ ____
ROOT
ATOM      1  N   LIG    1        2.520  -2.741  -0.037  0.00  0.00    -0.650 N 
ATOM      2  H   LIG    1        3.335  -2.213  -0.042  0.00  0.00    +0.410 HD
ATOM      3  C   LIG    1        1.320  -2.127  -0.022  0.00  0.00    +0.570 C 
ATOM      4  O   LIG    1        0.300  -2.788  -0.017  0.00  0.00    -0.500 OA
ENDROOT
BRANCH   3   5
ATOM      5  C   LIG    1        1.245  -0.653  -0.013  0.00  0.00    -0.220 A 
ATOM      6  C   LIG    1        0.002  -0.004   0.002  0.00  0.00    +0.190 A 
ATOM      7  C   LIG    1       -0.017   1.376   0.010  0.00  0.00    -0.020 A 
ATOM      8  C   LIG    1        1.188   2.072   0.002  0.00  0.00    +0.350 A 
ATOM      9  N   LIG    1        2.346   1.430  -0.012  0.00  0.00    -0.540 NA
ATOM     10  C   LIG    1        2.410   0.116  -0.020  0.00  0.00    +0.340 A 
BRANCH   8  11
ATOM     11  O   LIG    1        1.175   3.427   0.009  0.00  0.00    -0.280 OA
BRANCH  11  12
ATOM     12  C   LIG    1        2.442   4.088   0.000  0.00  0.00    +0.260 C 
BRANCH  12  13
ATOM     13  C   LIG    1        2.228   5.603   0.010  0.00  0.00    +0.460 C 
ATOM     14  F   LIG    1        1.499   5.978  -1.124  0.00  0.00    -0.170 F 
ATOM     15  F   LIG    1        3.469   6.249   0.002  0.00  0.00    -0.170 F 
ATOM     16  F   LIG    1        1.521   5.966   1.161  0.00  0.00    -0.170 F 
ENDBRANCH  12  13
ENDBRANCH  11  12
ENDBRANCH   8  11
ENDBRANCH   3   5
BRANCH   1  21
ATOM     17  N   LIG    1        3.741  -4.873  -0.061  0.00  0.00    -0.440 N 
ATOM     18  C   LIG    1        3.445  -6.198  -0.066  0.00  0.00    +0.250 A 
ATOM     19  C   LIG    1        2.085  -6.337  -0.054  0.00  0.00    -0.120 A 
ATOM     20  C   LIG    1        1.534  -4.978  -0.035  0.00  0.00    +0.030 A 
ATOM     21  C   LIG    1        2.592  -4.135  -0.046  0.00  0.00    +0.250 A 
BRANCH  17  23
ATOM     22  C   LIG    1        6.116  -5.456  -0.086  0.00  0.00    +0.060 C 
ATOM     23  C   LIG    1        5.096  -4.315  -0.070  0.00  0.00    +0.140 C 
ATOM     24  C   LIG    1        5.305  -3.462   1.183  0.00  0.00    +0.050 C 
ATOM     25  C   LIG    1        5.282  -3.447  -1.315  0.00  0.00    +0.050 C 
ENDBRANCH  17  23
BRANCH  19  26
ATOM     26  C   LIG    1        1.347  -7.563  -0.053  0.00  0.00    +0.290 C 
ATOM     27  N   LIG    1        0.761  -8.537  -0.053  0.00  0.00    -0.440 NA
ENDBRANCH  19  26
ENDBRANCH   1  21
TORSDOF 7
