REMARK  Name = ZINCpk00000iSpe6.0
REMARK                            x       y       z     vdW  Elec       q    Type
REMARK                         _______ _______ _______ _____ _____    ______ ____
ROOT
ATOM      1  C   LIG    1       -0.011   1.194   0.022  0.00  0.00    +0.520 C 
ATOM      2  N   LIG    1        1.143   1.889   0.007  0.00  0.00    -0.610 N 
ATOM      3  C   LIG    1        1.132   3.358  -0.002  0.00  0.00    +0.270 C 
ATOM      4  C   LIG    1        1.974   3.856  -1.175  0.00  0.00    +0.030 C 
ATOM      5  C   LIG    1        3.372   3.237  -1.095  0.00  0.00    +0.040 C 
ATOM      6  C   LIG    1        3.264   1.714  -1.188  0.00  0.00    -0.020 C 
ATOM      7  C   LIG    1        2.437   1.192  -0.009  0.00  0.00    +0.310 C 
ATOM      8  O   LIG    1        0.011  -0.019   0.024  0.00  0.00    -0.530 OA
ENDROOT
BRANCH   6   9
ATOM      9  C   LIG    1        4.643   1.108  -1.142  0.00  0.00    +0.530 C 
ATOM     10  N   LIG    1        5.287   0.811  -2.288  0.00  0.00    -0.620 N 
ATOM     11  C   LIG    1        4.713   1.170  -3.594  0.00  0.00    +0.250 C 
ATOM     12  C   LIG    1        5.790   1.907  -4.405  0.00  0.00    +0.220 C 
ATOM     13  O   LIG    1        6.981   1.117  -4.431  0.00  0.00    -0.380 OA
ATOM     14  C   LIG    1        7.566   0.898  -3.145  0.00  0.00    +0.220 C 
ATOM     15  C   LIG    1        6.583   0.114  -2.270  0.00  0.00    +0.250 C 
ATOM     16  O   LIG    1        5.173   0.887  -0.073  0.00  0.00    -0.530 OA
ENDBRANCH   6   9
BRANCH   1  17
ATOM     17  C   LIG    1       -1.330   1.923   0.031  0.00  0.00    +0.050 C 
BRANCH  17  18
ATOM     18  C   LIG    1       -2.474   0.907   0.042  0.00  0.00    +0.130 C 
BRANCH  18  19
ATOM     19  C   LIG    1       -3.813   1.648   0.051  0.00  0.00    +0.040 C 
ATOM     20  N   LIG    1       -3.859   3.021  -0.457  0.00  0.00    -0.120 NA
ATOM     21  N   LIG    1       -3.908   2.917   0.777  0.00  0.00    -0.120 NA
BRANCH  19  22
ATOM     22  C   LIG    1       -5.067   0.779  -0.071  0.00  0.00    +0.120 C 
BRANCH  22  23
ATOM     23  C   LIG    1       -6.310   1.671  -0.045  0.00  0.00    +0.160 C 
BRANCH  23  25
ATOM     24  C   LIG    1       -8.478   0.169  -0.256  0.00  0.00    +0.030 C 
ATOM     25  C   LIG    1       -7.516   0.835  -0.163  0.00  0.00    -0.190 C 
ENDBRANCH  23  25
ENDBRANCH  22  23
ENDBRANCH  19  22
ENDBRANCH  18  19
ENDBRANCH  17  18
ENDBRANCH   1  17
TORSDOF 7
