REMARK  Name = ZINCnE000001TCsL.2
REMARK                            x       y       z     vdW  Elec       q    Type
REMARK                         _______ _______ _______ _____ _____    ______ ____
ROOT
ATOM      1  C   LIG    1        5.465   5.684   3.450  0.00  0.00    -0.110 A 
ATOM      2  C   LIG    1        5.667   6.130   4.756  0.00  0.00    +0.020 A 
ATOM      3  C   LIG    1        4.582   6.302   5.595  0.00  0.00    +0.070 A 
ATOM      4  C   LIG    1        3.305   6.029   5.138  0.00  0.00    -0.040 A 
ATOM      5  C   LIG    1        3.098   5.582   3.840  0.00  0.00    -0.070 A 
ATOM      6  C   LIG    1        1.686   5.290   3.399  0.00  0.00    +0.080 C 
ATOM      7  C   LIG    1        1.619   5.221   1.873  0.00  0.00    +0.150 C 
ATOM      8  N   LIG    1        2.677   4.313   1.400  0.00  0.00    -0.530 NA
ATOM      9  C   LIG    1        3.994   4.933   1.575  0.00  0.00    +0.280 C 
ATOM     10  F   LIG    1        4.769   6.736   6.861  0.00  0.00    -0.150 F 
ATOM     11  C   LIG    1        4.168   5.410   2.993  0.00  0.00    -0.050 A 
ENDROOT
BRANCH   1  13
ATOM     12  O   LIG    1        7.750   5.738   2.946  0.00  0.00    -0.680 OA
ATOM     13  C   LIG    1        6.618   5.500   2.548  0.00  0.00    +0.520 C 
ATOM     14  O   LIG    1        6.442   5.108   1.403  0.00  0.00    -0.670 OA
ENDBRANCH   1  13
BRANCH   8  15
ATOM     15  C   LIG    1        2.456   3.932  -0.001  0.00  0.00    +0.230 C 
BRANCH  15  16
ATOM     16  C   LIG    1        3.249   2.690  -0.316  0.00  0.00    -0.100 A 
ATOM     17  C   LIG    1        4.402   2.780  -1.071  0.00  0.00    +0.070 A 
ATOM     18  C   LIG    1        5.131   1.641  -1.360  0.00  0.00    +0.010 A 
ATOM     19  C   LIG    1        4.704   0.408  -0.898  0.00  0.00    -0.020 A 
ATOM     20  C   LIG    1        3.553   0.315  -0.138  0.00  0.00    -0.020 A 
ATOM     21 CL   LIG    1        5.618  -1.021  -1.269  0.00  0.00    -0.080 Cl
ATOM     22  C   LIG    1        2.822   1.456   0.153  0.00  0.00    +0.140 A 
BRANCH  22  23
ATOM     23  O   LIG    1        1.688   1.367   0.897  0.00  0.00    -0.480 OA
ATOM     24  H   LIG    1        0.886   1.225   0.376  0.00  0.00    +0.380 HD
ENDBRANCH  22  23
ENDBRANCH  15  16
ENDBRANCH   8  15
TORSDOF 4
