REMARK  Name = ZINCrg00000yrHls.0
REMARK                            x       y       z     vdW  Elec       q    Type
REMARK                         _______ _______ _______ _____ _____    ______ ____
ROOT
ATOM      1  C   LIG    1       -1.854   0.767   1.835  0.00  0.00    -0.020 C 
ATOM      2  C   LIG    1       -2.041   1.886   0.809  0.00  0.00    -0.040 C 
ATOM      3  C   LIG    1       -2.043   1.508  -0.688  0.00  0.00    +0.300 C 
ATOM      4  N   LIG    1       -0.616   1.540  -1.083  0.00  0.00    -0.610 N 
ATOM      5  C   LIG    1        0.098   0.950   0.073  0.00  0.00    +0.290 C 
ATOM      6  C   LIG    1       -0.087   2.001  -2.234  0.00  0.00    +0.630 C 
ATOM      7  O   LIG    1        1.116   1.958  -2.411  0.00  0.00    -0.520 OA
ATOM      8  C   LIG    1       -0.626   1.518   1.313  0.00  0.00    -0.030 C 
ENDROOT
BRANCH   6   9
ATOM      9  C   LIG    1       -0.965   2.557  -3.277  0.00  0.00    -0.150 C 
ATOM     10  N   LIG    1       -2.270   2.650  -3.204  0.00  0.00    -0.090 NA
ATOM     11  N   LIG    1       -2.838   3.170  -4.226  0.00  0.00    -0.510 N 
ATOM     12  H   LIG    1       -3.793   3.310  -4.324  0.00  0.00    +0.460 HD
ATOM     13  C   LIG    1       -1.821   3.517  -5.232  0.00  0.00    +0.160 C 
ATOM     14  C   LIG    1       -1.821   5.023  -5.503  0.00  0.00    +0.090 C 
ATOM     15  C   LIG    1       -0.520   3.090  -4.572  0.00  0.00    +0.390 C 
ATOM     16  O   LIG    1        0.610   3.171  -5.009  0.00  0.00    -0.400 OA
ENDBRANCH   6   9
BRANCH   1  17
ATOM     17  C   LIG    1       -2.292   1.049   3.274  0.00  0.00    +0.330 C 
BRANCH  17  19
ATOM     18  C   LIG    1       -0.990  -0.421   4.717  0.00  0.00    +0.600 C 
ATOM     19  N   LIG    1       -2.148  -0.169   4.076  0.00  0.00    -0.600 N 
ATOM     20  C   LIG    1       -3.264  -1.113   4.181  0.00  0.00    +0.300 C 
ATOM     21  O   LIG    1       -0.040   0.323   4.571  0.00  0.00    -0.510 OA
BRANCH  18  24
ATOM     22  C   LIG    1       -0.155  -3.103   7.024  0.00  0.00    -0.020 A 
ATOM     23  C   LIG    1        0.230  -1.950   6.430  0.00  0.00    +0.000 A 
ATOM     24  C   LIG    1       -0.873  -1.607   5.600  0.00  0.00    -0.020 A 
ATOM     25  N   LIG    1       -1.763  -2.553   5.769  0.00  0.00    -0.330 NA
ATOM     26  O   LIG    1       -1.378  -3.387   6.555  0.00  0.00    +0.120 OA
BRANCH  22  28
ATOM     27  C   LIG    1        0.317  -3.439   9.435  0.00  0.00    +0.040 C 
ATOM     28  C   LIG    1        0.638  -3.913   8.016  0.00  0.00    +0.140 C 
ENDBRANCH  22  28
ENDBRANCH  18  24
ENDBRANCH  17  19
ENDBRANCH   1  17
TORSDOF 5
