REMARK  Name = ZINCkj000005i5Wg.1
REMARK                            x       y       z     vdW  Elec       q    Type
REMARK                         _______ _______ _______ _____ _____    ______ ____
ROOT
ATOM      1  C   LIG    1        1.755   2.995  -0.501  0.00  0.00    +0.270 C 
ENDROOT
BRANCH   1   2
ATOM      2  C   LIG    1        0.330   2.593  -0.780  0.00  0.00    +0.500 C 
ATOM      3  N   LIG    1       -0.440   2.109   0.215  0.00  0.00    -0.580 N 
ATOM      4  C   LIG    1       -1.796   1.613  -0.061  0.00  0.00    +0.220 C 
ATOM      5  C   LIG    1       -2.781   2.329   0.868  0.00  0.00    +0.020 C 
ATOM      6  C   LIG    1       -2.330   2.149   2.319  0.00  0.00    +0.020 C 
ATOM      7  C   LIG    1       -0.947   2.778   2.506  0.00  0.00    +0.030 C 
ATOM      8  C   LIG    1       -2.160   1.900  -1.519  0.00  0.00    +0.060 C 
ATOM      9  C   LIG    1        0.059   2.067   1.596  0.00  0.00    +0.220 C 
ATOM     10  C   LIG    1        0.219   0.612   2.040  0.00  0.00    +0.040 C 
ATOM     11  O   LIG    1       -0.124   2.705  -1.899  0.00  0.00    -0.510 OA
ENDBRANCH   1   2
BRANCH   1  12
ATOM     12  N   LIG    1        2.376   3.487  -1.739  0.00  0.00    -0.370 N 
ATOM     13  H   LIG    1        2.289   2.786  -2.460  0.00  0.00    +0.440 HD
BRANCH  12  14
ATOM     14  C   LIG    1        1.701   4.719  -2.169  0.00  0.00    +0.280 C 
BRANCH  14  15
ATOM     15  C   LIG    1        2.238   5.143  -3.538  0.00  0.00    +0.200 C 
BRANCH  15  17
ATOM     16  C   LIG    1        2.431   4.405  -5.810  0.00  0.00    +0.230 C 
ATOM     17  O   LIG    1        1.882   4.161  -4.514  0.00  0.00    -0.390 OA
ENDBRANCH  15  17
ENDBRANCH  14  15
ENDBRANCH  12  14
BRANCH  12  18
ATOM     18  C   LIG    1        3.797   3.766  -1.496  0.00  0.00    +0.280 C 
BRANCH  18  19
ATOM     19  C   LIG    1        4.528   2.458  -1.185  0.00  0.00    +0.200 C 
BRANCH  19  20
ATOM     20  O   LIG    1        4.503   1.613  -2.336  0.00  0.00    -0.400 OA
ATOM     21  C   LIG    1        5.062   0.316  -2.118  0.00  0.00    +0.240 C 
ENDBRANCH  19  20
ENDBRANCH  18  19
ENDBRANCH  12  18
ENDBRANCH   1  12
TORSDOF 8
