REMARK  Name = ZINCqH0000007uUu.0
REMARK                            x       y       z     vdW  Elec       q    Type
REMARK                         _______ _______ _______ _____ _____    ______ ____
ROOT
ATOM      1  S   LIG    1       -0.127   0.015  -0.197  0.00  0.00    +2.700 S 
ATOM      2  O   LIG    1        0.627  -0.081  -1.398  0.00  0.00    -0.930 OA
ATOM      3  O   LIG    1       -1.419  -0.556  -0.044  0.00  0.00    -0.940 OA
ENDROOT
BRANCH   1   9
ATOM      4  C   LIG    1        2.231  -0.382   1.128  0.00  0.00    +0.270 A 
ATOM      5  C   LIG    1        3.018  -0.922   2.135  0.00  0.00    -0.060 A 
ATOM      6  C   LIG    1        2.451  -1.758   3.078  0.00  0.00    +0.210 A 
ATOM      7  C   LIG    1        1.102  -2.052   3.022  0.00  0.00    -0.100 A 
ATOM      8  C   LIG    1        0.315  -1.510   2.022  0.00  0.00    +0.260 A 
ATOM      9  C   LIG    1        0.876  -0.674   1.077  0.00  0.00    -0.720 A 
BRANCH   7  10
ATOM     10  N   LIG    1        0.498  -2.947   4.034  0.00  0.00    +0.030 N 
ATOM     11  O   LIG    1        1.190  -3.425   4.915  0.00  0.00    -0.150 OA
ATOM     12  O   LIG    1       -0.691  -3.207   3.985  0.00  0.00    -0.150 OA
ENDBRANCH   7  10
BRANCH   4  14
ATOM     13  C   LIG    1        4.188   0.694   0.311  0.00  0.00    +0.270 C 
ATOM     14  O   LIG    1        2.787   0.437   0.196  0.00  0.00    -0.300 OA
ENDBRANCH   4  14
ENDBRANCH   1   9
BRANCH   1  15
ATOM     15  N   LIG    1       -0.288   1.631   0.126  0.00  0.00    -1.110 NA
ATOM     16  H   LIG    1       -1.152   1.991   0.382  0.00  0.00    +0.430 HD
BRANCH  15  17
ATOM     17  C   LIG    1        0.872   2.519   0.019  0.00  0.00    +0.310 C 
ATOM     18  C   LIG    1        0.605   3.539  -1.074  0.00  0.00    +0.060 C 
ATOM     19  C   LIG    1        1.831   4.452  -1.215  0.00  0.00    +0.110 C 
ATOM     20  S   LIG    1        1.858   5.547   0.234  0.00  0.00    -0.100 S 
ATOM     21  C   LIG    1        1.569   4.428   1.567  0.00  0.00    -0.060 A 
ATOM     22  C   LIG    1        1.796   4.892   2.864  0.00  0.00    +0.050 A 
ATOM     23  C   LIG    1        1.580   4.073   3.951  0.00  0.00    +0.050 A 
ATOM     24  C   LIG    1        1.133   2.779   3.750  0.00  0.00    -0.040 A 
ATOM     25  C   LIG    1        0.912   2.316   2.470  0.00  0.00    +0.020 A 
ATOM     26 CL   LIG    1        0.849   1.738   5.110  0.00  0.00    -0.060 Cl
ATOM     27  C   LIG    1        1.132   3.133   1.363  0.00  0.00    -0.090 A 
ENDBRANCH  15  17
ENDBRANCH   1  15
TORSDOF 5
