REMARK  Name = ZINCtV00001bB39a.0
REMARK                            x       y       z     vdW  Elec       q    Type
REMARK                         _______ _______ _______ _____ _____    ______ ____
ROOT
ATOM      1  C   LIG    1        4.879   1.853  -0.033  0.00  0.00    +0.200 C 
ENDROOT
BRANCH   1   2
ATOM      2  C   LIG    1        5.270   1.386  -1.412  0.00  0.00    +0.060 A 
ATOM      3  N   LIG    1        4.979   0.237  -1.893  0.00  0.00    -0.410 NA
ATOM      4  C   LIG    1        5.390  -0.044  -3.144  0.00  0.00    +0.080 A 
ATOM      5  C   LIG    1        5.207  -1.213  -3.910  0.00  0.00    +0.090 A 
ATOM      6  C   LIG    1        5.715  -1.297  -5.171  0.00  0.00    +0.030 A 
ATOM      7  C   LIG    1        6.420  -0.238  -5.725  0.00  0.00    +0.050 A 
ATOM      8  C   LIG    1        6.615   0.916  -4.999  0.00  0.00    +0.060 A 
ATOM      9  C   LIG    1        6.102   1.020  -3.708  0.00  0.00    -0.170 A 
ATOM     10  S   LIG    1        6.163   2.322  -2.525  0.00  0.00    +0.110 S 
ENDBRANCH   1   2
BRANCH   1  11
ATOM     11  C   LIG    1        3.413   2.201  -0.018  0.00  0.00    +0.080 A 
ATOM     12  N   LIG    1        2.468   1.338  -0.014  0.00  0.00    -0.420 NA
ATOM     13  C   LIG    1        1.201   1.792   0.000  0.00  0.00    +0.080 A 
ATOM     14  C   LIG    1       -0.013   1.076   0.008  0.00  0.00    +0.090 A 
ATOM     15  C   LIG    1       -1.204   1.736   0.017  0.00  0.00    +0.030 A 
ATOM     16  C   LIG    1       -1.247   3.123   0.031  0.00  0.00    +0.050 A 
ATOM     17  C   LIG    1       -0.077   3.849   0.024  0.00  0.00    +0.060 A 
ATOM     18  C   LIG    1        1.151   3.191   0.008  0.00  0.00    -0.170 A 
ATOM     19  S   LIG    1        2.804   3.795  -0.004  0.00  0.00    +0.140 S 
ENDBRANCH   1  11
BRANCH   1  20
ATOM     20  S   LIG    1        5.199   0.530   1.166  0.00  0.00    +0.050 S 
BRANCH  20  24
ATOM     21  C   LIG    1        9.707   0.107   1.037  0.00  0.00    -0.060 A 
ATOM     22  C   LIG    1        8.962  -0.700   1.878  0.00  0.00    +0.130 A 
ATOM     23  C   LIG    1        7.588  -0.574   1.920  0.00  0.00    +0.050 A 
ATOM     24  C   LIG    1        6.953   0.365   1.116  0.00  0.00    -0.050 A 
ATOM     25  C   LIG    1        7.704   1.171   0.268  0.00  0.00    +0.000 A 
ATOM     26  C   LIG    1        9.078   1.043   0.236  0.00  0.00    +0.140 A 
BRANCH  21  28
ATOM     27  O   LIG    1       11.734  -0.855   1.700  0.00  0.00    -0.160 OA
ATOM     28  N   LIG    1       11.180  -0.032   0.995  0.00  0.00    +0.030 N 
ATOM     29  O   LIG    1       11.837   0.678   0.254  0.00  0.00    -0.160 OA
ENDBRANCH  21  28
ENDBRANCH  20  24
ENDBRANCH   1  20
TORSDOF 5
