REMARK  Name = ZINCpe000000TeSu.0
REMARK                            x       y       z     vdW  Elec       q    Type
REMARK                         _______ _______ _______ _____ _____    ______ ____
ROOT
ATOM      1  C   LIG    1        0.808   0.062   3.099  0.00  0.00    +0.560 C 
ATOM      2  N   LIG    1        0.170   0.354   1.948  0.00  0.00    -0.720 N 
ATOM      3  H   LIG    1       -0.656   0.863   1.967  0.00  0.00    +0.400 HD
ATOM      4  O   LIG    1        1.843  -0.575   3.075  0.00  0.00    -0.530 OA
ENDROOT
BRANCH   1   9
ATOM      5  C   LIG    1        0.378   0.650   6.788  0.00  0.00    +0.140 A 
ATOM      6  C   LIG    1       -0.804   1.379   6.807  0.00  0.00    +0.010 A 
ATOM      7  C   LIG    1       -1.457   1.676   5.625  0.00  0.00    +0.040 A 
ATOM      8  C   LIG    1       -0.935   1.256   4.419  0.00  0.00    +0.030 A 
ATOM      9  C   LIG    1        0.250   0.518   4.390  0.00  0.00    -0.120 A 
ATOM     10  C   LIG    1        0.908   0.218   5.582  0.00  0.00    +0.090 A 
BRANCH   5  12
ATOM     11  C   LIG    1        2.381   0.292   8.023  0.00  0.00    +0.510 C 
ATOM     12  N   LIG    1        1.035   0.350   7.988  0.00  0.00    -0.680 N 
ATOM     13  H   LIG    1        0.521   0.185   8.793  0.00  0.00    +0.410 HD
ATOM     14  O   LIG    1        3.026   0.578   7.036  0.00  0.00    -0.510 OA
BRANCH  11  16
ATOM     15  C   LIG    1        4.597  -0.109   9.060  0.00  0.00    +0.050 C 
ATOM     16  C   LIG    1        3.085  -0.127   9.288  0.00  0.00    +0.060 C 
ENDBRANCH  11  16
ENDBRANCH   5  12
ENDBRANCH   1   9
BRANCH   2  17
ATOM     17  C   LIG    1        0.723  -0.098   0.669  0.00  0.00    +0.250 C 
BRANCH  17  18
ATOM     18  C   LIG    1       -0.187   0.362  -0.471  0.00  0.00    +0.130 C 
ATOM     19  C   LIG    1       -0.279   1.889  -0.467  0.00  0.00    +0.070 C 
BRANCH  18  20
ATOM     20  O   LIG    1       -1.492  -0.194  -0.294  0.00  0.00    -0.550 OA
ATOM     21  H   LIG    1       -1.509  -1.161  -0.286  0.00  0.00    +0.380 HD
ENDBRANCH  18  20
BRANCH  18  22
ATOM     22  C   LIG    1        0.391  -0.110  -1.807  0.00  0.00    +0.160 C 
BRANCH  22  23
ATOM     23  N   LIG    1       -0.393   0.464  -2.910  0.00  0.00    -0.530 NA
ATOM     24  C   LIG    1       -1.692  -0.211  -3.040  0.00  0.00    +0.160 C 
ATOM     25  C   LIG    1       -2.497   0.455  -4.159  0.00  0.00    +0.220 C 
ATOM     26  O   LIG    1       -1.742   0.415  -5.372  0.00  0.00    -0.390 OA
ATOM     27  C   LIG    1       -0.471   1.065  -5.281  0.00  0.00    +0.220 C 
ATOM     28  C   LIG    1        0.355   0.404  -4.174  0.00  0.00    +0.140 C 
ENDBRANCH  22  23
ENDBRANCH  18  22
ENDBRANCH  17  18
ENDBRANCH   2  17
TORSDOF 8
