REMARK  Name = ZINCpk00000xI6W4.0
REMARK                            x       y       z     vdW  Elec       q    Type
REMARK                         _______ _______ _______ _____ _____    ______ ____
ROOT
ATOM      1  S   LIG    1       -0.602  -4.499   0.255  0.00  0.00    +2.700 S 
ATOM      2  O   LIG    1       -1.830  -4.753   0.925  0.00  0.00    -0.960 OA
ATOM      3  O   LIG    1        0.647  -5.008   0.703  0.00  0.00    -0.950 OA
ENDROOT
BRANCH   1   7
ATOM      4  C   LIG    1       -0.155   0.004   0.068  0.00  0.00    +0.210 A 
ATOM      5  C   LIG    1        0.966  -0.811  -0.016  0.00  0.00    -0.030 A 
ATOM      6  C   LIG    1        0.827  -2.184   0.047  0.00  0.00    +0.150 A 
ATOM      7  C   LIG    1       -0.428  -2.747   0.183  0.00  0.00    -0.700 A 
ATOM      8  C   LIG    1       -1.548  -1.939   0.261  0.00  0.00    +0.140 A 
ATOM      9  C   LIG    1       -1.415  -0.565   0.204  0.00  0.00    -0.010 A 
BRANCH   4  11
ATOM     10  C   LIG    1       -0.858   2.185   0.706  0.00  0.00    +0.510 C 
ATOM     11  N   LIG    1       -0.017   1.395   0.010  0.00  0.00    -0.680 N 
ATOM     12  H   LIG    1        0.686   1.790  -0.529  0.00  0.00    +0.420 HD
ATOM     13  O   LIG    1       -1.671   1.692   1.458  0.00  0.00    -0.510 OA
BRANCH  10  15
ATOM     14  C   LIG    1       -1.840   4.339   1.446  0.00  0.00    +0.050 C 
ATOM     15  C   LIG    1       -0.786   3.683   0.551  0.00  0.00    +0.060 C 
ENDBRANCH  10  15
ENDBRANCH   4  11
ENDBRANCH   1   7
BRANCH   1  16
ATOM     16  N   LIG    1       -0.797  -5.037  -1.299  0.00  0.00    -1.120 NA
ATOM     17  H   LIG    1       -1.632  -5.451  -1.567  0.00  0.00    +0.420 HD
BRANCH  16  18
ATOM     18  C   LIG    1        0.292  -4.888  -2.267  0.00  0.00    +0.280 C 
BRANCH  18  19
ATOM     19  C   LIG    1        0.017  -5.776  -3.483  0.00  0.00    +0.180 C 
BRANCH  19  20
ATOM     20  N   LIG    1        1.109  -5.626  -4.455  0.00  0.00    -0.530 NA
ATOM     21  C   LIG    1        1.131  -4.269  -5.018  0.00  0.00    +0.160 C 
ATOM     22  C   LIG    1        2.317  -4.140  -5.978  0.00  0.00    +0.200 C 
ATOM     23  O   LIG    1        2.216  -5.145  -6.990  0.00  0.00    -0.380 OA
ATOM     24  C   LIG    1        2.193  -6.479  -6.477  0.00  0.00    +0.160 C 
ATOM     25  C   LIG    1        2.049  -7.470  -7.633  0.00  0.00    +0.050 C 
ATOM     26  C   LIG    1        3.624  -4.324  -5.204  0.00  0.00    +0.010 C 
ATOM     27  C   LIG    1        1.005  -6.632  -5.522  0.00  0.00    +0.160 C 
ENDBRANCH  19  20
ENDBRANCH  18  19
ENDBRANCH  16  18
ENDBRANCH   1  16
TORSDOF 7
