REMARK  Name = ZINCpk00000KfKNu.0
REMARK                            x       y       z     vdW  Elec       q    Type
REMARK                         _______ _______ _______ _____ _____    ______ ____
ROOT
ATOM      1  C   LIG    1       -5.010   1.455   1.281  0.00  0.00    +0.530 C 
ATOM      2  N   LIG    1       -3.747   1.532   0.818  0.00  0.00    -0.610 N 
ATOM      3  C   LIG    1       -3.358   0.833  -0.414  0.00  0.00    +0.290 C 
ATOM      4  C   LIG    1       -2.138  -0.045  -0.119  0.00  0.00    +0.030 C 
ATOM      5  C   LIG    1       -1.030   0.817   0.491  0.00  0.00    +0.240 C 
ATOM      6  C   LIG    1       -1.520   1.422   1.809  0.00  0.00    +0.010 C 
ATOM      7  C   LIG    1       -2.733   2.317   1.535  0.00  0.00    +0.280 C 
ATOM      8  O   LIG    1       -5.296   1.955   2.349  0.00  0.00    -0.530 OA
ENDROOT
BRANCH   1  15
ATOM      9  C   LIG    1       -8.797   0.261  -3.433  0.00  0.00    +0.100 C 
ATOM     10  C   LIG    1       -7.591   0.804  -2.712  0.00  0.00    +0.520 C 
ATOM     11  N   LIG    1       -7.636   1.003  -1.379  0.00  0.00    -0.610 N 
ATOM     12  C   LIG    1       -8.805   0.578  -0.598  0.00  0.00    +0.270 C 
ATOM     13  C   LIG    1       -8.330  -0.312   0.555  0.00  0.00    +0.010 C 
ATOM     14  C   LIG    1       -7.269   0.435   1.367  0.00  0.00    +0.050 C 
ATOM     15  C   LIG    1       -6.067   0.749   0.473  0.00  0.00    -0.020 C 
ATOM     16  C   LIG    1       -6.516   1.650  -0.682  0.00  0.00    +0.290 C 
ATOM     17  O   LIG    1       -6.579   1.061  -3.329  0.00  0.00    -0.550 OA
ENDBRANCH   1  15
BRANCH   5  18
ATOM     18  N   LIG    1        0.150  -0.013   0.745  0.00  0.00    -0.710 N 
ATOM     19  H   LIG    1        0.052  -0.969   0.879  0.00  0.00    +0.410 HD
BRANCH  18  20
ATOM     20  C   LIG    1        1.413   0.568   0.788  0.00  0.00    +0.340 A 
ATOM     21  C   LIG    1        1.559   1.940   0.591  0.00  0.00    -0.030 A 
ATOM     22  C   LIG    1        2.838   2.471   0.649  0.00  0.00    +0.070 A 
ATOM     23  C   LIG    1        3.894   1.604   0.889  0.00  0.00    +0.010 A 
ATOM     24  N   LIG    1        3.665   0.317   1.059  0.00  0.00    -0.200 NA
ATOM     25  C   LIG    1        5.304   2.133   0.955  0.00  0.00    +0.150 C 
ATOM     26  N   LIG    1        2.483  -0.181   1.012  0.00  0.00    -0.300 NA
ENDBRANCH  18  20
ENDBRANCH   5  18
TORSDOF 3
