REMARK  Name = ZINCpk00000y6yw0.0
REMARK                            x       y       z     vdW  Elec       q    Type
REMARK                         _______ _______ _______ _____ _____    ______ ____
ROOT
ATOM      1  C   LIG    1       -3.841   2.467   2.627  0.00  0.00    +0.330 C 
ATOM      2  C   LIG    1       -4.020   3.929   2.158  0.00  0.00    -0.070 C 
ATOM      3  C   LIG    1       -4.647   4.586   3.409  0.00  0.00    +0.080 C 
ATOM      4  C   LIG    1       -4.191   3.712   4.556  0.00  0.00    +0.520 C 
ATOM      5  O   LIG    1       -4.228   4.027   5.726  0.00  0.00    -0.540 OA
ATOM      6  N   LIG    1       -3.740   2.535   4.089  0.00  0.00    -0.610 N 
ENDROOT
BRANCH   1   9
ATOM      7  C   LIG    1       -3.212  -0.577   2.277  0.00  0.00    +0.150 C 
ATOM      8  C   LIG    1       -2.309   0.566   1.892  0.00  0.00    +0.080 A 
ATOM      9  C   LIG    1       -2.580   1.883   2.043  0.00  0.00    -0.220 A 
ATOM     10  C   LIG    1       -1.486   2.607   1.557  0.00  0.00    +0.250 A 
ATOM     11  N   LIG    1       -0.588   1.755   1.134  0.00  0.00    -0.290 NA
ATOM     12  N   LIG    1       -1.083   0.460   1.339  0.00  0.00    -0.380 N 
ATOM     13  C   LIG    1       -0.393  -0.789   1.005  0.00  0.00    +0.350 C 
ENDBRANCH   1   9
BRANCH   2  14
ATOM     14  C   LIG    1       -4.957   4.006   0.980  0.00  0.00    +0.500 C 
ATOM     15  O   LIG    1       -5.097   3.042   0.248  0.00  0.00    -0.680 OA
ATOM     16  O   LIG    1       -5.575   5.034   0.759  0.00  0.00    -0.680 OA
ENDBRANCH   2  14
BRANCH   6  17
ATOM     17  C   LIG    1       -3.215   1.458   4.932  0.00  0.00    +0.310 C 
BRANCH  17  18
ATOM     18  C   LIG    1       -1.732   1.710   5.216  0.00  0.00    +0.230 C 
BRANCH  18  19
ATOM     19  N   LIG    1       -1.181   0.582   5.978  0.00  0.00    -0.380 N 
ATOM     20  C   LIG    1        0.266   0.765   6.143  0.00  0.00    +0.250 C 
ATOM     21  C   LIG    1        0.858  -0.448   6.865  0.00  0.00    +0.060 C 
ATOM     22  C   LIG    1        0.200  -0.586   8.241  0.00  0.00    -0.010 C 
ATOM     23  C   LIG    1       -1.316  -0.700   8.062  0.00  0.00    +0.060 C 
ATOM     24  C   LIG    1        0.730  -1.841   8.938  0.00  0.00    +0.050 C 
ATOM     25  C   LIG    1       -1.828   0.521   7.295  0.00  0.00    +0.250 C 
ATOM     26  H   LIG    1       -1.356  -0.278   5.479  0.00  0.00    +0.420 HD
ENDBRANCH  18  19
ENDBRANCH  17  18
ENDBRANCH   6  17
TORSDOF 5
