REMARK  Name = ZINCrH000004sdvD.0
REMARK                            x       y       z     vdW  Elec       q    Type
REMARK                         _______ _______ _______ _____ _____    ______ ____
ROOT
ATOM      1  C   LIG    1        2.849   2.128   1.988  0.00  0.00    +0.610 C 
ATOM      2  N   LIG    1        1.707   1.494   1.658  0.00  0.00    -0.600 N 
ATOM      3  C   LIG    1        0.530   2.248   1.201  0.00  0.00    +0.290 C 
ATOM      4  C   LIG    1       -0.682   1.809   2.030  0.00  0.00    +0.180 C 
ATOM      5  N   LIG    1       -0.815   0.347   1.960  0.00  0.00    -0.530 NA
ATOM      6  C   LIG    1        0.350  -0.323   2.554  0.00  0.00    +0.180 C 
ATOM      7  C   LIG    1        1.604   0.030   1.746  0.00  0.00    +0.300 C 
ATOM      8  O   LIG    1        3.777   1.502   2.466  0.00  0.00    -0.520 OA
ENDROOT
BRANCH   1  14
ATOM      9  C   LIG    1        4.159   9.385   1.780  0.00  0.00    +0.170 C 
ATOM     10  C   LIG    1        3.806   7.922   1.707  0.00  0.00    +0.050 A 
ATOM     11  C   LIG    1        4.252   6.965   2.537  0.00  0.00    +0.140 A 
ATOM     12  N   LIG    1        3.689   5.760   2.124  0.00  0.00    -0.420 N 
ATOM     13  C   LIG    1        3.700   4.446   2.490  0.00  0.00    +0.320 A 
ATOM     14  C   LIG    1        2.975   3.575   1.771  0.00  0.00    -0.240 A 
ATOM     15  S   LIG    1        2.196   4.544   0.506  0.00  0.00    +0.200 S 
ATOM     16  C   LIG    1        2.918   6.068   1.042  0.00  0.00    +0.150 A 
ATOM     17  N   LIG    1        2.993   7.356   0.803  0.00  0.00    -0.440 NA
ENDBRANCH   1  14
BRANCH   5  18
ATOM     18  C   LIG    1       -2.060  -0.099   2.599  0.00  0.00    +0.230 C 
BRANCH  18  19
ATOM     19  C   LIG    1       -2.284  -1.558   2.297  0.00  0.00    -0.090 A 
ATOM     20  C   LIG    1       -3.003  -1.930   1.176  0.00  0.00    +0.030 A 
ATOM     21  C   LIG    1       -3.205  -3.268   0.896  0.00  0.00    +0.010 A 
ATOM     22  C   LIG    1       -2.696  -4.236   1.743  0.00  0.00    -0.070 A 
ATOM     23  C   LIG    1       -1.981  -3.864   2.866  0.00  0.00    +0.000 A 
ATOM     24  C   LIG    1       -1.776  -2.526   3.143  0.00  0.00    +0.010 A 
BRANCH  22  25
ATOM     25  C   LIG    1       -2.920  -5.695   1.441  0.00  0.00    +0.020 C 
ATOM     26  C   LIG    1       -2.308  -6.034   0.081  0.00  0.00    +0.040 C 
ATOM     27  C   LIG    1       -4.422  -5.985   1.410  0.00  0.00    +0.040 C 
ENDBRANCH  22  25
ENDBRANCH  18  19
ENDBRANCH   5  18
TORSDOF 4
