REMARK  Name = ZINCpk00000kOKqx.0
REMARK                            x       y       z     vdW  Elec       q    Type
REMARK                         _______ _______ _______ _____ _____    ______ ____
ROOT
ATOM      1  N   LIG    1       -4.109   0.467  -1.956  0.00  0.00    -0.290 N 
ATOM      2  C   LIG    1       -3.026   1.202  -2.300  0.00  0.00    +0.150 A 
ATOM      3  C   LIG    1       -2.123   1.030  -1.306  0.00  0.00    -0.040 A 
ATOM      4  N   LIG    1       -2.688   0.204  -0.418  0.00  0.00    -0.240 NA
ATOM      5  N   LIG    1       -3.867  -0.106  -0.829  0.00  0.00    -0.070 NA
ENDROOT
BRANCH   3   6
ATOM      6  C   LIG    1       -0.749   1.643  -1.220  0.00  0.00    +0.180 C 
ATOM      7  C   LIG    1       -0.879   3.178  -1.041  0.00  0.00    +0.030 C 
ATOM      8  C   LIG    1        0.503   3.768  -0.738  0.00  0.00    +0.030 C 
ATOM      9  C   LIG    1        1.116   2.995   0.442  0.00  0.00    +0.170 C 
ATOM     10  C   LIG    1        0.019   2.836   1.520  0.00  0.00    +0.200 C 
ATOM     11  O   LIG    1       -0.638   1.596   1.200  0.00  0.00    -0.350 OA
ATOM     12  O   LIG    1        1.325   1.632  -0.002  0.00  0.00    -0.350 OA
ATOM     13  C   LIG    1       -0.013   1.086   0.008  0.00  0.00    +0.400 C 
BRANCH   6  14
ATOM     14  O   LIG    1       -0.009   1.333  -2.403  0.00  0.00    -0.530 OA
ATOM     15  H   LIG    1       -0.418   1.655  -3.218  0.00  0.00    +0.380 HD
ENDBRANCH   6  14
ENDBRANCH   3   6
BRANCH   1  16
ATOM     16  C   LIG    1       -5.345   0.345  -2.733  0.00  0.00    +0.390 C 
BRANCH  16  24
ATOM     17  C   LIG    1       -8.050  -2.851   0.992  0.00  0.00    +0.240 C 
ATOM     18  C   LIG    1       -7.369  -2.726  -0.347  0.00  0.00    +0.260 A 
ATOM     19  N   LIG    1       -7.242  -3.691  -1.208  0.00  0.00    -0.480 NA
ATOM     20  C   LIG    1       -6.576  -3.221  -2.297  0.00  0.00    +0.020 A 
ATOM     21  C   LIG    1       -6.155  -3.799  -3.496  0.00  0.00    +0.100 A 
ATOM     22  C   LIG    1       -5.484  -3.034  -4.424  0.00  0.00    +0.020 A 
ATOM     23  C   LIG    1       -5.223  -1.695  -4.174  0.00  0.00    +0.070 A 
ATOM     24  C   LIG    1       -5.633  -1.111  -2.994  0.00  0.00    -0.100 A 
ATOM     25  C   LIG    1       -6.305  -1.867  -2.046  0.00  0.00    +0.040 A 
ATOM     26  O   LIG    1       -6.818  -1.599  -0.825  0.00  0.00    -0.200 OA
ENDBRANCH  16  24
ENDBRANCH   1  16
TORSDOF 4
