REMARK  Name = ZINCtV00001bB3Hs.0
REMARK                            x       y       z     vdW  Elec       q    Type
REMARK                         _______ _______ _______ _____ _____    ______ ____
ROOT
ATOM      1  N   LIG    1        1.874   2.750  -0.988  0.00  0.00    -0.560 NA
ATOM      2  C   LIG    1        1.547   1.506  -0.742  0.00  0.00    +0.350 A 
ATOM      3  S   LIG    1        2.628   0.102  -0.671  0.00  0.00    -0.030 S 
ATOM      4  C   LIG    1        1.337  -1.056  -0.303  0.00  0.00    -0.030 A 
ATOM      5  C   LIG    1        0.207  -0.339  -0.258  0.00  0.00    +0.190 A 
ATOM      6  N   LIG    1        0.297   1.008  -0.486  0.00  0.00    -0.360 N 
ENDROOT
BRANCH   5   7
ATOM      7  C   LIG    1       -1.094  -0.981   0.028  0.00  0.00    -0.050 A 
ATOM      8  C   LIG    1       -1.456  -2.157  -0.631  0.00  0.00    +0.040 A 
ATOM      9  C   LIG    1       -2.669  -2.754  -0.354  0.00  0.00    +0.010 A 
ATOM     10  C   LIG    1       -3.530  -2.183   0.565  0.00  0.00    -0.060 A 
ATOM     11  C   LIG    1       -3.180  -1.014   1.218  0.00  0.00    +0.000 A 
ATOM     12  C   LIG    1       -4.856  -2.837   0.858  0.00  0.00    +0.090 C 
ATOM     13  C   LIG    1       -1.968  -0.410   0.955  0.00  0.00    +0.050 A 
ENDBRANCH   5   7
BRANCH   6  14
ATOM     14  N   LIG    1       -0.833   1.835  -0.465  0.00  0.00    -0.270 NA
ATOM     15  C   LIG    1       -0.699   3.123  -0.575  0.00  0.00    +0.350 C 
BRANCH  15  16
ATOM     16  C   LIG    1       -1.889   3.980  -0.697  0.00  0.00    -0.150 A 
ATOM     17  C   LIG    1       -1.911   5.340  -0.740  0.00  0.00    +0.310 A 
ATOM     18  N   LIG    1       -3.198   5.774  -0.857  0.00  0.00    -0.580 N 
ATOM     19  H   LIG    1       -3.467   6.705  -0.907  0.00  0.00    +0.420 HD
ATOM     20  C   LIG    1       -4.063   4.701  -0.895  0.00  0.00    +0.100 A 
ATOM     21  C   LIG    1       -5.446   4.597  -1.005  0.00  0.00    +0.010 A 
ATOM     22  C   LIG    1       -6.043   3.356  -1.016  0.00  0.00    +0.070 A 
ATOM     23  C   LIG    1       -5.278   2.201  -0.919  0.00  0.00    -0.110 A 
ATOM     24  C   LIG    1       -3.907   2.284  -0.810  0.00  0.00    +0.110 A 
ATOM     25 BR   LIG    1       -6.121   0.509  -0.937  0.00  0.00    -0.050 Br
ATOM     26  C   LIG    1       -3.289   3.532  -0.804  0.00  0.00    -0.080 A 
ENDBRANCH  15  16
ENDBRANCH   6  14
BRANCH   1  27
ATOM     27  C   LIG    1        3.273   3.104  -1.242  0.00  0.00    +0.250 C 
BRANCH  27  29
ATOM     28  C   LIG    1        3.372   4.883  -2.911  0.00  0.00    +0.030 C 
ATOM     29  C   LIG    1        3.417   3.598  -2.658  0.00  0.00    -0.130 C 
ATOM     30  C   LIG    1        3.612   2.615  -3.783  0.00  0.00    +0.070 C 
ENDBRANCH  27  29
ENDBRANCH   1  27
TORSDOF 5
