REMARK  Name = ZINCvU0000000CSW.0
REMARK                            x       y       z     vdW  Elec       q    Type
REMARK                         _______ _______ _______ _____ _____    ______ ____
ROOT
ATOM      1  C   LIG    1       -2.474   7.755  -0.988  0.00  0.00    +0.010 C 
ATOM      2  C   LIG    1       -1.022   7.959  -0.550  0.00  0.00    +0.100 C 
ENDROOT
BRANCH   1   3
ATOM      3  C   LIG    1       -3.142   9.095  -1.155  0.00  0.00    +0.540 C 
ATOM      4  N   LIG    1       -3.022   9.768  -2.316  0.00  0.00    -0.660 N 
ATOM      5  H   LIG    1       -2.576   9.356  -3.072  0.00  0.00    +0.410 HD
ATOM      6  O   LIG    1       -3.788   9.568  -0.243  0.00  0.00    -0.500 OA
BRANCH   4   7
ATOM      7  C   LIG    1       -3.540  11.061  -2.431  0.00  0.00    +0.160 A 
ATOM      8  C   LIG    1       -4.645  11.437  -1.682  0.00  0.00    +0.020 A 
ATOM      9  C   LIG    1       -5.152  12.718  -1.792  0.00  0.00    +0.030 A 
ATOM     10  C   LIG    1       -4.571  13.627  -2.659  0.00  0.00    +0.000 A 
ATOM     11  C   LIG    1       -3.475  13.265  -3.415  0.00  0.00    +0.040 A 
ATOM     12  C   LIG    1       -2.950  11.979  -3.308  0.00  0.00    -0.070 A 
BRANCH  12  13
ATOM     13  C   LIG    1       -1.772  11.585  -4.118  0.00  0.00    -0.050 A 
ATOM     14  C   LIG    1       -0.674  10.982  -3.507  0.00  0.00    +0.010 A 
ATOM     15  C   LIG    1        0.417  10.612  -4.267  0.00  0.00    +0.010 A 
ATOM     16  C   LIG    1        0.427  10.849  -5.630  0.00  0.00    +0.000 A 
ATOM     17  C   LIG    1       -0.658  11.452  -6.240  0.00  0.00    +0.010 A 
ATOM     18  C   LIG    1       -1.757  11.821  -5.491  0.00  0.00    +0.030 A 
ENDBRANCH  12  13
ENDBRANCH   4   7
ENDBRANCH   1   3
BRANCH   1  19
ATOM     19  S   LIG    1       -3.356   6.792   0.271  0.00  0.00    +0.100 S 
BRANCH  19  23
ATOM     20  C   LIG    1       -1.623   2.943   0.408  0.00  0.00    +0.230 A 
ATOM     21  N   LIG    1       -1.081   3.742  -0.461  0.00  0.00    -0.280 NA
ATOM     22  N   LIG    1       -1.547   4.910  -0.557  0.00  0.00    -0.250 NA
ATOM     23  C   LIG    1       -2.539   5.231   0.221  0.00  0.00    -0.070 A 
ATOM     24  S   LIG    1       -2.926   3.822   1.210  0.00  0.00    +0.240 S 
BRANCH  20  26
ATOM     25  C   LIG    1       -1.805   0.948   1.680  0.00  0.00    +0.510 C 
ATOM     26  N   LIG    1       -1.248   1.625   0.657  0.00  0.00    -0.480 N 
ATOM     27  O   LIG    1       -2.634   1.485   2.384  0.00  0.00    -0.500 OA
BRANCH  26  28
ATOM     28  C   LIG    1       -0.247   0.975  -0.193  0.00  0.00    +0.190 C 
ATOM     29  C   LIG    1        0.066   1.628  -1.542  0.00  0.00    +0.060 C 
ATOM     30  C   LIG    1        1.083   1.702  -0.401  0.00  0.00    +0.040 C 
ENDBRANCH  26  28
BRANCH  25  32
ATOM     31  C   LIG    1       -2.175  -1.010   3.156  0.00  0.00    +0.070 C 
ATOM     32  C   LIG    1       -1.399  -0.478   1.949  0.00  0.00    +0.080 C 
ENDBRANCH  25  32
ENDBRANCH  20  26
ENDBRANCH  19  23
ENDBRANCH   1  19
TORSDOF 8
