REMARK  Name = ZINCqH0000037Eqg.0
REMARK                            x       y       z     vdW  Elec       q    Type
REMARK                         _______ _______ _______ _____ _____    ______ ____
ROOT
ATOM      1  C   LIG    1       -0.934  -0.739   0.126  0.00  0.00    +0.290 C 
ENDROOT
BRANCH   1   4
ATOM      2  C   LIG    1       -1.035   2.362  -0.038  0.00  0.00    +0.120 C 
ATOM      3  C   LIG    1        0.202   1.516   0.119  0.00  0.00    -0.160 A 
ATOM      4  C   LIG    1        0.259   0.179   0.189  0.00  0.00    -0.010 A 
ATOM      5  O   LIG    1        1.534  -0.224   0.322  0.00  0.00    -0.190 OA
ATOM      6  C   LIG    1        2.373   0.832   0.347  0.00  0.00    +0.060 A 
ATOM      7  C   LIG    1        3.751   0.954   0.464  0.00  0.00    +0.020 A 
ATOM      8  C   LIG    1        4.335   2.203   0.456  0.00  0.00    +0.050 A 
ATOM      9  C   LIG    1        3.559   3.346   0.332  0.00  0.00    -0.010 A 
ATOM     10  C   LIG    1        2.190   3.247   0.214  0.00  0.00    +0.060 A 
ATOM     11  C   LIG    1        1.587   1.990   0.221  0.00  0.00    -0.130 A 
ENDBRANCH   1   4
BRANCH   1  12
ATOM     12  C   LIG    1       -0.988  -1.412  -1.247  0.00  0.00    +0.000 C 
ATOM     13  C   LIG    1       -1.001  -0.342  -2.340  0.00  0.00    +0.030 C 
ATOM     14  C   LIG    1       -2.258  -2.260  -1.349  0.00  0.00    +0.030 C 
ENDBRANCH   1  12
BRANCH   1  15
ATOM     15  N   LIG    1       -0.817  -1.766   1.170  0.00  0.00    -0.670 NA
ATOM     16  H   LIG    1        0.124  -2.128   1.217  0.00  0.00    +0.360 HD
BRANCH  15  17
ATOM     17  C   LIG    1       -1.245  -1.242   2.474  0.00  0.00    +0.310 C 
BRANCH  17  18
ATOM     18  C   LIG    1       -0.986  -2.275   3.540  0.00  0.00    +0.200 A 
ATOM     19  N   LIG    1        0.141  -2.477   4.178  0.00  0.00    -0.290 NA
ATOM     20  N   LIG    1       -0.039  -3.445   5.009  0.00  0.00    -0.060 NA
ATOM     21  N   LIG    1       -1.252  -3.866   4.918  0.00  0.00    -0.080 NA
ATOM     22  N   LIG    1       -1.870  -3.167   4.027  0.00  0.00    -0.310 N 
BRANCH  22  23
ATOM     23  C   LIG    1       -3.269  -3.317   3.619  0.00  0.00    +0.390 C 
BRANCH  23  24
ATOM     24  C   LIG    1       -3.378  -4.428   2.572  0.00  0.00    +0.440 C 
ATOM     25  F   LIG    1       -2.509  -4.155   1.510  0.00  0.00    -0.160 F 
ATOM     26  F   LIG    1       -4.692  -4.492   2.095  0.00  0.00    -0.170 F 
ATOM     27  F   LIG    1       -3.033  -5.652   3.154  0.00  0.00    -0.170 F 
ENDBRANCH  23  24
ENDBRANCH  22  23
ENDBRANCH  17  18
ENDBRANCH  15  17
ENDBRANCH   1  15
TORSDOF 7
