REMARK  Name = ZINCpk00000KfLJR.0
REMARK                            x       y       z     vdW  Elec       q    Type
REMARK                         _______ _______ _______ _____ _____    ______ ____
ROOT
ATOM      1  C   LIG    1       10.663   1.891   0.786  0.00  0.00    +0.220 C 
ATOM      2  C   LIG    1       10.762   3.415   0.685  0.00  0.00    +0.020 C 
ATOM      3  C   LIG    1        9.382   4.034   0.918  0.00  0.00    +0.030 C 
ATOM      4  C   LIG    1        8.415   3.540  -0.169  0.00  0.00    +0.270 C 
ATOM      5  N   LIG    1        8.425   2.070  -0.169  0.00  0.00    -0.630 N 
ATOM      6  C   LIG    1        7.275   1.376  -0.060  0.00  0.00    +0.710 C 
ATOM      7  N   LIG    1        6.094   2.026  -0.050  0.00  0.00    -0.740 N 
ATOM      8  H   LIG    1        6.074   2.996  -0.048  0.00  0.00    +0.400 HD
ATOM      9  O   LIG    1        7.302   0.164   0.029  0.00  0.00    -0.580 OA
ATOM     10  C   LIG    1        9.711   1.372  -0.296  0.00  0.00    +0.290 C 
ENDROOT
BRANCH   1  13
ATOM     11  C   LIG    1       13.634  -0.520   0.916  0.00  0.00    +0.100 C 
ATOM     12  C   LIG    1       12.269   0.088   1.113  0.00  0.00    +0.510 C 
ATOM     13  N   LIG    1       11.990   1.300   0.594  0.00  0.00    -0.730 N 
ATOM     14  H   LIG    1       12.668   1.782   0.094  0.00  0.00    +0.400 HD
ATOM     15  O   LIG    1       11.422  -0.514   1.738  0.00  0.00    -0.540 OA
ENDBRANCH   1  13
BRANCH   7  16
ATOM     16  C   LIG    1        4.840   1.268  -0.042  0.00  0.00    +0.280 C 
BRANCH  16  17
ATOM     17  C   LIG    1        3.657   2.238  -0.031  0.00  0.00    +0.270 C 
BRANCH  17  18
ATOM     18  N   LIG    1        2.404   1.479  -0.022  0.00  0.00    -0.730 N 
ATOM     19  H   LIG    1        2.424   0.509  -0.024  0.00  0.00    +0.410 HD
BRANCH  18  20
ATOM     20  C   LIG    1        1.186   2.149  -0.012  0.00  0.00    +0.290 A 
ATOM     21  C   LIG    1        1.153   3.537  -0.009  0.00  0.00    -0.070 A 
ATOM     22  C   LIG    1       -0.057   4.202   0.001  0.00  0.00    +0.130 A 
ATOM     23  C   LIG    1       -1.246   3.495   0.008  0.00  0.00    -0.070 A 
ATOM     24  C   LIG    1       -1.236   2.113   0.001  0.00  0.00    +0.200 A 
ATOM     25  F   LIG    1       -2.400   1.428   0.003  0.00  0.00    -0.130 F 
ATOM     26  C   LIG    1       -0.018   1.426  -0.004  0.00  0.00    -0.150 A 
BRANCH  26  27
ATOM     27  C   LIG    1        0.002  -0.006  -0.007  0.00  0.00    +0.250 C 
ATOM     28  N   LIG    1        0.018  -1.142  -0.009  0.00  0.00    -0.410 NA
ENDBRANCH  26  27
ENDBRANCH  18  20
ENDBRANCH  17  18
ENDBRANCH  16  17
ENDBRANCH   7  16
TORSDOF 6
