REMARK  Name = ZINCrg000009XYJY.0
REMARK                            x       y       z     vdW  Elec       q    Type
REMARK                         _______ _______ _______ _____ _____    ______ ____
ROOT
ATOM      1  C   LIG    1        4.629   5.838  -1.063  0.00  0.00    +0.080 C 
ATOM      2  C   LIG    1        3.645   6.325   0.002  0.00  0.00    +0.140 C 
ATOM      3  C   LIG    1        4.273   6.498   1.397  0.00  0.00    +0.280 C 
ATOM      4  N   LIG    1        3.493   7.748   1.484  0.00  0.00    -0.640 N 
ATOM      5  C   LIG    1        3.015   8.494   2.499  0.00  0.00    +0.550 C 
ATOM      6  O   LIG    1        2.388   9.505   2.265  0.00  0.00    -0.520 OA
ATOM      7  C   LIG    1        3.448   7.852   0.012  0.00  0.00    +0.310 C 
ENDROOT
BRANCH   5   8
ATOM      8  C   LIG    1        3.258   8.072   3.925  0.00  0.00    +0.020 C 
ATOM      9  C   LIG    1        4.772   8.027   4.200  0.00  0.00    +0.070 C 
ATOM     10  C   LIG    1        4.940   7.918   5.737  0.00  0.00    -0.310 C 
ATOM     11  S   LIG    1        3.691   9.105   6.361  0.00  0.00    +2.390 S 
ATOM     12  O   LIG    1        2.998   8.527   7.458  0.00  0.00    -0.930 OA
ATOM     13  O   LIG    1        4.287  10.388   6.495  0.00  0.00    -0.930 OA
ATOM     14  C   LIG    1        2.611   9.089   4.885  0.00  0.00    -0.280 C 
ENDBRANCH   5   8
BRANCH   2  15
ATOM     15  N   LIG    1        2.390   5.569   0.010  0.00  0.00    -0.700 N 
ATOM     16  H   LIG    1        1.541   6.038   0.020  0.00  0.00    +0.410 HD
ATOM     17  C   LIG    1        2.416   4.222   0.002  0.00  0.00    +0.570 C 
ATOM     18  O   LIG    1        3.480   3.634  -0.011  0.00  0.00    -0.520 OA
BRANCH  17  19
ATOM     19  C   LIG    1        1.150   3.458   0.010  0.00  0.00    -0.110 A 
ATOM     20  C   LIG    1       -0.073   4.130   0.025  0.00  0.00    +0.020 A 
ATOM     21  C   LIG    1       -1.253   3.415   0.032  0.00  0.00    +0.050 A 
ATOM     22  C   LIG    1       -1.228   2.032   0.019  0.00  0.00    -0.020 A 
ATOM     23  C   LIG    1       -0.016   1.355   0.009  0.00  0.00    +0.100 A 
ATOM     24  C   LIG    1        1.173   2.063   0.002  0.00  0.00    +0.080 A 
BRANCH  23  25
ATOM     25  O   LIG    1        0.002  -0.004   0.002  0.00  0.00    -0.320 OA
BRANCH  25  26
ATOM     26  C   LIG    1       -1.262  -0.670   0.011  0.00  0.00    +0.600 C 
ATOM     27  F   LIG    1       -1.993  -0.298  -1.123  0.00  0.00    -0.200 F 
ATOM     28  F   LIG    1       -1.971  -0.310   1.162  0.00  0.00    -0.200 F 
ENDBRANCH  25  26
ENDBRANCH  23  25
ENDBRANCH  17  19
ENDBRANCH   2  15
TORSDOF 5
