REMARK  Name = ZINCrg000000thx9.0
REMARK                            x       y       z     vdW  Elec       q    Type
REMARK                         _______ _______ _______ _____ _____    ______ ____
ROOT
ATOM      1  O   LIG    1        7.016  -1.440   3.866  0.00  0.00    -0.520 OA
ATOM      2  C   LIG    1        6.301  -0.965   4.723  0.00  0.00    +0.510 C 
ATOM      3  N   LIG    1        5.277  -0.161   4.375  0.00  0.00    -0.720 N 
ATOM      4  H   LIG    1        4.705   0.220   5.060  0.00  0.00    +0.410 HD
ENDROOT
BRANCH   3   5
ATOM      5  C   LIG    1        5.027   0.139   2.963  0.00  0.00    +0.300 C 
BRANCH   5   6
ATOM      6  C   LIG    1        3.817   1.067   2.845  0.00  0.00    +0.190 C 
ATOM      7  C   LIG    1        3.474   1.314   1.363  0.00  0.00    +0.280 C 
ATOM      8  N   LIG    1        2.109   0.783   1.226  0.00  0.00    -0.600 N 
ATOM      9  C   LIG    1        1.712   0.298   2.410  0.00  0.00    +0.640 C 
ATOM     10  O   LIG    1        0.621  -0.208   2.587  0.00  0.00    -0.510 OA
ATOM     11  O   LIG    1        2.625   0.422   3.380  0.00  0.00    -0.320 OA
BRANCH   8  12
ATOM     12  C   LIG    1        1.317   0.779  -0.006  0.00  0.00    +0.230 C 
ATOM     13  C   LIG    1       -0.019   1.526   0.010  0.00  0.00    +0.020 C 
ATOM     14  C   LIG    1        0.002  -0.004   0.002  0.00  0.00    +0.040 C 
ENDBRANCH   8  12
ENDBRANCH   5   6
ENDBRANCH   3   5
BRANCH   2  15
ATOM     15  C   LIG    1        6.558  -1.273   6.175  0.00  0.00    +0.370 C 
BRANCH  15  16
ATOM     16  N   LIG    1        7.717  -2.162   6.289  0.00  0.00    -0.330 N 
ATOM     17  N   LIG    1        7.534  -3.432   6.267  0.00  0.00    -0.210 NA
ATOM     18  C   LIG    1        8.527  -4.285   6.364  0.00  0.00    +0.110 A 
ATOM     19  C   LIG    1        9.856  -3.819   6.497  0.00  0.00    +0.100 A 
ATOM     20  C   LIG    1       10.069  -2.472   6.521  0.00  0.00    -0.010 A 
ATOM     21  C   LIG    1        8.945  -1.624   6.407  0.00  0.00    +0.480 A 
ATOM     22  O   LIG    1        9.087  -0.411   6.419  0.00  0.00    -0.530 OA
BRANCH  18  23
ATOM     23  C   LIG    1        8.255  -5.743   6.333  0.00  0.00    -0.030 A 
ATOM     24  C   LIG    1        9.306  -6.653   6.429  0.00  0.00    +0.030 A 
ATOM     25  C   LIG    1        9.046  -8.008   6.406  0.00  0.00    +0.010 A 
ATOM     26  C   LIG    1        7.746  -8.464   6.277  0.00  0.00    +0.020 A 
ATOM     27  C   LIG    1        6.700  -7.565   6.175  0.00  0.00    +0.010 A 
ATOM     28  C   LIG    1        6.947  -6.207   6.203  0.00  0.00    +0.050 A 
ENDBRANCH  18  23
ENDBRANCH  15  16
ENDBRANCH   2  15
TORSDOF 6
