REMARK  Name = ZINCvU00000005G0.0
REMARK                            x       y       z     vdW  Elec       q    Type
REMARK                         _______ _______ _______ _____ _____    ______ ____
ROOT
ATOM      1  C   LIG    1        3.564   2.306  -0.022  0.00  0.00    +0.280 C 
ENDROOT
BRANCH   1   2
ATOM      2  C   LIG    1        2.290   1.502  -0.013  0.00  0.00    +0.440 A 
ATOM      3  N   LIG    1        1.150   2.134   0.003  0.00  0.00    -0.540 NA
ATOM      4  C   LIG    1       -0.018   1.471   0.010  0.00  0.00    +0.540 A 
ATOM      5  C   LIG    1        0.002  -0.004   0.002  0.00  0.00    -0.220 A 
ATOM      6  C   LIG    1        1.239  -0.622  -0.013  0.00  0.00    +0.060 A 
ATOM      7  S   LIG    1        1.042  -2.368  -0.021  0.00  0.00    +0.200 S 
ATOM      8  C   LIG    1       -0.707  -2.241  -0.003  0.00  0.00    -0.020 A 
ATOM      9  C   LIG    1       -1.095  -0.963   0.007  0.00  0.00    +0.040 A 
ATOM     10  O   LIG    1       -1.077   2.078   0.018  0.00  0.00    -0.470 OA
ATOM     11  N   LIG    1        2.373   0.162  -0.020  0.00  0.00    -0.590 N 
ATOM     12  H   LIG    1        3.246  -0.261  -0.031  0.00  0.00    +0.420 HD
BRANCH   9  13
ATOM     13  C   LIG    1       -2.515  -0.557   0.023  0.00  0.00    +0.040 A 
ATOM     14  C   LIG    1       -3.485  -1.013  -0.814  0.00  0.00    -0.040 A 
ATOM     15  C   LIG    1       -4.680  -0.362  -0.443  0.00  0.00    -0.070 A 
ATOM     16  C   LIG    1       -4.383   0.449   0.589  0.00  0.00    +0.180 A 
ATOM     17  O   LIG    1       -3.075   0.326   0.872  0.00  0.00    -0.150 OA
ENDBRANCH   9  13
ENDBRANCH   1   2
BRANCH   1  24
ATOM     18  C   LIG    1        4.384   4.511   0.207  0.00  0.00    +0.190 C 
ATOM     19  C   LIG    1        4.035   5.996   0.447  0.00  0.00    +0.050 C 
ATOM     20  C   LIG    1        3.720   6.646  -0.876  0.00  0.00    +0.000 C 
ATOM     21  C   LIG    1        2.214   6.621  -1.205  0.00  0.00    +0.000 C 
ATOM     22  C   LIG    1        1.569   5.272  -0.843  0.00  0.00    +0.030 C 
ATOM     23  C   LIG    1        2.461   4.113  -1.209  0.00  0.00    +0.210 C 
ATOM     24  N   LIG    1        3.239   3.739  -0.012  0.00  0.00    -0.530 NA
BRANCH  18  28
ATOM     25  C   LIG    1        6.451   2.996   3.627  0.00  0.00    +0.130 A 
ATOM     26  C   LIG    1        7.165   3.419   2.515  0.00  0.00    -0.020 A 
ATOM     27  C   LIG    1        6.494   3.908   1.411  0.00  0.00    +0.060 A 
ATOM     28  C   LIG    1        5.113   3.977   1.413  0.00  0.00    -0.130 A 
ATOM     29  C   LIG    1        4.400   3.561   2.523  0.00  0.00    +0.080 A 
ATOM     30  C   LIG    1        5.066   3.066   3.627  0.00  0.00    -0.080 A 
BRANCH  25  32
ATOM     31  C   LIG    1        6.310   2.097   5.823  0.00  0.00    +0.250 C 
ATOM     32  O   LIG    1        7.109   2.514   4.714  0.00  0.00    -0.320 OA
ENDBRANCH  25  32
ENDBRANCH  18  28
ENDBRANCH   1  24
TORSDOF 5
