REMARK  Name = ZINCrH000004tGFc.0
REMARK                            x       y       z     vdW  Elec       q    Type
REMARK                         _______ _______ _______ _____ _____    ______ ____
ROOT
ATOM      1  O   LIG    1        1.150   0.308  -2.036  0.00  0.00    -0.500 OA
ATOM      2  C   LIG    1        0.707  -0.490  -1.238  0.00  0.00    +0.530 C 
ATOM      3  N   LIG    1        0.847  -1.812  -1.460  0.00  0.00    -0.620 N 
ATOM      4  H   LIG    1        0.493  -2.451  -0.821  0.00  0.00    +0.430 HD
ENDROOT
BRANCH   3   5
ATOM      5  C   LIG    1        1.497  -2.260  -2.603  0.00  0.00    +0.280 A 
ATOM      6  N   LIG    1        1.687  -3.504  -2.917  0.00  0.00    -0.490 NA
ATOM      7  C   LIG    1        2.333  -3.745  -4.056  0.00  0.00    +0.160 A 
ATOM      8  C   LIG    1        2.710  -2.652  -4.746  0.00  0.00    -0.110 A 
ATOM      9  S   LIG    1        2.183  -1.227  -3.853  0.00  0.00    +0.230 S 
BRANCH   7  10
ATOM     10  C   LIG    1        2.614  -5.117  -4.531  0.00  0.00    -0.120 A 
ATOM     11  C   LIG    1        2.270  -6.249  -3.887  0.00  0.00    +0.060 A 
ATOM     12  C   LIG    1        2.638  -7.415  -4.532  0.00  0.00    +0.030 A 
ATOM     13  C   LIG    1        3.288  -7.241  -5.686  0.00  0.00    -0.150 A 
ATOM     14 CL   LIG    1        3.876  -8.519  -6.703  0.00  0.00    -0.010 Cl
ATOM     15  S   LIG    1        3.458  -5.523  -6.020  0.00  0.00    +0.190 S 
ENDBRANCH   7  10
ENDBRANCH   3   5
BRANCH   2  16
ATOM     16  C   LIG    1        0.002  -0.004   0.002  0.00  0.00    +0.070 C 
BRANCH  16  17
ATOM     17  C   LIG    1       -0.019   1.526   0.010  0.00  0.00    +0.350 C 
BRANCH  17  18
ATOM     18  N   LIG    1       -0.704   1.998   1.216  0.00  0.00    -0.580 N 
ATOM     19  C   LIG    1       -2.020   2.236   1.289  0.00  0.00    +0.700 C 
ATOM     20  N   LIG    1       -2.399   2.659   2.512  0.00  0.00    -0.710 N 
ATOM     21  H   LIG    1       -3.297   2.889   2.797  0.00  0.00    +0.440 HD
ATOM     22  C   LIG    1       -1.180   2.709   3.323  0.00  0.00    +0.120 C 
ATOM     23  C   LIG    1       -0.912   4.131   3.833  0.00  0.00    +0.060 C 
ATOM     24  C   LIG    1       -1.451   4.115   5.287  0.00  0.00    +0.030 C 
ATOM     25  C   LIG    1       -1.069   2.696   5.781  0.00  0.00    +0.040 C 
ATOM     26  C   LIG    1       -1.285   1.794   4.545  0.00  0.00    +0.050 C 
ATOM     27  O   LIG    1       -2.788   2.085   0.359  0.00  0.00    -0.540 OA
ATOM     28  C   LIG    1       -0.087   2.253   2.390  0.00  0.00    +0.530 C 
ATOM     29  O   LIG    1        1.093   2.140   2.640  0.00  0.00    -0.450 OA
ENDBRANCH  17  18
ENDBRANCH  16  17
ENDBRANCH   2  16
TORSDOF 5
