REMARK  Name = ZINCrH000004uCwb.0
REMARK                            x       y       z     vdW  Elec       q    Type
REMARK                         _______ _______ _______ _____ _____    ______ ____
ROOT
ATOM      1  C   LIG    1       -2.456   0.863   0.412  0.00  0.00    +0.040 A 
ATOM      2  C   LIG    1       -3.723   1.396   0.328  0.00  0.00    -0.020 A 
ATOM      3  C   LIG    1       -4.615   0.338   0.083  0.00  0.00    +0.150 A 
ATOM      4  N   LIG    1       -3.925  -0.786   0.029  0.00  0.00    -0.230 NA
ATOM      5  N   LIG    1       -2.571  -0.491   0.232  0.00  0.00    -0.280 N 
ENDROOT
BRANCH   5   6
ATOM      6  C   LIG    1       -1.520  -1.415   0.247  0.00  0.00    +0.130 A 
ATOM      7  C   LIG    1       -0.343  -1.142  -0.437  0.00  0.00    +0.060 A 
ATOM      8  C   LIG    1        0.694  -2.054  -0.415  0.00  0.00    +0.020 A 
ATOM      9  C   LIG    1        0.556  -3.244   0.277  0.00  0.00    +0.020 A 
ATOM     10  C   LIG    1       -0.617  -3.521   0.954  0.00  0.00    +0.020 A 
ATOM     11  C   LIG    1       -1.655  -2.611   0.941  0.00  0.00    +0.030 A 
ENDBRANCH   5   6
BRANCH   3  12
ATOM     12  C   LIG    1       -6.079   0.462  -0.082  0.00  0.00    +0.040 A 
ATOM     13  C   LIG    1       -6.944  -0.559  -0.319  0.00  0.00    +0.000 A 
ATOM     14  C   LIG    1       -8.231   0.010  -0.403  0.00  0.00    -0.060 A 
ATOM     15  C   LIG    1       -8.088   1.337  -0.222  0.00  0.00    +0.190 A 
ATOM     16  O   LIG    1       -6.786   1.607  -0.029  0.00  0.00    -0.170 OA
ENDBRANCH   3  12
BRANCH   1  18
ATOM     17  O   LIG    1       -0.166   1.007   0.821  0.00  0.00    -0.520 OA
ATOM     18  C   LIG    1       -1.211   1.607   0.657  0.00  0.00    +0.580 C 
ATOM     19  N   LIG    1       -1.229   2.954   0.701  0.00  0.00    -0.710 N 
ATOM     20  H   LIG    1       -2.047   3.435   0.501  0.00  0.00    +0.410 HD
BRANCH  19  21
ATOM     21  C   LIG    1       -0.014   3.692   1.055  0.00  0.00    +0.330 C 
BRANCH  21  22
ATOM     22  C   LIG    1       -0.301   5.171   1.038  0.00  0.00    -0.130 A 
ATOM     23  C   LIG    1       -0.117   5.896  -0.126  0.00  0.00    +0.050 A 
ATOM     24  C   LIG    1       -0.385   7.251  -0.146  0.00  0.00    -0.020 A 
ATOM     25  C   LIG    1       -0.828   7.887   1.005  0.00  0.00    +0.120 A 
ATOM     26  C   LIG    1       -1.006   7.158   2.172  0.00  0.00    -0.020 A 
ATOM     27  C   LIG    1       -0.742   5.802   2.186  0.00  0.00    +0.050 A 
BRANCH  25  28
ATOM     28  O   LIG    1       -1.086   9.221   0.989  0.00  0.00    -0.500 OA
ATOM     29  H   LIG    1       -0.324   9.772   1.215  0.00  0.00    +0.390 HD
ENDBRANCH  25  28
ENDBRANCH  21  22
ENDBRANCH  19  21
ENDBRANCH   1  18
TORSDOF 6
