REMARK  Name = ZINCpk00000ImeQN.0
REMARK                            x       y       z     vdW  Elec       q    Type
REMARK                         _______ _______ _______ _____ _____    ______ ____
ROOT
ATOM      1  N   LIG    1       -2.828   2.122   2.195  0.00  0.00    -0.530 NA
ATOM      2  C   LIG    1       -2.495   3.543   2.105  0.00  0.00    +0.170 C 
ATOM      3  C   LIG    1       -1.184   3.823   1.489  0.00  0.00    +0.020 C 
ATOM      4  C   LIG    1       -1.173   3.313   0.026  0.00  0.00    +0.260 C 
ATOM      5  N   LIG    1       -1.191   1.867   0.018  0.00  0.00    -0.590 N 
ATOM      6  C   LIG    1       -2.441   1.079   0.013  0.00  0.00    +0.290 C 
ATOM      7  C   LIG    1       -0.014   1.209   0.009  0.00  0.00    +0.500 C 
ATOM      8  O   LIG    1        0.002  -0.004   0.002  0.00  0.00    -0.520 OA
ATOM      9  C   LIG    1       -3.484   1.673   0.984  0.00  0.00    +0.190 C 
ENDROOT
BRANCH   1  10
ATOM     10  C   LIG    1       -3.659   1.849   3.375  0.00  0.00    +0.300 C 
BRANCH  10  15
ATOM     11  N   LIG    1       -2.944  -0.404   4.311  0.00  0.00    -0.440 N 
ATOM     12  C   LIG    1       -3.400  -1.693   4.232  0.00  0.00    +0.120 A 
ATOM     13  C   LIG    1       -4.496  -1.671   3.450  0.00  0.00    +0.140 A 
ATOM     14  N   LIG    1       -4.706  -0.403   3.066  0.00  0.00    -0.490 NA
ATOM     15  C   LIG    1       -3.778   0.360   3.573  0.00  0.00    +0.210 A 
BRANCH  11  17
ATOM     16  C   LIG    1       -2.205   0.558   6.434  0.00  0.00    +0.030 C 
ATOM     17  C   LIG    1       -1.770   0.058   5.055  0.00  0.00    +0.280 C 
ENDBRANCH  11  17
ENDBRANCH  10  15
ENDBRANCH   1  10
BRANCH   7  18
ATOM     18  C   LIG    1        1.280   1.980   0.001  0.00  0.00    +0.360 C 
BRANCH  18  19
ATOM     19  N   LIG    1        2.407   1.043  -0.015  0.00  0.00    -0.360 N 
ATOM     20  N   LIG    1        3.030   0.523  -1.157  0.00  0.00    -0.290 NA
ATOM     21  C   LIG    1        3.991  -0.276  -0.770  0.00  0.00    +0.080 A 
ATOM     22  C   LIG    1        4.011  -0.290   0.629  0.00  0.00    -0.120 A 
ATOM     23  C   LIG    1        4.917  -1.048  -1.674  0.00  0.00    +0.160 C 
ATOM     24  C   LIG    1        3.031   0.534   1.067  0.00  0.00    +0.090 A 
ATOM     25  C   LIG    1        2.694   0.827   2.507  0.00  0.00    +0.150 C 
ENDBRANCH  18  19
ENDBRANCH   7  18
TORSDOF 5
