REMARK  Name = ZINCqH00000379OM.0
REMARK                            x       y       z     vdW  Elec       q    Type
REMARK                         _______ _______ _______ _____ _____    ______ ____
ROOT
ATOM      1  C   LIG    1        3.416  -1.935  -1.466  0.00  0.00    +0.190 A 
ATOM      2  N   LIG    1        2.700  -2.928  -1.932  0.00  0.00    -0.460 NA
ATOM      3  C   LIG    1        3.440  -4.040  -1.721  0.00  0.00    +0.220 A 
ATOM      4  N   LIG    1        4.552  -3.661  -1.145  0.00  0.00    -0.370 NA
ATOM      5  O   LIG    1        4.554  -2.457  -0.997  0.00  0.00    +0.090 OA
ENDROOT
BRANCH   3   6
ATOM      6  C   LIG    1        3.062  -5.430  -2.076  0.00  0.00    -0.000 A 
ATOM      7  C   LIG    1        3.934  -6.461  -1.793  0.00  0.00    +0.140 A 
ATOM      8  C   LIG    1        3.575  -7.776  -2.129  0.00  0.00    +0.020 A 
ATOM      9  N   LIG    1        4.125  -8.976  -2.021  0.00  0.00    -0.260 NA
ATOM     10  N   LIG    1        3.317  -9.849  -2.514  0.00  0.00    -0.190 N 
ATOM     11  H   LIG    1        3.507 -10.800  -2.545  0.00  0.00    +0.480 HD
ATOM     12  N   LIG    1        2.230  -9.325  -2.964  0.00  0.00    -0.270 NA
ATOM     13  C   LIG    1        2.276  -8.016  -2.776  0.00  0.00    +0.040 A 
ATOM     14  C   LIG    1        1.431  -6.922  -3.039  0.00  0.00    +0.090 A 
ATOM     15  C   LIG    1        1.821  -5.671  -2.690  0.00  0.00    +0.080 A 
ENDBRANCH   3   6
BRANCH   1  17
ATOM     16  C   LIG    1        4.061   0.321  -2.267  0.00  0.00    +0.070 C 
ATOM     17  C   LIG    1        3.032  -0.478  -1.465  0.00  0.00    +0.110 C 
BRANCH  17  18
ATOM     18  C   LIG    1        2.995   0.038  -0.025  0.00  0.00    +0.310 C 
BRANCH  18  19
ATOM     19  N   LIG    1        2.507   1.420  -0.014  0.00  0.00    -0.480 N 
ATOM     20  C   LIG    1        3.301   2.534  -0.016  0.00  0.00    +0.220 A 
ATOM     21  C   LIG    1        2.539   3.639  -0.004  0.00  0.00    -0.050 A 
ATOM     22  C   LIG    1        1.143   3.196   0.008  0.00  0.00    -0.110 A 
ATOM     23  C   LIG    1       -0.085   3.860   0.023  0.00  0.00    +0.050 A 
ATOM     24  C   LIG    1       -1.246   3.138   0.030  0.00  0.00    -0.030 A 
ATOM     25  C   LIG    1       -1.214   1.751   0.017  0.00  0.00    +0.020 A 
ATOM     26  C   LIG    1       -0.013   1.076   0.008  0.00  0.00    -0.010 A 
ATOM     27  C   LIG    1        1.181   1.790   0.000  0.00  0.00    +0.100 A 
ENDBRANCH  18  19
ENDBRANCH  17  18
ENDBRANCH   1  17
TORSDOF 4
