REMARK  Name = ZINCvU0000000Eay.0
REMARK                            x       y       z     vdW  Elec       q    Type
REMARK                         _______ _______ _______ _____ _____    ______ ____
ROOT
ATOM      1  N   LIG    1        4.135  -0.828   4.090  0.00  0.00    -0.360 N 
ATOM      2  C   LIG    1        3.745  -0.846   2.797  0.00  0.00    +0.260 A 
ATOM      3  C   LIG    1        4.435   0.112   2.140  0.00  0.00    -0.270 A 
ATOM      4  C   LIG    1        5.290   0.741   3.066  0.00  0.00    +0.130 A 
ATOM      5  N   LIG    1        5.101   0.176   4.240  0.00  0.00    -0.270 NA
ENDROOT
BRANCH   3   6
ATOM      6  C   LIG    1        4.316   0.444   0.675  0.00  0.00    +0.570 C 
ATOM      7  N   LIG    1        2.987   0.063   0.198  0.00  0.00    -0.730 N 
ATOM      8  H   LIG    1        2.266   0.712   0.228  0.00  0.00    +0.410 HD
ATOM      9  C   LIG    1        2.744  -1.175  -0.282  0.00  0.00    +0.570 C 
ATOM     10  C   LIG    1        3.860  -2.131  -0.402  0.00  0.00    -0.210 A 
ATOM     11  C   LIG    1        3.641  -3.489  -0.617  0.00  0.00    +0.110 A 
ATOM     12  C   LIG    1        4.720  -4.342  -0.730  0.00  0.00    -0.040 A 
ATOM     13  C   LIG    1        6.014  -3.857  -0.631  0.00  0.00    +0.080 A 
ATOM     14  C   LIG    1        6.245  -2.512  -0.416  0.00  0.00    -0.050 A 
ATOM     15  C   LIG    1        5.175  -1.643  -0.297  0.00  0.00    +0.240 A 
ATOM     16  O   LIG    1        1.619  -1.497  -0.612  0.00  0.00    -0.540 OA
ATOM     17  N   LIG    1        5.351  -0.283  -0.070  0.00  0.00    -0.740 N 
ATOM     18  H   LIG    1        6.141   0.176  -0.396  0.00  0.00    +0.410 HD
ENDBRANCH   3   6
BRANCH   4  19
ATOM     19  C   LIG    1        6.233   1.848   2.772  0.00  0.00    -0.020 A 
ATOM     20  C   LIG    1        7.025   1.805   1.626  0.00  0.00    +0.020 A 
ATOM     21  C   LIG    1        7.897   2.840   1.354  0.00  0.00    +0.010 A 
ATOM     22  C   LIG    1        7.995   3.912   2.222  0.00  0.00    -0.080 A 
ATOM     23  C   LIG    1        7.215   3.957   3.364  0.00  0.00    +0.010 A 
ATOM     24  C   LIG    1        8.954   5.035   1.923  0.00  0.00    +0.090 C 
ATOM     25  C   LIG    1        6.335   2.930   3.643  0.00  0.00    +0.050 A 
ENDBRANCH   4  19
BRANCH   1  26
ATOM     26  C   LIG    1        3.635  -1.705   5.151  0.00  0.00    +0.390 C 
BRANCH  26  31
ATOM     27  C   LIG    1        8.078  -4.407   7.671  0.00  0.00    +0.090 C 
ATOM     28  C   LIG    1        6.919  -3.703   7.014  0.00  0.00    -0.070 A 
ATOM     29  C   LIG    1        6.486  -2.483   7.500  0.00  0.00    +0.000 A 
ATOM     30  C   LIG    1        5.424  -1.836   6.897  0.00  0.00    +0.040 A 
ATOM     31  C   LIG    1        4.794  -2.410   5.809  0.00  0.00    -0.120 A 
ATOM     32  C   LIG    1        5.223  -3.632   5.326  0.00  0.00    +0.030 A 
ATOM     33  C   LIG    1        6.289  -4.276   5.926  0.00  0.00    +0.000 A 
ENDBRANCH  26  31
ENDBRANCH   1  26
TORSDOF 4
