REMARK  Name = ZINCkj000005gC8t.0
REMARK                            x       y       z     vdW  Elec       q    Type
REMARK                         _______ _______ _______ _____ _____    ______ ____
ROOT
ATOM      1  N   LIG    1        2.256   0.691   0.358  0.00  0.00    -0.730 N 
ATOM      2  H   LIG    1        2.408  -0.265   0.420  0.00  0.00    +0.390 HD
ATOM      3  C   LIG    1        1.006   1.165   0.192  0.00  0.00    +0.700 C 
ATOM      4  N   LIG    1       -0.034   0.311   0.113  0.00  0.00    -0.750 N 
ATOM      5  H   LIG    1        0.118  -0.645   0.175  0.00  0.00    +0.400 HD
ATOM      6  O   LIG    1        0.816   2.364   0.114  0.00  0.00    -0.580 OA
ENDROOT
BRANCH   1   7
ATOM      7  C   LIG    1        3.387   1.619   0.443  0.00  0.00    +0.250 C 
ATOM      8  C   LIG    1        3.865   1.972  -0.967  0.00  0.00    +0.020 C 
BRANCH   7   9
ATOM      9  C   LIG    1        4.529   0.962   1.220  0.00  0.00    +0.020 C 
BRANCH   9  10
ATOM     10  C   LIG    1        4.087   0.709   2.662  0.00  0.00    -0.020 C 
ATOM     11  C   LIG    1        5.174  -0.075   3.400  0.00  0.00    +0.020 C 
BRANCH  10  13
ATOM     12  C   LIG    1        3.295   1.796   4.768  0.00  0.00    +0.010 C 
ATOM     13  C   LIG    1        3.856   2.047   3.367  0.00  0.00    +0.000 C 
ENDBRANCH  10  13
ENDBRANCH   9  10
ENDBRANCH   7   9
ENDBRANCH   1   7
BRANCH   4  14
ATOM     14  C   LIG    1       -1.393   0.827  -0.073  0.00  0.00    +0.320 C 
BRANCH  14  15
ATOM     15  C   LIG    1       -2.362  -0.344  -0.251  0.00  0.00    +0.130 C 
ATOM     16  C   LIG    1       -2.412  -1.166   1.038  0.00  0.00    +0.280 C 
ATOM     17  N   LIG    1       -3.327  -2.301   0.860  0.00  0.00    -0.390 N 
ATOM     18  C   LIG    1       -2.842  -3.158  -0.230  0.00  0.00    +0.280 C 
ATOM     19  C   LIG    1       -2.795  -2.352  -1.530  0.00  0.00    +0.210 C 
ATOM     20  C   LIG    1       -3.389  -3.080   2.104  0.00  0.00    +0.330 C 
ATOM     21  H   LIG    1       -4.248  -1.957   0.633  0.00  0.00    +0.420 HD
ATOM     22  N   LIG    1       -1.902  -1.198  -1.356  0.00  0.00    -0.540 NA
ATOM     23  C   LIG    1       -1.786  -0.429  -2.602  0.00  0.00    +0.230 C 
ENDBRANCH  14  15
ENDBRANCH   4  14
TORSDOF 6
