REMARK  Name = ZINCkj000005gC8t.1
REMARK                            x       y       z     vdW  Elec       q    Type
REMARK                         _______ _______ _______ _____ _____    ______ ____
ROOT
ATOM      1  N   LIG    1       -1.192   3.087   0.952  0.00  0.00    -0.730 N 
ATOM      2  H   LIG    1       -0.606   3.645   0.417  0.00  0.00    +0.390 HD
ATOM      3  C   LIG    1       -2.186   3.648   1.669  0.00  0.00    +0.700 C 
ATOM      4  N   LIG    1       -2.364   4.984   1.644  0.00  0.00    -0.750 N 
ATOM      5  H   LIG    1       -1.778   5.542   1.109  0.00  0.00    +0.400 HD
ATOM      6  O   LIG    1       -2.921   2.949   2.340  0.00  0.00    -0.580 OA
ENDROOT
BRANCH   1   7
ATOM      7  C   LIG    1       -0.999   1.636   0.979  0.00  0.00    +0.250 C 
ATOM      8  C   LIG    1       -0.140   1.259   2.188  0.00  0.00    +0.020 C 
BRANCH   7   9
ATOM      9  C   LIG    1       -0.295   1.191  -0.305  0.00  0.00    +0.020 C 
BRANCH   9  10
ATOM     10  C   LIG    1       -1.198   1.477  -1.506  0.00  0.00    -0.020 C 
ATOM     11  C   LIG    1       -0.437   1.176  -2.799  0.00  0.00    +0.020 C 
BRANCH  10  13
ATOM     12  C   LIG    1       -3.405   0.966  -2.561  0.00  0.00    +0.010 C 
ATOM     13  C   LIG    1       -2.444   0.592  -1.430  0.00  0.00    +0.000 C 
ENDBRANCH  10  13
ENDBRANCH   9  10
ENDBRANCH   7   9
ENDBRANCH   1   7
BRANCH   4  14
ATOM     14  C   LIG    1       -3.444   5.594   2.424  0.00  0.00    +0.320 C 
BRANCH  14  15
ATOM     15  C   LIG    1       -3.352   7.117   2.319  0.00  0.00    +0.140 C 
ATOM     16  C   LIG    1       -3.616   7.546   0.874  0.00  0.00    +0.280 C 
ATOM     17  N   LIG    1       -3.507   9.007   0.769  0.00  0.00    -0.380 N 
ATOM     18  C   LIG    1       -2.152   9.428   1.148  0.00  0.00    +0.280 C 
ATOM     19  C   LIG    1       -1.877   9.015   2.596  0.00  0.00    +0.210 C 
ATOM     20  C   LIG    1       -4.485   9.636   1.667  0.00  0.00    +0.320 C 
ATOM     21  H   LIG    1       -3.694   9.290  -0.182  0.00  0.00    +0.430 HD
ATOM     22  N   LIG    1       -2.008   7.556   2.719  0.00  0.00    -0.530 NA
ATOM     23  C   LIG    1       -1.694   7.113   4.085  0.00  0.00    +0.230 C 
ENDBRANCH  14  15
ENDBRANCH   4  14
TORSDOF 6
