REMARK  Name = ZINCrg00000RWAmD.0
REMARK                            x       y       z     vdW  Elec       q    Type
REMARK                         _______ _______ _______ _____ _____    ______ ____
ROOT
ATOM      1  C   LIG    1        5.293   1.715  -2.560  0.00  0.00    +0.160 C 
ATOM      2  C   LIG    1        5.738   0.655  -1.545  0.00  0.00    +0.290 C 
ATOM      3  N   LIG    1        4.772  -0.455  -1.579  0.00  0.00    -1.000 NA
ATOM      4  C   LIG    1        4.434  -1.038  -2.887  0.00  0.00    +0.280 C 
ATOM      5  C   LIG    1        4.049   0.108  -3.837  0.00  0.00    +0.230 C 
ATOM      6  O   LIG    1        5.086   1.092  -3.830  0.00  0.00    -0.340 OA
ENDROOT
BRANCH   1   8
ATOM      7  O   LIG    1        6.992   2.876  -3.715  0.00  0.00    -0.510 OA
ATOM      8  C   LIG    1        6.361   2.771  -2.685  0.00  0.00    +0.530 C 
ATOM      9  N   LIG    1        6.613   3.599  -1.652  0.00  0.00    -0.610 N 
ATOM     10  C   LIG    1        5.794   3.556  -0.432  0.00  0.00    +0.280 C 
ATOM     11  C   LIG    1        6.736   3.439   0.777  0.00  0.00    +0.180 C 
ATOM     12  N   LIG    1        7.721   4.528   0.730  0.00  0.00    -0.500 NA
ATOM     13  C   LIG    1        8.575   4.422  -0.461  0.00  0.00    +0.170 C 
ATOM     14  C   LIG    1        7.712   4.575  -1.718  0.00  0.00    +0.300 C 
BRANCH  12  15
ATOM     15  C   LIG    1        8.530   4.559   1.956  0.00  0.00    +0.140 C 
ATOM     16  C   LIG    1        8.451   3.346   2.885  0.00  0.00    -0.020 C 
ATOM     17  C   LIG    1        7.788   4.665   3.290  0.00  0.00    +0.030 C 
ENDBRANCH  12  15
ENDBRANCH   1   8
BRANCH   3  18
ATOM     18  S   LIG    1        4.090  -1.034  -0.186  0.00  0.00    +2.690 S 
ATOM     19  O   LIG    1        4.021   0.063   0.714  0.00  0.00    -0.950 OA
ATOM     20  O   LIG    1        2.953  -1.790  -0.580  0.00  0.00    -0.930 OA
BRANCH  18  21
ATOM     21  C   LIG    1        5.230  -2.181   0.515  0.00  0.00    -0.680 A 
ATOM     22  C   LIG    1        5.848  -1.894   1.717  0.00  0.00    +0.140 A 
ATOM     23  C   LIG    1        6.742  -2.794   2.267  0.00  0.00    +0.010 A 
ATOM     24  C   LIG    1        7.020  -3.980   1.614  0.00  0.00    +0.090 A 
ATOM     25  C   LIG    1        6.403  -4.267   0.411  0.00  0.00    +0.020 A 
ATOM     26  C   LIG    1        5.508  -3.368  -0.139  0.00  0.00    +0.050 A 
ATOM     27 CL   LIG    1        4.732  -3.729  -1.650  0.00  0.00    -0.040 Cl
ENDBRANCH  18  21
ENDBRANCH   3  18
TORSDOF 4
