REMARK  Name = ZINCrH000004s9LB.0
REMARK                            x       y       z     vdW  Elec       q    Type
REMARK                         _______ _______ _______ _____ _____    ______ ____
ROOT
ATOM      1  C   LIG    1        4.205   5.023  -5.915  0.00  0.00    +0.590 C 
ATOM      2  N   LIG    1        4.368   4.090  -4.956  0.00  0.00    -0.640 N 
ATOM      3  H   LIG    1        4.905   3.302  -5.132  0.00  0.00    +0.420 HD
ATOM      4  O   LIG    1        3.531   6.012  -5.693  0.00  0.00    -0.460 OA
ENDROOT
BRANCH   1   9
ATOM      5  C   LIG    1        3.515   8.859  -9.810  0.00  0.00    +0.170 C 
ATOM      6  C   LIG    1        4.224   7.541  -9.636  0.00  0.00    +0.220 A 
ATOM      7  N   LIG    1        4.142   6.897  -8.492  0.00  0.00    -0.450 NA
ATOM      8  C   LIG    1        4.758   5.727  -8.320  0.00  0.00    +0.340 A 
ATOM      9  C   LIG    1        4.840   4.847  -7.224  0.00  0.00    -0.300 A 
ATOM     10  C   LIG    1        5.643   3.765  -7.627  0.00  0.00    +0.340 A 
ATOM     11  N   LIG    1        6.026   3.963  -8.860  0.00  0.00    -0.310 NA
ATOM     12  N   LIG    1        5.499   5.173  -9.325  0.00  0.00    -0.310 N 
ATOM     13  C   LIG    1        5.604   5.816 -10.522  0.00  0.00    +0.360 A 
ATOM     14  C   LIG    1        4.970   7.004 -10.692  0.00  0.00    -0.040 A 
ENDBRANCH   1   9
BRANCH   2  15
ATOM     15  C   LIG    1        3.766   4.257  -3.715  0.00  0.00    +0.280 A 
ATOM     16  N   LIG    1        3.031   5.269  -3.377  0.00  0.00    -0.470 NA
ATOM     17  C   LIG    1        2.537   5.266  -2.152  0.00  0.00    +0.100 A 
ATOM     18  C   LIG    1        2.871   4.200  -1.422  0.00  0.00    -0.240 A 
ATOM     19  C   LIG    1        1.666   6.376  -1.623  0.00  0.00    +0.160 C 
ATOM     20  S   LIG    1        3.893   3.160  -2.410  0.00  0.00    +0.120 S 
BRANCH  18  21
ATOM     21  C   LIG    1        2.451   3.936   0.001  0.00  0.00    +0.200 C 
BRANCH  21  22
ATOM     22  C   LIG    1        1.156   3.166   0.008  0.00  0.00    -0.090 A 
ATOM     23  C   LIG    1        1.175   1.783   0.000  0.00  0.00    +0.050 A 
ATOM     24  C   LIG    1       -0.013   1.076   0.008  0.00  0.00    -0.010 A 
ATOM     25  C   LIG    1       -1.221   1.752   0.017  0.00  0.00    +0.100 A 
ATOM     26  C   LIG    1       -1.238   3.136   0.030  0.00  0.00    -0.010 A 
ATOM     27  F   LIG    1       -2.382   1.062   0.019  0.00  0.00    -0.140 F 
ATOM     28  C   LIG    1       -0.050   3.842   0.023  0.00  0.00    +0.060 A 
ENDBRANCH  21  22
ENDBRANCH  18  21
ENDBRANCH   2  15
TORSDOF 4
