REMARK  Name = ZINCqH0000039AN9.0
REMARK                            x       y       z     vdW  Elec       q    Type
REMARK                         _______ _______ _______ _____ _____    ______ ____
ROOT
ATOM      1  O   LIG    1        2.677   6.046   3.657  0.00  0.00    -0.580 OA
ATOM      2  C   LIG    1        3.110   6.477   2.606  0.00  0.00    +0.720 C 
ATOM      3  N   LIG    1        3.932   7.545   2.603  0.00  0.00    -0.630 N 
ATOM      4  C   LIG    1        4.533   8.164   1.408  0.00  0.00    +0.250 C 
ATOM      5  C   LIG    1        5.803   8.881   1.925  0.00  0.00    +0.040 C 
ATOM      6  C   LIG    1        5.328   9.401   3.307  0.00  0.00    +0.060 C 
ATOM      7  C   LIG    1        4.384   8.282   3.793  0.00  0.00    +0.310 C 
ATOM      8  N   LIG    1        2.769   5.887   1.443  0.00  0.00    -0.740 N 
ATOM      9  H   LIG    1        3.115   6.231   0.605  0.00  0.00    +0.400 HD
ENDROOT
BRANCH   7  10
ATOM     10  C   LIG    1        3.199   8.883   4.504  0.00  0.00    +0.120 A 
ATOM     11  C   LIG    1        1.920   8.584   4.073  0.00  0.00    -0.010 A 
ATOM     12  C   LIG    1        0.837   9.139   4.737  0.00  0.00    +0.050 A 
ATOM     13  C   LIG    1        1.082   9.985   5.808  0.00  0.00    -0.040 A 
ATOM     14  C   LIG    1        2.388  10.242   6.178  0.00  0.00    +0.260 A 
ATOM     15  N   LIG    1        3.394   9.693   5.526  0.00  0.00    -0.480 NA
ENDBRANCH   7  10
BRANCH   8  16
ATOM     16  C   LIG    1        1.875   4.726   1.446  0.00  0.00    +0.280 C 
BRANCH  16  17
ATOM     17  C   LIG    1        1.650   4.252   0.009  0.00  0.00    +0.110 C 
BRANCH  17  18
ATOM     18  C   LIG    1        0.731   3.058   0.011  0.00  0.00    -0.170 A 
ATOM     19  C   LIG    1        1.099   1.768   0.001  0.00  0.00    +0.230 A 
ATOM     20  N   LIG    1       -0.011   0.966   0.007  0.00  0.00    -0.590 N 
ATOM     21  H   LIG    1        0.002  -0.004   0.002  0.00  0.00    +0.420 HD
ATOM     22  C   LIG    1       -1.149   1.742   0.016  0.00  0.00    +0.120 A 
ATOM     23  C   LIG    1       -2.508   1.447   0.034  0.00  0.00    -0.040 A 
ATOM     24  C   LIG    1       -3.431   2.472   0.047  0.00  0.00    +0.120 A 
ATOM     25  C   LIG    1       -3.015   3.799   0.051  0.00  0.00    -0.040 A 
ATOM     26  C   LIG    1       -1.685   4.108   0.040  0.00  0.00    +0.090 A 
ATOM     27  F   LIG    1       -4.751   2.184   0.058  0.00  0.00    -0.140 F 
ATOM     28  C   LIG    1       -0.734   3.086   0.026  0.00  0.00    -0.110 A 
ENDBRANCH  17  18
ENDBRANCH  16  17
ENDBRANCH   8  16
TORSDOF 4
