REMARK  Name = ZINCqH0000002UsJ.0
REMARK                            x       y       z     vdW  Elec       q    Type
REMARK                         _______ _______ _______ _____ _____    ______ ____
ROOT
ATOM      1  S   LIG    1       -0.112   4.089   1.231  0.00  0.00    +0.050 S 
ENDROOT
BRANCH   1  11
ATOM      2  N   LIG    1       -0.493   6.767   1.876  0.00  0.00    -0.470 N 
ATOM      3  C   LIG    1        0.016   8.004   1.514  0.00  0.00    +0.060 A 
ATOM      4  C   LIG    1       -0.252   9.306   1.908  0.00  0.00    +0.040 A 
ATOM      5  C   LIG    1        0.449  10.353   1.343  0.00  0.00    +0.050 A 
ATOM      6  C   LIG    1        1.420  10.111   0.382  0.00  0.00    -0.040 A 
ATOM      7  C   LIG    1        1.699   8.822  -0.020  0.00  0.00    +0.080 A 
ATOM      8 CL   LIG    1        2.290  11.440  -0.317  0.00  0.00    -0.060 Cl
ATOM      9  C   LIG    1        0.999   7.753   0.542  0.00  0.00    +0.070 A 
ATOM     10  N   LIG    1        1.048   6.407   0.362  0.00  0.00    -0.490 NA
ATOM     11  C   LIG    1        0.169   5.826   1.141  0.00  0.00    +0.260 A 
BRANCH   2  12
ATOM     12  C   LIG    1       -1.547   6.516   2.863  0.00  0.00    +0.310 C 
BRANCH  12  14
ATOM     13  C   LIG    1       -2.016   6.059   5.274  0.00  0.00    +0.030 C 
ATOM     14  C   LIG    1       -0.916   6.321   4.244  0.00  0.00    +0.000 C 
ENDBRANCH  12  14
ENDBRANCH   2  12
ENDBRANCH   1  11
BRANCH   1  15
ATOM     15  C   LIG    1        1.093   3.512   0.010  0.00  0.00    +0.120 C 
ATOM     16  C   LIG    1        0.699   4.022  -1.377  0.00  0.00    +0.090 C 
BRANCH  15  17
ATOM     17  C   LIG    1        1.119   2.005   0.002  0.00  0.00    +0.450 A 
ATOM     18  N   LIG    1        2.275   1.365  -0.012  0.00  0.00    -0.620 NA
ATOM     19  C   LIG    1        2.301   0.034  -0.020  0.00  0.00    +0.630 A 
ATOM     20  N   LIG    1        1.163  -0.651  -0.013  0.00  0.00    -0.650 NA
ATOM     21  C   LIG    1        0.002  -0.004   0.002  0.00  0.00    +0.630 A 
ATOM     22  N   LIG    1       -0.016   1.327   0.009  0.00  0.00    -0.630 NA
BRANCH  21  23
ATOM     23  N   LIG    1       -1.183  -0.711   0.009  0.00  0.00    -0.800 N 
ATOM     24  H   LIG    1       -1.169  -1.681   0.004  0.00  0.00    +0.420 HD
ATOM     25  H   LIG    1       -2.030  -0.238   0.019  0.00  0.00    +0.420 HD
ENDBRANCH  21  23
BRANCH  19  26
ATOM     26  N   LIG    1        3.509  -0.633  -0.034  0.00  0.00    -0.580 N 
ATOM     27  C   LIG    1        4.763   0.123  -0.042  0.00  0.00    +0.310 C 
ATOM     28  C   LIG    1        3.536  -2.098  -0.042  0.00  0.00    +0.310 C 
ENDBRANCH  19  26
ENDBRANCH  15  17
ENDBRANCH   1  15
TORSDOF 7
