REMARK  Name = ZINCrH000004rSQy.0
REMARK                            x       y       z     vdW  Elec       q    Type
REMARK                         _______ _______ _______ _____ _____    ______ ____
ROOT
ATOM      1  C   LIG    1       -1.199   1.779  -0.094  0.00  0.00    +0.210 A 
ATOM      2  C   LIG    1        0.026   1.172  -0.339  0.00  0.00    +0.000 A 
ATOM      3  C   LIG    1        1.182   1.926  -0.345  0.00  0.00    +0.050 A 
ATOM      4  C   LIG    1        1.132   3.289  -0.103  0.00  0.00    +0.000 A 
ATOM      5  C   LIG    1       -0.074   3.908   0.146  0.00  0.00    +0.050 A 
ATOM      6  C   LIG    1       -1.253   3.159   0.157  0.00  0.00    -0.140 A 
ENDROOT
BRANCH   6   7
ATOM      7  C   LIG    1       -2.546   3.815   0.423  0.00  0.00    +0.560 C 
ATOM      8  N   LIG    1       -2.587   5.130   0.716  0.00  0.00    -0.720 N 
ATOM      9  H   LIG    1       -1.766   5.645   0.751  0.00  0.00    +0.400 HD
ATOM     10  O   LIG    1       -3.576   3.169   0.378  0.00  0.00    -0.490 OA
BRANCH   8  11
ATOM     11  C   LIG    1       -3.872   5.782   0.980  0.00  0.00    +0.240 C 
ATOM     12  C   LIG    1       -3.672   7.033   1.865  0.00  0.00    +0.060 C 
ATOM     13  C   LIG    1       -3.557   8.153   0.807  0.00  0.00    +0.250 C 
ATOM     14  N   LIG    1       -4.278   7.654  -0.370  0.00  0.00    -0.620 N 
ATOM     15  C   LIG    1       -4.464   6.325  -0.302  0.00  0.00    +0.510 C 
ATOM     16  O   LIG    1       -5.024   5.657  -1.146  0.00  0.00    -0.500 OA
BRANCH  14  17
ATOM     17  C   LIG    1       -4.737   8.498  -1.477  0.00  0.00    +0.240 C 
ATOM     18  C   LIG    1       -6.258   8.393  -1.602  0.00  0.00    +0.030 C 
ATOM     19  C   LIG    1       -4.085   8.029  -2.779  0.00  0.00    +0.020 C 
ENDBRANCH  14  17
ENDBRANCH   8  11
ENDBRANCH   6   7
BRANCH   1  20
ATOM     20  N   LIG    1       -2.365   1.023  -0.094  0.00  0.00    -0.690 N 
ATOM     21  H   LIG    1       -2.610   0.510   0.693  0.00  0.00    +0.410 HD
BRANCH  20  27
ATOM     22  C   LIG    1       -6.537  -0.396  -2.269  0.00  0.00    +0.080 C 
ATOM     23  C   LIG    1       -5.212   0.321  -2.309  0.00  0.00    -0.040 A 
ATOM     24  C   LIG    1       -4.806   0.957  -3.467  0.00  0.00    -0.060 A 
ATOM     25  C   LIG    1       -3.590   1.616  -3.508  0.00  0.00    +0.040 A 
ATOM     26  C   LIG    1       -2.781   1.644  -2.389  0.00  0.00    -0.080 A 
ATOM     27  C   LIG    1       -3.184   1.001  -1.226  0.00  0.00    +0.240 A 
ATOM     28  C   LIG    1       -4.405   0.340  -1.188  0.00  0.00    -0.150 A 
ATOM     29  C   LIG    1       -4.849  -0.354   0.073  0.00  0.00    +0.090 C 
ENDBRANCH  20  27
ENDBRANCH   1  20
TORSDOF 5
