REMARK  Name = ZINCrg00000fS4zq.0
REMARK                            x       y       z     vdW  Elec       q    Type
REMARK                         _______ _______ _______ _____ _____    ______ ____
ROOT
ATOM      1  N   LIG    1       -2.418   0.026   0.237  0.00  0.00    -1.000 NA
ATOM      2  C   LIG    1       -2.471   1.331  -0.444  0.00  0.00    +0.310 C 
ATOM      3  C   LIG    1       -1.283   2.160   0.041  0.00  0.00    +0.110 C 
ATOM      4  C   LIG    1       -0.016   1.350   0.009  0.00  0.00    -0.230 A 
ATOM      5  C   LIG    1        0.002  -0.004   0.002  0.00  0.00    +0.160 A 
ATOM      6  N   LIG    1        1.178  -0.651   0.014  0.00  0.00    -0.530 NA
ATOM      7  C   LIG    1        2.316  -0.014   0.015  0.00  0.00    +0.590 A 
ATOM      8  N   LIG    1        2.365   1.332   0.004  0.00  0.00    -0.530 N 
ATOM      9  C   LIG    1        1.219   2.042   0.001  0.00  0.00    +0.520 A 
ATOM     10  O   LIG    1        1.246   3.262  -0.007  0.00  0.00    -0.510 OA
ATOM     11  C   LIG    1       -1.259  -0.830  -0.035  0.00  0.00    +0.400 C 
ENDROOT
BRANCH   1  13
ATOM     12  C   LIG    1       -3.090   0.150   2.895  0.00  0.00    -0.280 C 
ATOM     13  S   LIG    1       -3.621  -0.455   1.269  0.00  0.00    +2.610 S 
ATOM     14  O   LIG    1       -3.573  -1.875   1.225  0.00  0.00    -0.950 OA
ATOM     15  O   LIG    1       -4.769   0.253   0.824  0.00  0.00    -0.950 OA
ENDBRANCH   1  13
BRANCH   8  16
ATOM     16  C   LIG    1        3.657   2.021  -0.006  0.00  0.00    +0.460 C 
BRANCH  16  17
ATOM     17  C   LIG    1        4.096   2.246  -1.430  0.00  0.00    +0.140 A 
ATOM     18  N   LIG    1        4.817   1.439  -2.149  0.00  0.00    -0.370 NA
ATOM     19  O   LIG    1        4.995   1.906  -3.254  0.00  0.00    +0.090 OA
ATOM     20  C   LIG    1        4.393   3.096  -3.345  0.00  0.00    +0.190 A 
ATOM     21  N   LIG    1        3.818   3.321  -2.188  0.00  0.00    -0.460 NA
BRANCH  20  22
ATOM     22  C   LIG    1        4.378   4.005  -4.547  0.00  0.00    +0.130 C 
ATOM     23  C   LIG    1        3.732   3.279  -5.728  0.00  0.00    +0.030 C 
ATOM     24  C   LIG    1        3.717   4.202  -6.948  0.00  0.00    +0.020 C 
ATOM     25  C   LIG    1        5.152   4.590  -7.311  0.00  0.00    +0.020 C 
ATOM     26  C   LIG    1        5.799   5.316  -6.130  0.00  0.00    +0.020 C 
ATOM     27  C   LIG    1        5.813   4.393  -4.910  0.00  0.00    +0.030 C 
ENDBRANCH  20  22
ENDBRANCH  16  17
ENDBRANCH   8  16
TORSDOF 4
