REMARK  Name = ZINCvU00000008RE.0
REMARK                            x       y       z     vdW  Elec       q    Type
REMARK                         _______ _______ _______ _____ _____    ______ ____
ROOT
ATOM      1  C   LIG    1       -4.588  -0.298  -0.519  0.00  0.00    -0.130 A 
ATOM      2  C   LIG    1       -3.425  -1.068  -0.664  0.00  0.00    +0.150 A 
ATOM      3  C   LIG    1       -2.211  -0.452  -0.776  0.00  0.00    -0.030 A 
ATOM      4  C   LIG    1       -2.125   0.936  -0.736  0.00  0.00    +0.210 A 
ATOM      5  C   LIG    1       -3.276   1.706  -0.593  0.00  0.00    -0.070 A 
ATOM      6  C   LIG    1       -4.496   1.101  -0.485  0.00  0.00    +0.190 A 
ENDROOT
BRANCH   5   7
ATOM      7  N   LIG    1       -3.177   3.182  -0.557  0.00  0.00    +0.030 N 
ATOM      8  O   LIG    1       -2.089   3.722  -0.652  0.00  0.00    -0.130 OA
ATOM      9  O   LIG    1       -4.183   3.857  -0.432  0.00  0.00    -0.160 OA
ENDBRANCH   5   7
BRANCH   1  11
ATOM     10  C   LIG    1       -6.006  -2.152   0.263  0.00  0.00    -0.120 C 
ATOM     11  C   LIG    1       -5.893  -0.952  -0.405  0.00  0.00    +0.250 C 
BRANCH  10  12
ATOM     12  C   LIG    1       -7.279  -2.888   0.241  0.00  0.00    +0.570 C 
ATOM     13  N   LIG    1       -7.390  -4.062   0.895  0.00  0.00    -0.720 N 
ATOM     14  H   LIG    1       -6.630  -4.421   1.379  0.00  0.00    +0.400 HD
ATOM     15  O   LIG    1       -8.232  -2.438  -0.366  0.00  0.00    -0.520 OA
BRANCH  13  16
ATOM     16  C   LIG    1       -8.658  -4.796   0.873  0.00  0.00    +0.320 C 
BRANCH  16  17
ATOM     17  C   LIG    1       -8.518  -6.065   1.673  0.00  0.00    -0.120 A 
ATOM     18  C   LIG    1       -8.105  -7.230   1.053  0.00  0.00    +0.020 A 
ATOM     19  C   LIG    1       -7.972  -8.394   1.788  0.00  0.00    +0.010 A 
ATOM     20  C   LIG    1       -8.261  -8.394   3.140  0.00  0.00    +0.010 A 
ATOM     21  C   LIG    1       -8.678  -7.231   3.758  0.00  0.00    +0.010 A 
ATOM     22  C   LIG    1       -8.806  -6.066   3.025  0.00  0.00    +0.030 A 
ENDBRANCH  16  17
ENDBRANCH  13  16
ENDBRANCH  10  12
BRANCH  10  24
ATOM     23  N   LIG    1       -3.994  -3.102   1.546  0.00  0.00    -0.390 NA
ATOM     24  C   LIG    1       -4.884  -2.682   0.978  0.00  0.00    +0.240 C 
ENDBRANCH  10  24
ENDBRANCH   1  11
BRANCH   4  25
ATOM     25  O   LIG    1       -0.916   1.542  -0.842  0.00  0.00    -0.210 OA
BRANCH  25  26
ATOM     26  C   LIG    1        0.166   0.764  -1.110  0.00  0.00    +0.070 A 
ATOM     27  C   LIG    1        0.982   0.328  -0.077  0.00  0.00    +0.050 A 
ATOM     28  C   LIG    1        2.078  -0.468  -0.352  0.00  0.00    +0.040 A 
ATOM     29  C   LIG    1        2.362  -0.829  -1.655  0.00  0.00    +0.050 A 
ATOM     30  C   LIG    1        1.552  -0.395  -2.688  0.00  0.00    +0.050 A 
ATOM     31  C   LIG    1        0.454   0.400  -2.419  0.00  0.00    -0.040 A 
ATOM     32 CL   LIG    1       -0.565   0.943  -3.716  0.00  0.00    -0.040 Cl
ENDBRANCH  25  26
ENDBRANCH   4  25
TORSDOF 8
