REMARK  Name = ZINCpk00000xI9R3.0
REMARK                            x       y       z     vdW  Elec       q    Type
REMARK                         _______ _______ _______ _____ _____    ______ ____
ROOT
ATOM      1  S   LIG    1       -4.678  -1.051  -0.644  0.00  0.00    +2.700 S 
ATOM      2  O   LIG    1       -3.694  -1.323  -1.632  0.00  0.00    -0.960 OA
ATOM      3  O   LIG    1       -5.928  -0.442  -0.939  0.00  0.00    -0.940 OA
ENDROOT
BRANCH   1   8
ATOM      4  C   LIG    1       -5.341  -5.424   2.776  0.00  0.00    +0.650 C 
ATOM      5  N   LIG    1       -5.061  -4.246   2.184  0.00  0.00    -0.590 N 
ATOM      6  C   LIG    1       -6.035  -3.147   2.206  0.00  0.00    +0.310 C 
ATOM      7  C   LIG    1       -6.309  -2.705   0.763  0.00  0.00    +0.310 C 
ATOM      8  N   LIG    1       -5.023  -2.498   0.084  0.00  0.00    -0.990 NA
ATOM      9  C   LIG    1       -4.050  -3.599   0.057  0.00  0.00    +0.290 C 
ATOM     10  C   LIG    1       -3.774  -4.039   1.504  0.00  0.00    +0.290 C 
ATOM     11  O   LIG    1       -6.409  -5.585   3.334  0.00  0.00    -0.570 OA
BRANCH   4  12
ATOM     12  O   LIG    1       -4.439  -6.423   2.748  0.00  0.00    -0.370 OA
BRANCH  12  14
ATOM     13  C   LIG    1       -3.667  -8.673   3.271  0.00  0.00    +0.070 C 
ATOM     14  C   LIG    1       -4.809  -7.664   3.406  0.00  0.00    +0.220 C 
ENDBRANCH  12  14
ENDBRANCH   4  12
ENDBRANCH   1   8
BRANCH   1  15
ATOM     15  C   LIG    1       -3.901  -0.031   0.564  0.00  0.00    -0.680 A 
ATOM     16  C   LIG    1       -2.589   0.364   0.394  0.00  0.00    +0.070 A 
ATOM     17  C   LIG    1       -1.976   1.163   1.348  0.00  0.00    +0.070 A 
ATOM     18  C   LIG    1       -2.684   1.575   2.467  0.00  0.00    -0.020 A 
ATOM     19  C   LIG    1       -3.999   1.184   2.634  0.00  0.00    -0.040 A 
ATOM     20  C   LIG    1       -2.020   2.448   3.500  0.00  0.00    +0.110 C 
ATOM     21  C   LIG    1       -4.610   0.381   1.683  0.00  0.00    +0.200 A 
BRANCH  17  22
ATOM     22  O   LIG    1       -0.682   1.547   1.184  0.00  0.00    -0.310 OA
ATOM     23  C   LIG    1       -0.013   1.086   0.008  0.00  0.00    +0.250 C 
ENDBRANCH  17  22
BRANCH  21  24
ATOM     24  O   LIG    1       -5.904  -0.002   1.848  0.00  0.00    -0.310 OA
ATOM     25  C   LIG    1       -6.573   0.459   3.023  0.00  0.00    +0.250 C 
ENDBRANCH  21  24
ENDBRANCH   1  15
TORSDOF 6
