REMARK  Name = ZINCrH000004mDNm.0
REMARK                            x       y       z     vdW  Elec       q    Type
REMARK                         _______ _______ _______ _____ _____    ______ ____
ROOT
ATOM      1  N   LIG    1        2.123   0.034   1.224  0.00  0.00    -0.530 NA
ATOM      2  C   LIG    1        0.757  -0.508   1.234  0.00  0.00    +0.180 C 
ATOM      3  C   LIG    1        0.002  -0.004   0.002  0.00  0.00    +0.180 C 
ATOM      4  N   LIG    1       -0.018   1.465   0.010  0.00  0.00    -0.530 NA
ATOM      5  C   LIG    1        1.348   2.008   0.000  0.00  0.00    +0.180 C 
ATOM      6  C   LIG    1        2.103   1.504   1.232  0.00  0.00    +0.180 C 
ENDROOT
BRANCH   1   7
ATOM      7  C   LIG    1        2.905  -0.488   2.352  0.00  0.00    +0.230 C 
BRANCH   7  11
ATOM      8  C   LIG    1        6.598   1.651   2.639  0.00  0.00    +0.100 A 
ATOM      9  C   LIG    1        6.515   0.506   1.863  0.00  0.00    -0.030 A 
ATOM     10  C   LIG    1        5.322  -0.186   1.777  0.00  0.00    +0.040 A 
ATOM     11  C   LIG    1        4.205   0.267   2.455  0.00  0.00    -0.080 A 
ATOM     12  C   LIG    1        4.281   1.410   3.230  0.00  0.00    -0.040 A 
ATOM     13  C   LIG    1        5.475   2.105   3.325  0.00  0.00    +0.100 A 
BRANCH   8  15
ATOM     14  C   LIG    1        8.882   1.807   1.997  0.00  0.00    +0.250 C 
ATOM     15  O   LIG    1        7.772   2.331   2.728  0.00  0.00    -0.310 OA
ENDBRANCH   8  15
BRANCH  13  16
ATOM     16  O   LIG    1        5.550   3.229   4.087  0.00  0.00    -0.310 OA
ATOM     17  C   LIG    1        4.359   3.636   4.763  0.00  0.00    +0.230 C 
ENDBRANCH  13  16
ENDBRANCH   7  11
ENDBRANCH   1   7
BRANCH   4  18
ATOM     18  C   LIG    1       -0.800   1.987  -1.118  0.00  0.00    +0.270 C 
BRANCH  18  19
ATOM     19  C   LIG    1       -1.005   3.470  -0.944  0.00  0.00    +0.080 A 
ATOM     20  C   LIG    1       -0.208   4.382  -1.509  0.00  0.00    -0.100 A 
ATOM     21  S   LIG    1       -0.799   5.977  -1.052  0.00  0.00    +0.120 S 
ATOM     22  C   LIG    1       -2.060   5.260  -0.146  0.00  0.00    +0.060 A 
ATOM     23  N   LIG    1       -1.989   3.974  -0.226  0.00  0.00    -0.450 NA
BRANCH  22  24
ATOM     24  C   LIG    1       -3.106   6.020   0.628  0.00  0.00    +0.010 C 
ATOM     25  C   LIG    1       -4.494   5.670   0.088  0.00  0.00    +0.070 C 
ATOM     26  C   LIG    1       -2.862   7.522   0.475  0.00  0.00    +0.040 C 
ATOM     27  C   LIG    1       -3.023   5.637   2.108  0.00  0.00    +0.070 C 
ENDBRANCH  22  24
ENDBRANCH  18  19
ENDBRANCH   4  18
TORSDOF 7
