REMARK  Name = ZINCpe000000TEXV.0
REMARK                            x       y       z     vdW  Elec       q    Type
REMARK                         _______ _______ _______ _____ _____    ______ ____
ROOT
ATOM      1  N   LIG    1       -6.883  -0.236   1.223  0.00  0.00    -0.510 NA
ENDROOT
BRANCH   1   2
ATOM      2  C   LIG    1       -6.008   0.906   1.517  0.00  0.00    +0.180 C 
ATOM      3  C   LIG    1       -4.665   0.714   0.809  0.00  0.00    +0.040 C 
BRANCH   2   4
ATOM      4  C   LIG    1       -6.656   2.176   1.029  0.00  0.00    -0.100 A 
ATOM      5  C   LIG    1       -7.009   2.304  -0.302  0.00  0.00    +0.090 A 
ATOM      6  C   LIG    1       -7.608   3.467  -0.749  0.00  0.00    -0.010 A 
ATOM      7  C   LIG    1       -7.846   4.505   0.133  0.00  0.00    +0.000 A 
ATOM      8  C   LIG    1       -7.488   4.378   1.462  0.00  0.00    -0.020 A 
ATOM      9  C   LIG    1       -6.893   3.214   1.910  0.00  0.00    -0.010 A 
ENDBRANCH   2   4
ENDBRANCH   1   2
BRANCH   1  10
ATOM     10  C   LIG    1       -8.151  -0.131   1.959  0.00  0.00    +0.260 C 
BRANCH  10  11
ATOM     11  C   LIG    1       -9.173   0.568   1.101  0.00  0.00    +0.450 C 
ATOM     12  O   LIG    1       -8.926   0.811  -0.057  0.00  0.00    -0.460 OA
BRANCH  11  13
ATOM     13  O   LIG    1      -10.359   0.921   1.622  0.00  0.00    -0.370 OA
BRANCH  13  15
ATOM     14  C   LIG    1      -12.580   1.912   1.503  0.00  0.00    +0.070 C 
ATOM     15  C   LIG    1      -11.295   1.590   0.737  0.00  0.00    +0.210 C 
ENDBRANCH  13  15
ENDBRANCH  11  13
ENDBRANCH  10  11
ENDBRANCH   1  10
BRANCH   1  16
ATOM     16  C   LIG    1       -6.208  -1.507   1.517  0.00  0.00    +0.290 C 
BRANCH  16  17
ATOM     17  C   LIG    1       -5.317  -1.881   0.361  0.00  0.00    -0.010 A 
ATOM     18  C   LIG    1       -4.349  -2.827   0.358  0.00  0.00    +0.130 A 
ATOM     19  N   LIG    1       -3.813  -2.814  -0.884  0.00  0.00    -0.290 N 
ATOM     20  N   LIG    1       -4.428  -1.922  -1.580  0.00  0.00    -0.060 NA
ATOM     21  N   LIG    1       -5.331  -1.348  -0.866  0.00  0.00    -0.220 NA
BRANCH  19  22
ATOM     22  C   LIG    1       -2.723  -3.671  -1.359  0.00  0.00    +0.370 C 
BRANCH  22  23
ATOM     23  C   LIG    1       -3.164  -4.404  -2.599  0.00  0.00    +0.500 C 
ATOM     24  O   LIG    1       -4.279  -4.228  -3.044  0.00  0.00    -0.510 OA
ATOM     25  N   LIG    1       -2.318  -5.251  -3.218  0.00  0.00    -0.850 N 
ATOM     26  H   LIG    1       -1.427  -5.392  -2.863  0.00  0.00    +0.400 HD
ATOM     27  H   LIG    1       -2.601  -5.720  -4.019  0.00  0.00    +0.410 HD
ENDBRANCH  22  23
ENDBRANCH  19  22
ENDBRANCH  16  17
ENDBRANCH   1  16
TORSDOF 10
