REMARK  Name = ZINCvU0000000FJ8.0
REMARK                            x       y       z     vdW  Elec       q    Type
REMARK                         _______ _______ _______ _____ _____    ______ ____
ROOT
ATOM      1  C   LIG    1       -0.017   1.506   0.040  0.00  0.00    +0.430 A 
ATOM      2  N   LIG    1       -1.170   2.116   0.041  0.00  0.00    -0.540 NA
ATOM      3  C   LIG    1       -1.252   3.456   0.054  0.00  0.00    +0.540 A 
ATOM      4  C   LIG    1       -0.005   4.245   0.057  0.00  0.00    -0.210 A 
ATOM      5  C   LIG    1        1.188   3.546   0.051  0.00  0.00    +0.060 A 
ATOM      6  S   LIG    1        2.542   4.665   0.056  0.00  0.00    +0.190 S 
ATOM      7  C   LIG    1        1.479   6.060   0.066  0.00  0.00    -0.030 A 
ATOM      8  C   LIG    1        0.200   5.687   0.066  0.00  0.00    +0.010 A 
ATOM      9  O   LIG    1       -2.339   4.012   0.059  0.00  0.00    -0.460 OA
ATOM     10  N   LIG    1        1.150   2.168   0.043  0.00  0.00    -0.590 N 
ATOM     11  H   LIG    1        1.982   1.668   0.038  0.00  0.00    +0.420 HD
ENDROOT
BRANCH   8  12
ATOM     12  C   LIG    1       -0.921   6.658   0.073  0.00  0.00    -0.030 A 
ATOM     13  C   LIG    1       -1.117   7.507  -1.014  0.00  0.00    +0.040 A 
ATOM     14  C   LIG    1       -2.162   8.409  -1.002  0.00  0.00    +0.010 A 
ATOM     15  C   LIG    1       -3.014   8.471   0.085  0.00  0.00    +0.030 A 
ATOM     16  C   LIG    1       -2.825   7.630   1.168  0.00  0.00    +0.020 A 
ATOM     17  C   LIG    1       -1.786   6.720   1.165  0.00  0.00    +0.010 A 
ATOM     18 CL   LIG    1       -1.555   5.661   2.521  0.00  0.00    -0.060 Cl
ENDBRANCH   8  12
BRANCH   1  19
ATOM     19  C   LIG    1        0.004  -0.001   0.031  0.00  0.00    +0.300 C 
BRANCH  19  21
ATOM     20  C   LIG    1       -2.062  -0.163  -1.221  0.00  0.00    +0.220 C 
ATOM     21  N   LIG    1       -1.373  -0.510   0.029  0.00  0.00    -0.500 NA
BRANCH  21  22
ATOM     22  C   LIG    1       -1.398  -1.961   0.258  0.00  0.00    +0.220 C 
BRANCH  22  23
ATOM     23  C   LIG    1       -2.818  -2.408   0.495  0.00  0.00    +0.510 C 
ATOM     24  N   LIG    1       -3.084  -3.708   0.729  0.00  0.00    -0.670 N 
ATOM     25  H   LIG    1       -2.376  -4.368   0.666  0.00  0.00    +0.410 HD
ATOM     26  O   LIG    1       -3.720  -1.598   0.475  0.00  0.00    -0.480 OA
BRANCH  24  27
ATOM     27  C   LIG    1       -4.384  -4.107   1.063  0.00  0.00    +0.160 A 
ATOM     28  C   LIG    1       -5.260  -3.204   1.649  0.00  0.00    +0.040 A 
ATOM     29  C   LIG    1       -6.542  -3.600   1.977  0.00  0.00    +0.040 A 
ATOM     30  C   LIG    1       -6.954  -4.894   1.722  0.00  0.00    +0.000 A 
ATOM     31  C   LIG    1       -6.085  -5.798   1.138  0.00  0.00    +0.050 A 
ATOM     32  C   LIG    1       -4.803  -5.407   0.803  0.00  0.00    -0.070 A 
ATOM     33 CL   LIG    1       -3.714  -6.539   0.064  0.00  0.00    -0.070 Cl
ENDBRANCH  24  27
ENDBRANCH  22  23
ENDBRANCH  21  22
ENDBRANCH  19  21
ENDBRANCH   1  19
TORSDOF 6
