REMARK  Name = ZINCpk00000GGKIZ.0
REMARK                            x       y       z     vdW  Elec       q    Type
REMARK                         _______ _______ _______ _____ _____    ______ ____
ROOT
ATOM      1  N   LIG    1       -0.688   4.244   4.675  0.00  0.00    -0.290 N 
ATOM      2  C   LIG    1       -0.190   3.185   5.354  0.00  0.00    +0.170 A 
ATOM      3  C   LIG    1       -0.523   3.378   6.652  0.00  0.00    -0.020 A 
ATOM      4  N   LIG    1       -1.207   4.527   6.701  0.00  0.00    -0.250 NA
ATOM      5  N   LIG    1       -1.288   5.015   5.514  0.00  0.00    -0.080 NA
ENDROOT
BRANCH   1   7
ATOM      6  C   LIG    1       -1.599   3.613   2.453  0.00  0.00    +0.160 C 
ATOM      7  C   LIG    1       -0.572   4.471   3.233  0.00  0.00    +0.210 C 
ATOM      8  C   LIG    1        0.778   3.931   2.695  0.00  0.00    +0.240 C 
ATOM      9  O   LIG    1        0.506   3.668   1.301  0.00  0.00    -0.340 OA
ATOM     10  C   LIG    1       -0.812   3.106   1.232  0.00  0.00    +0.110 C 
ATOM     11  C   LIG    1       -0.730   1.580   1.268  0.00  0.00    -0.000 C 
ATOM     12  C   LIG    1       -0.013   1.086   0.008  0.00  0.00    +0.230 C 
ATOM     13  O   LIG    1       -0.705   1.560  -1.149  0.00  0.00    -0.380 OA
ATOM     14  C   LIG    1       -0.756   2.984  -1.258  0.00  0.00    +0.220 C 
ATOM     15  C   LIG    1       -1.505   3.559  -0.053  0.00  0.00    +0.050 C 
BRANCH   6  16
ATOM     16  O   LIG    1       -2.707   4.413   2.038  0.00  0.00    -0.540 OA
ATOM     17  H   LIG    1       -3.238   4.760   2.768  0.00  0.00    +0.390 HD
ENDBRANCH   6  16
ENDBRANCH   1   7
BRANCH   3  18
ATOM     18  C   LIG    1       -0.194   2.474   7.811  0.00  0.00    +0.290 C 
BRANCH  18  19
ATOM     19  O   LIG    1        0.550   1.348   7.341  0.00  0.00    -0.380 OA
BRANCH  19  20
ATOM     20  C   LIG    1        0.915   0.423   8.367  0.00  0.00    +0.230 C 
BRANCH  20  21
ATOM     21  C   LIG    1        1.691  -0.719   7.761  0.00  0.00    -0.090 A 
ATOM     22  C   LIG    1        1.027  -1.844   7.312  0.00  0.00    +0.020 A 
ATOM     23  C   LIG    1        1.738  -2.889   6.751  0.00  0.00    +0.000 A 
ATOM     24  C   LIG    1        3.115  -2.812   6.651  0.00  0.00    +0.010 A 
ATOM     25  C   LIG    1        3.779  -1.689   7.106  0.00  0.00    +0.000 A 
ATOM     26  C   LIG    1        3.068  -0.642   7.661  0.00  0.00    +0.020 A 
ENDBRANCH  20  21
ENDBRANCH  19  20
ENDBRANCH  18  19
ENDBRANCH   3  18
TORSDOF 6
