REMARK  Name = ZINCrH000004tcJR.1
REMARK                            x       y       z     vdW  Elec       q    Type
REMARK                         _______ _______ _______ _____ _____    ______ ____
ROOT
ATOM      1  C   LIG    1        2.442   5.229   0.774  0.00  0.00    +0.210 A 
ATOM      2  N   LIG    1        3.439   5.735   1.437  0.00  0.00    -0.370 NA
ATOM      3  O   LIG    1        3.113   6.784   1.951  0.00  0.00    +0.090 OA
ATOM      4  C   LIG    1        1.838   7.056   1.655  0.00  0.00    +0.180 A 
ATOM      5  N   LIG    1        1.404   6.074   0.903  0.00  0.00    -0.470 NA
ENDROOT
BRANCH   4   6
ATOM      6  C   LIG    1        1.052   8.262   2.098  0.00  0.00    +0.230 C 
ATOM      7  C   LIG    1        1.004   8.314   3.631  0.00  0.00    +0.050 C 
ATOM      8  C   LIG    1        0.439   9.666   4.080  0.00  0.00    +0.050 C 
ATOM      9  C   LIG    1        1.458  10.774   3.781  0.00  0.00    +0.140 C 
ATOM     10  C   LIG    1        1.906  10.631   2.350  0.00  0.00    +0.010 A 
ATOM     11  N   LIG    1        2.531  11.512   1.575  0.00  0.00    -0.250 NA
ATOM     12  N   LIG    1        2.723  10.978   0.416  0.00  0.00    -0.070 NA
ATOM     13  N   LIG    1        2.250   9.777   0.394  0.00  0.00    -0.380 N 
ATOM     14  H   LIG    1        2.271   9.169  -0.362  0.00  0.00    +0.450 HD
ATOM     15  C   LIG    1        1.723   9.515   1.603  0.00  0.00    -0.030 A 
ENDBRANCH   4   6
BRANCH   1  16
ATOM     16  C   LIG    1        2.451   3.937  -0.001  0.00  0.00    -0.020 C 
ATOM     17  C   LIG    1        3.298   3.882  -1.274  0.00  0.00    +0.080 C 
ATOM     18  C   LIG    1        3.752   3.132  -0.019  0.00  0.00    +0.080 C 
BRANCH  16  23
ATOM     19  C   LIG    1       -1.238   3.133   0.030  0.00  0.00    -0.180 A 
ATOM     20  C   LIG    1       -1.219   1.751   0.017  0.00  0.00    +0.070 A 
ATOM     21  C   LIG    1       -0.013   1.076   0.008  0.00  0.00    +0.020 A 
ATOM     22  C   LIG    1        1.175   1.783   0.000  0.00  0.00    +0.060 A 
ATOM     23  C   LIG    1        1.156   3.166   0.008  0.00  0.00    -0.050 A 
ATOM     24  C   LIG    1       -0.050   3.840   0.023  0.00  0.00    +0.100 A 
BRANCH  19  26
ATOM     25  F   LIG    1       -2.973   4.104  -1.266  0.00  0.00    -0.180 F 
ATOM     26  C   LIG    1       -2.553   3.868   0.047  0.00  0.00    +0.510 C 
ATOM     27  F   LIG    1       -2.396   5.089   0.712  0.00  0.00    -0.170 F 
ATOM     28  F   LIG    1       -3.511   3.095   0.712  0.00  0.00    -0.180 F 
ENDBRANCH  19  26
ENDBRANCH  16  23
ENDBRANCH   1  16
TORSDOF 4
