REMARK  Name = ZINCrH000004tcJR.0
REMARK                            x       y       z     vdW  Elec       q    Type
REMARK                         _______ _______ _______ _____ _____    ______ ____
ROOT
ATOM      1  C   LIG    1        2.442   5.230   0.772  0.00  0.00    +0.210 A 
ATOM      2  N   LIG    1        3.437   5.734   1.440  0.00  0.00    -0.370 NA
ATOM      3  O   LIG    1        3.111   6.786   1.948  0.00  0.00    +0.090 OA
ATOM      4  C   LIG    1        1.837   7.057   1.652  0.00  0.00    +0.200 A 
ATOM      5  N   LIG    1        1.402   6.072   0.903  0.00  0.00    -0.470 NA
ENDROOT
BRANCH   4   6
ATOM      6  C   LIG    1        1.050   8.264   2.093  0.00  0.00    +0.240 C 
ATOM      7  C   LIG    1        1.016   8.328   3.626  0.00  0.00    +0.050 C 
ATOM      8  C   LIG    1        0.438   9.672   4.076  0.00  0.00    +0.050 C 
ATOM      9  C   LIG    1        1.448  10.792   3.793  0.00  0.00    +0.140 C 
ATOM     10  C   LIG    1        1.900  10.667   2.363  0.00  0.00    +0.030 A 
ATOM     11  N   LIG    1        2.505  11.528   1.596  0.00  0.00    -0.270 NA
ATOM     12  N   LIG    1        2.689  10.986   0.439  0.00  0.00    -0.260 N 
ATOM     13  H   LIG    1        3.119  11.423  -0.312  0.00  0.00    +0.470 HD
ATOM     14  N   LIG    1        2.221   9.783   0.417  0.00  0.00    -0.260 NA
ATOM     15  C   LIG    1        1.715   9.517   1.587  0.00  0.00    -0.000 A 
ENDBRANCH   4   6
BRANCH   1  16
ATOM     16  C   LIG    1        2.451   3.937  -0.001  0.00  0.00    -0.020 C 
ATOM     17  C   LIG    1        3.299   3.880  -1.274  0.00  0.00    +0.070 C 
ATOM     18  C   LIG    1        3.752   3.132  -0.018  0.00  0.00    +0.070 C 
BRANCH  16  23
ATOM     19  C   LIG    1       -1.238   3.133   0.030  0.00  0.00    -0.180 A 
ATOM     20  C   LIG    1       -1.219   1.751   0.017  0.00  0.00    +0.070 A 
ATOM     21  C   LIG    1       -0.013   1.076   0.008  0.00  0.00    +0.020 A 
ATOM     22  C   LIG    1        1.175   1.783   0.000  0.00  0.00    +0.060 A 
ATOM     23  C   LIG    1        1.156   3.166   0.008  0.00  0.00    -0.050 A 
ATOM     24  C   LIG    1       -0.050   3.840   0.022  0.00  0.00    +0.100 A 
BRANCH  19  26
ATOM     25  F   LIG    1       -2.973   4.103  -1.267  0.00  0.00    -0.180 F 
ATOM     26  C   LIG    1       -2.553   3.868   0.047  0.00  0.00    +0.510 C 
ATOM     27  F   LIG    1       -2.396   5.090   0.711  0.00  0.00    -0.170 F 
ATOM     28  F   LIG    1       -3.511   3.096   0.712  0.00  0.00    -0.180 F 
ENDBRANCH  19  26
ENDBRANCH  16  23
ENDBRANCH   1  16
TORSDOF 4
