REMARK  Name = ZINCpe00000MJJu6.0
REMARK                            x       y       z     vdW  Elec       q    Type
REMARK                         _______ _______ _______ _____ _____    ______ ____
ROOT
ATOM      1  N   LIG    1        5.436   1.486   1.294  0.00  0.00    -1.000 NA
ATOM      2  C   LIG    1        5.934   2.393   0.250  0.00  0.00    +0.310 C 
ATOM      3  C   LIG    1        5.362   1.944  -1.099  0.00  0.00    +0.190 C 
ATOM      4  N   LIG    1        3.900   1.853  -1.002  0.00  0.00    -0.530 NA
ATOM      5  C   LIG    1        3.493   0.832  -0.026  0.00  0.00    +0.260 C 
ATOM      6  C   LIG    1        3.300   1.592  -2.317  0.00  0.00    +0.190 C 
ATOM      7  C   LIG    1        3.988   1.236   1.367  0.00  0.00    +0.330 C 
ENDROOT
BRANCH   5   8
ATOM      8  C   LIG    1        1.990   0.720  -0.013  0.00  0.00    +0.190 A 
ATOM      9  N   LIG    1        1.291  -0.389  -0.012  0.00  0.00    -0.480 NA
ATOM     10  C   LIG    1        0.002  -0.004   0.002  0.00  0.00    +0.170 A 
ATOM     11  N   LIG    1       -0.015   1.295   0.009  0.00  0.00    -0.380 NA
ATOM     12  C   LIG    1       -1.200  -0.912   0.009  0.00  0.00    +0.210 C 
ATOM     13  O   LIG    1        1.117   1.731   0.001  0.00  0.00    +0.100 OA
ENDBRANCH   5   8
BRANCH   1  14
ATOM     14  S   LIG    1        6.477   0.763   2.359  0.00  0.00    +2.720 S 
ATOM     15  O   LIG    1        5.711   0.436   3.510  0.00  0.00    -0.960 OA
ATOM     16  O   LIG    1        7.637   1.582   2.405  0.00  0.00    -0.950 OA
BRANCH  14  20
ATOM     17  N   LIG    1        7.049  -2.880   1.096  0.00  0.00    -0.350 N 
ATOM     18  N   LIG    1        8.127  -2.230   0.480  0.00  0.00    -0.290 NA
ATOM     19  C   LIG    1        8.082  -0.964   0.809  0.00  0.00    +0.160 A 
ATOM     20  C   LIG    1        6.977  -0.768   1.643  0.00  0.00    -0.830 A 
ATOM     21  C   LIG    1        9.054   0.099   0.366  0.00  0.00    +0.170 C 
ATOM     22  C   LIG    1        6.362  -1.962   1.808  0.00  0.00    +0.220 A 
ATOM     23  C   LIG    1        5.130  -2.220   2.635  0.00  0.00    +0.180 C 
BRANCH  17  25
ATOM     24  C   LIG    1        7.440  -5.072   2.107  0.00  0.00    +0.040 C 
ATOM     25  C   LIG    1        6.729  -4.305   0.991  0.00  0.00    +0.320 C 
ENDBRANCH  17  25
ENDBRANCH  14  20
ENDBRANCH   1  14
TORSDOF 4
