REMARK  Name = ZINCtV00000L6jfK.0
REMARK                            x       y       z     vdW  Elec       q    Type
REMARK                         _______ _______ _______ _____ _____    ______ ____
ROOT
ATOM      1  C   LIG    1        2.496   1.131  -0.010  0.00  0.00    +0.110 A 
ATOM      2  N   LIG    1        3.364   2.121  -0.019  0.00  0.00    -0.260 NA
ATOM      3  N   LIG    1        2.653   3.328  -0.005  0.00  0.00    -0.320 N 
ATOM      4  C   LIG    1        1.322   3.035   0.006  0.00  0.00    +0.260 A 
ATOM      5  C   LIG    1        1.196   1.685  -0.000  0.00  0.00    +0.020 A 
ENDROOT
BRANCH   1   9
ATOM      6  C   LIG    1        3.440  -3.015  -0.021  0.00  0.00    -0.070 A 
ATOM      7  C   LIG    1        4.240  -2.124  -0.714  0.00  0.00    +0.020 A 
ATOM      8  C   LIG    1        3.939  -0.777  -0.714  0.00  0.00    +0.050 A 
ATOM      9  C   LIG    1        2.825  -0.316  -0.014  0.00  0.00    -0.020 A 
ATOM     10  C   LIG    1        2.026  -1.217   0.687  0.00  0.00    +0.020 A 
ATOM     11  C   LIG    1        2.334  -2.562   0.675  0.00  0.00    +0.020 A 
BRANCH   6  12
ATOM     12  C   LIG    1        3.775  -4.484  -0.026  0.00  0.00    +0.060 C 
BRANCH  12  14
ATOM     13  C   LIG    1        5.043  -6.291   1.144  0.00  0.00    +0.020 C 
ATOM     14  C   LIG    1        4.703  -4.800   1.149  0.00  0.00    +0.000 C 
ENDBRANCH  12  14
ENDBRANCH   6  12
ENDBRANCH   1   9
BRANCH   3  15
ATOM     15  C   LIG    1        3.212   4.612  -0.003  0.00  0.00    +0.170 A 
ATOM     16  C   LIG    1        2.388   5.730   0.007  0.00  0.00    -0.010 A 
ATOM     17  C   LIG    1        2.943   6.995   0.016  0.00  0.00    +0.040 A 
ATOM     18  C   LIG    1        4.317   7.149   0.003  0.00  0.00    +0.000 A 
ATOM     19  C   LIG    1        5.140   6.038  -0.013  0.00  0.00    +0.040 A 
ATOM     20  C   LIG    1        4.592   4.770  -0.015  0.00  0.00    +0.020 A 
ENDBRANCH   3  15
BRANCH   5  21
ATOM     21  N   LIG    1       -0.011   0.966   0.007  0.00  0.00    -0.620 N 
ATOM     22  H   LIG    1        0.002  -0.004   0.002  0.00  0.00    +0.430 HD
BRANCH  21  23
ATOM     23  C   LIG    1       -1.225   1.645   0.017  0.00  0.00    +0.420 A 
ATOM     24  N   LIG    1       -1.236   2.969   0.024  0.00  0.00    -0.510 NA
ATOM     25  C   LIG    1       -2.366   3.652   0.033  0.00  0.00    +0.350 A 
ATOM     26  C   LIG    1       -3.586   3.004   0.035  0.00  0.00    -0.140 A 
ATOM     27  C   LIG    1       -3.618   1.615   0.028  0.00  0.00    +0.150 A 
ATOM     28 CL   LIG    1       -5.063   3.916   0.047  0.00  0.00    -0.040 Cl
ATOM     29  C   LIG    1       -2.418   0.926   0.013  0.00  0.00    -0.140 A 
ATOM     30 CL   LIG    1       -2.399  -0.810  -0.004  0.00  0.00    -0.040 Cl
ENDBRANCH  21  23
ENDBRANCH   5  21
TORSDOF 6
