REMARK  Name = ZINCqH00000098Bl.0
REMARK                            x       y       z     vdW  Elec       q    Type
REMARK                         _______ _______ _______ _____ _____    ______ ____
ROOT
ATOM      1  C   LIG    1       -1.192   3.644  -0.016  0.00  0.00    +0.200 C 
ENDROOT
BRANCH   1   4
ATOM      2  N   LIG    1        0.678   3.323   1.571  0.00  0.00    -0.730 N 
ATOM      3  H   LIG    1        1.227   3.048   0.821  0.00  0.00    +0.400 HD
ATOM      4  C   LIG    1       -0.608   3.673   1.373  0.00  0.00    +0.520 C 
ATOM      5  O   LIG    1       -1.296   4.012   2.313  0.00  0.00    -0.510 OA
BRANCH   2   7
ATOM      6  C   LIG    1        0.924   2.038   3.638  0.00  0.00    +0.040 C 
ATOM      7  C   LIG    1        1.245   3.352   2.922  0.00  0.00    +0.290 C 
BRANCH   7   8
ATOM      8  C   LIG    1        2.740   3.525   2.836  0.00  0.00    -0.100 A 
ATOM      9  C   LIG    1        3.458   2.853   1.863  0.00  0.00    +0.040 A 
ATOM     10  C   LIG    1        4.828   3.015   1.780  0.00  0.00    -0.010 A 
ATOM     11  C   LIG    1        5.482   3.841   2.678  0.00  0.00    +0.100 A 
ATOM     12  C   LIG    1        4.763   4.509   3.654  0.00  0.00    -0.010 A 
ATOM     13  F   LIG    1        6.822   3.996   2.600  0.00  0.00    -0.140 F 
ATOM     14  C   LIG    1        3.393   4.350   3.732  0.00  0.00    +0.060 A 
ENDBRANCH   7   8
ENDBRANCH   2   7
ENDBRANCH   1   4
BRANCH   1  15
ATOM     15  N   LIG    1       -2.621   3.979   0.046  0.00  0.00    -0.510 NA
BRANCH  15  16
ATOM     16  C   LIG    1       -3.324   3.511  -1.156  0.00  0.00    +0.200 C 
BRANCH  16  17
ATOM     17  C   LIG    1       -3.529   1.997  -1.070  0.00  0.00    +0.140 C 
ATOM     18  C   LIG    1       -4.248   1.479  -2.335  0.00  0.00    +0.010 C 
ATOM     19  C   LIG    1       -5.189   0.373  -1.806  0.00  0.00    +0.010 C 
ATOM     20  C   LIG    1       -4.928   0.355  -0.284  0.00  0.00    +0.190 C 
ATOM     21  O   LIG    1       -4.420   1.672   0.020  0.00  0.00    -0.350 OA
ENDBRANCH  16  17
ENDBRANCH  15  16
BRANCH  15  22
ATOM     22  C   LIG    1       -2.815   5.422   0.241  0.00  0.00    +0.270 C 
BRANCH  22  23
ATOM     23  C   LIG    1       -4.266   5.696   0.544  0.00  0.00    -0.170 A 
ATOM     24  C   LIG    1       -4.806   5.714   1.763  0.00  0.00    +0.030 A 
ATOM     25  C   LIG    1       -6.162   5.994   1.796  0.00  0.00    +0.010 A 
ATOM     26  C   LIG    1       -6.723   6.193   0.603  0.00  0.00    -0.050 A 
ATOM     27  S   LIG    1       -5.506   6.035  -0.656  0.00  0.00    +0.080 S 
ENDBRANCH  22  23
ENDBRANCH  15  22
ENDBRANCH   1  15
TORSDOF 8
