REMARK  Name = ZINCpe00000VVGY9.0
REMARK                            x       y       z     vdW  Elec       q    Type
REMARK                         _______ _______ _______ _____ _____    ______ ____
ROOT
ATOM      1  C   LIG    1        1.233   2.365   1.171  0.00  0.00    +0.340 A 
ATOM      2  C   LIG    1        0.146   1.519   0.964  0.00  0.00    -0.030 A 
ATOM      3  C   LIG    1       -1.092   2.096   0.712  0.00  0.00    -0.050 A 
ATOM      4  C   LIG    1       -1.186   3.473   0.701  0.00  0.00    +0.020 A 
ATOM      5  N   LIG    1       -0.096   4.199   0.905  0.00  0.00    -0.200 NA
ATOM      6  C   LIG    1       -2.486   4.195   0.467  0.00  0.00    +0.120 C 
ATOM      7  C   LIG    1       -3.498   3.279  -0.221  0.00  0.00    +0.310 C 
ATOM      8  N   LIG    1       -3.508   1.991   0.491  0.00  0.00    -0.590 N 
ATOM      9  C   LIG    1       -4.606   1.557   1.140  0.00  0.00    +0.620 C 
ATOM     10  O   LIG    1       -5.577   2.281   1.242  0.00  0.00    -0.500 OA
ATOM     11  C   LIG    1       -2.273   1.197   0.465  0.00  0.00    +0.380 C 
ATOM     12  N   LIG    1        1.052   3.678   1.127  0.00  0.00    -0.300 NA
ENDROOT
BRANCH   9  13
ATOM     13  C   LIG    1       -4.631   0.198   1.728  0.00  0.00    +0.240 A 
ATOM     14  N   LIG    1       -5.589  -0.284   2.496  0.00  0.00    -0.260 NA
ATOM     15  N   LIG    1       -5.223  -1.594   2.833  0.00  0.00    -0.330 N 
ATOM     16  C   LIG    1       -5.811  -2.562   3.589  0.00  0.00    +0.210 A 
ATOM     17  C   LIG    1       -5.188  -3.759   3.727  0.00  0.00    -0.040 A 
ATOM     18  C   LIG    1       -3.957  -3.968   3.089  0.00  0.00    +0.420 A 
ATOM     19  N   LIG    1       -3.413  -3.016   2.367  0.00  0.00    -0.460 NA
ATOM     20  C   LIG    1       -7.135  -2.307   4.262  0.00  0.00    +0.160 C 
ATOM     21  C   LIG    1       -4.020  -1.830   2.224  0.00  0.00    +0.450 A 
ATOM     22  N   LIG    1       -3.689  -0.733   1.559  0.00  0.00    -0.510 NA
ENDBRANCH   9  13
BRANCH   1  23
ATOM     23  N   LIG    1        2.495   1.839   1.422  0.00  0.00    -0.720 N 
ATOM     24  H   LIG    1        3.249   2.432   1.565  0.00  0.00    +0.410 HD
BRANCH  23  26
ATOM     25  C   LIG    1        4.157   0.076   1.759  0.00  0.00    +0.030 C 
ATOM     26  C   LIG    1        2.687   0.387   1.469  0.00  0.00    +0.260 C 
ENDBRANCH  23  26
ENDBRANCH   1  23
TORSDOF 3
