REMARK  Name = ZINCvU0000000CMe.0
REMARK                            x       y       z     vdW  Elec       q    Type
REMARK                         _______ _______ _______ _____ _____    ______ ____
ROOT
ATOM      1  O   LIG    1        2.875  -6.670  -0.418  0.00  0.00    -0.330 OA
ENDROOT
BRANCH   1   2
ATOM      2  C   LIG    1        3.135  -7.964  -0.150  0.00  0.00    +0.510 C 
ATOM      3  O   LIG    1        2.222  -8.735   0.070  0.00  0.00    -0.480 OA
BRANCH   2   9
ATOM      4  C   LIG    1        4.802  -9.819   0.016  0.00  0.00    +0.020 A 
ATOM      5  C   LIG    1        6.122 -10.259   0.040  0.00  0.00    +0.020 A 
ATOM      6  C   LIG    1        7.155  -9.350  -0.072  0.00  0.00    +0.050 A 
ATOM      7  C   LIG    1        6.888  -7.998  -0.207  0.00  0.00    +0.000 A 
ATOM      8  C   LIG    1        5.587  -7.542  -0.238  0.00  0.00    +0.080 A 
ATOM      9  C   LIG    1        4.529  -8.445  -0.122  0.00  0.00    -0.120 A 
BRANCH   4  14
ATOM     10  C   LIG    1        0.481 -13.597   0.475  0.00  0.00    +0.090 C 
ATOM     11  C   LIG    1        1.612 -12.608   0.355  0.00  0.00    -0.080 A 
ATOM     12  C   LIG    1        1.693 -11.786  -0.754  0.00  0.00    +0.000 A 
ATOM     13  C   LIG    1        2.726 -10.879  -0.870  0.00  0.00    +0.060 A 
ATOM     14  C   LIG    1        3.689 -10.791   0.134  0.00  0.00    -0.060 A 
ATOM     15  C   LIG    1        3.605 -11.626   1.248  0.00  0.00    +0.030 A 
ATOM     16  C   LIG    1        2.564 -12.526   1.355  0.00  0.00    -0.010 A 
ENDBRANCH   4  14
ENDBRANCH   2   9
ENDBRANCH   1   2
BRANCH   1  17
ATOM     17  C   LIG    1        1.480  -6.266  -0.428  0.00  0.00    +0.270 C 
BRANCH  17  18
ATOM     18  C   LIG    1        1.385  -4.796  -0.744  0.00  0.00    +0.510 C 
ATOM     19  N   LIG    1        0.179  -4.197  -0.808  0.00  0.00    -0.650 N 
ATOM     20  H   LIG    1       -0.627  -4.713  -0.650  0.00  0.00    +0.420 HD
ATOM     21  O   LIG    1        2.393  -4.151  -0.941  0.00  0.00    -0.430 OA
BRANCH  19  22
ATOM     22  C   LIG    1        0.091  -2.836  -1.100  0.00  0.00    +0.410 A 
ATOM     23  N   LIG    1        1.194  -2.139  -1.314  0.00  0.00    -0.460 NA
ATOM     24  C   LIG    1        1.156  -0.850  -1.593  0.00  0.00    +0.390 A 
ATOM     25  C   LIG    1       -0.048  -0.178  -1.673  0.00  0.00    -0.260 A 
ATOM     26  C   LIG    1       -1.230  -0.872  -1.450  0.00  0.00    +0.180 A 
ATOM     27  C   LIG    1       -1.157  -2.225  -1.165  0.00  0.00    -0.130 A 
ATOM     28 CL   LIG    1       -2.603  -3.143  -0.884  0.00  0.00    -0.030 Cl
BRANCH  25  29
ATOM     29  C   LIG    1       -0.078   1.295  -1.992  0.00  0.00    +0.520 C 
ATOM     30  F   LIG    1       -0.684   1.988  -0.938  0.00  0.00    -0.170 F 
ATOM     31  F   LIG    1       -0.808   1.502  -3.167  0.00  0.00    -0.170 F 
ATOM     32  F   LIG    1        1.229   1.761  -2.166  0.00  0.00    -0.170 F 
ENDBRANCH  25  29
ENDBRANCH  19  22
ENDBRANCH  17  18
ENDBRANCH   1  17
TORSDOF 7
