REMARK  Name = ZINCrD0000075HUd.0
REMARK                            x       y       z     vdW  Elec       q    Type
REMARK                         _______ _______ _______ _____ _____    ______ ____
ROOT
ATOM      1  O   LIG    1        2.823   3.517  -0.006  0.00  0.00    -0.490 OA
ATOM      2  C   LIG    1        1.644   3.216   0.004  0.00  0.00    +0.600 C 
ATOM      3  N   LIG    1        0.703   4.181   0.018  0.00  0.00    -0.720 N 
ATOM      4  H   LIG    1       -0.237   3.941   0.026  0.00  0.00    +0.400 HD
ENDROOT
BRANCH   2   5
ATOM      5  C   LIG    1        1.248   1.808  -0.000  0.00  0.00    -0.080 A 
ATOM      6  C   LIG    1        2.105   0.716  -0.014  0.00  0.00    -0.040 A 
ATOM      7  C   LIG    1        1.280  -0.433  -0.013  0.00  0.00    -0.050 A 
ATOM      8  C   LIG    1        0.002  -0.004   0.002  0.00  0.00    +0.210 A 
ATOM      9  O   LIG    1       -0.016   1.335   0.009  0.00  0.00    -0.160 OA
BRANCH   6  10
ATOM     10  C   LIG    1        3.586   0.747  -0.029  0.00  0.00    -0.040 A 
ATOM     11  C   LIG    1        4.260   1.538  -0.959  0.00  0.00    +0.060 A 
ATOM     12  C   LIG    1        5.639   1.568  -0.964  0.00  0.00    +0.000 A 
ATOM     13  C   LIG    1        6.354   0.807  -0.057  0.00  0.00    +0.010 A 
ATOM     14  C   LIG    1        5.691   0.016   0.865  0.00  0.00    -0.010 A 
ATOM     15  C   LIG    1        4.312  -0.018   0.883  0.00  0.00    +0.020 A 
ENDBRANCH   6  10
ENDBRANCH   2   5
BRANCH   3  16
ATOM     16  C   LIG    1        1.099   5.591   0.022  0.00  0.00    +0.260 C 
ATOM     17  C   LIG    1       -0.017   6.452   0.650  0.00  0.00    +0.050 C 
ATOM     18  C   LIG    1       -0.831   6.964  -0.564  0.00  0.00    -0.010 C 
ATOM     19  C   LIG    1        0.268   7.239  -1.620  0.00  0.00    +0.020 C 
ATOM     20  C   LIG    1        1.280   6.092  -1.422  0.00  0.00    +0.150 C 
BRANCH  20  21
ATOM     21  O   LIG    1        2.611   6.575  -1.609  0.00  0.00    -0.560 OA
ATOM     22  H   LIG    1        2.788   6.905  -2.501  0.00  0.00    +0.380 HD
ENDBRANCH  20  21
BRANCH  18  23
ATOM     23  C   LIG    1       -1.579   8.251  -0.211  0.00  0.00    +0.330 C 
BRANCH  23  24
ATOM     24  N   LIG    1       -2.431   8.645  -1.336  0.00  0.00    -0.360 N 
ATOM     25  C   LIG    1       -3.760   8.874  -1.283  0.00  0.00    +0.250 A 
ATOM     26  C   LIG    1       -4.170   9.214  -2.528  0.00  0.00    -0.190 A 
ATOM     27  C   LIG    1       -3.052   9.191  -3.369  0.00  0.00    +0.250 A 
ATOM     28 CL   LIG    1       -5.794   9.608  -2.997  0.00  0.00    -0.040 Cl
ATOM     29  N   LIG    1       -2.009   8.855  -2.655  0.00  0.00    -0.280 NA
ENDBRANCH  23  24
ENDBRANCH  18  23
ENDBRANCH   3  16
TORSDOF 6
