REMARK  Name = ZINCrD00000laZFB.0
REMARK                            x       y       z     vdW  Elec       q    Type
REMARK                         _______ _______ _______ _____ _____    ______ ____
ROOT
ATOM      1  N   LIG    1       -2.808   3.224   3.533  0.00  0.00    -0.620 N 
ATOM      2  C   LIG    1       -2.613   3.004   2.218  0.00  0.00    +0.710 C 
ATOM      3  N   LIG    1       -1.508   2.356   1.800  0.00  0.00    -0.740 N 
ATOM      4  H   LIG    1       -0.853   2.048   2.446  0.00  0.00    +0.400 HD
ATOM      5  O   LIG    1       -3.434   3.390   1.408  0.00  0.00    -0.590 OA
ATOM      6  C   LIG    1       -1.819   2.759   4.508  0.00  0.00    +0.270 C 
ENDROOT
BRANCH   1   7
ATOM      7  C   LIG    1       -4.010   3.929   3.987  0.00  0.00    +0.360 C 
BRANCH   7  13
ATOM      8  C   LIG    1       -5.122   2.207   5.432  0.00  0.00    +0.140 A 
ATOM      9  C   LIG    1       -6.138   1.294   5.672  0.00  0.00    -0.080 A 
ATOM     10  C   LIG    1       -7.127   1.099   4.728  0.00  0.00    +0.040 A 
ATOM     11  C   LIG    1       -7.109   1.818   3.547  0.00  0.00    -0.040 A 
ATOM     12  C   LIG    1       -6.100   2.733   3.308  0.00  0.00    +0.080 A 
ATOM     13  C   LIG    1       -5.109   2.931   4.248  0.00  0.00    -0.140 A 
BRANCH   8  15
ATOM     14  C   LIG    1       -4.221   1.616   7.552  0.00  0.00    +0.240 C 
ATOM     15  O   LIG    1       -4.144   2.396   6.357  0.00  0.00    -0.320 OA
ENDBRANCH   8  15
ENDBRANCH   7  13
ENDBRANCH   1   7
BRANCH   3  16
ATOM     16  C   LIG    1       -1.295   2.116   0.370  0.00  0.00    +0.330 C 
BRANCH  16  17
ATOM     17  C   LIG    1        0.004   1.379   0.172  0.00  0.00    -0.090 A 
ATOM     18  C   LIG    1        1.178   2.086  -0.014  0.00  0.00    +0.020 A 
ATOM     19  C   LIG    1        2.371   1.413  -0.202  0.00  0.00    +0.030 A 
ATOM     20  C   LIG    1        2.394   0.033  -0.205  0.00  0.00    +0.030 A 
ATOM     21  C   LIG    1        1.217  -0.680  -0.018  0.00  0.00    +0.140 A 
ATOM     22  C   LIG    1        0.020  -0.002   0.170  0.00  0.00    +0.000 A 
BRANCH  21  23
ATOM     23  N   LIG    1        1.237  -2.079  -0.021  0.00  0.00    -0.670 N 
ATOM     24  H   LIG    1        0.478  -2.575  -0.367  0.00  0.00    +0.410 HD
ATOM     25  C   LIG    1        2.310  -2.739   0.459  0.00  0.00    +0.540 C 
ATOM     26  O   LIG    1        3.217  -2.124   0.979  0.00  0.00    -0.520 OA
BRANCH  25  27
ATOM     27  C   LIG    1        2.384  -4.240   0.349  0.00  0.00    -0.070 C 
ATOM     28  C   LIG    1        2.290  -5.049   1.644  0.00  0.00    +0.060 C 
ATOM     29  C   LIG    1        3.628  -4.930   0.912  0.00  0.00    +0.080 C 
ENDBRANCH  25  27
ENDBRANCH  21  23
ENDBRANCH  16  17
ENDBRANCH   3  16
TORSDOF 7
