REMARK  Name = ZINCnE00000rhne1.0
REMARK                            x       y       z     vdW  Elec       q    Type
REMARK                         _______ _______ _______ _____ _____    ______ ____
ROOT
ATOM      1  C   LIG    1        2.738  -1.672  -1.508  0.00  0.00    +0.280 C 
ATOM      2  N   LIG    1        2.225  -0.332  -1.805  0.00  0.00    -0.620 N 
ATOM      3  C   LIG    1        1.037  -0.188  -2.425  0.00  0.00    +0.520 C 
ATOM      4  O   LIG    1        0.612   0.921  -2.670  0.00  0.00    -0.520 OA
ENDROOT
BRANCH   3   5
ATOM      5  C   LIG    1        0.236  -1.405  -2.812  0.00  0.00    +0.060 C 
BRANCH   5   6
ATOM      6  C   LIG    1       -1.060  -0.966  -3.495  0.00  0.00    +0.140 C 
BRANCH   6   7
ATOM      7  S   LIG    1       -2.024  -2.430  -3.962  0.00  0.00    -0.150 S 
BRANCH   7   8
ATOM      8  S   LIG    1       -2.647  -3.167  -2.153  0.00  0.00    -0.180 S 
BRANCH   8   9
ATOM      9  C   LIG    1       -4.152  -2.211  -1.819  0.00  0.00    +0.150 C 
BRANCH   9  10
ATOM     10  C   LIG    1       -5.255  -2.641  -2.789  0.00  0.00    -0.040 C 
BRANCH  10  11
ATOM     11  C   LIG    1       -6.505  -1.846  -2.512  0.00  0.00    +0.500 C 
ATOM     12  O   LIG    1       -7.508  -2.036  -3.178  0.00  0.00    -0.700 OA
ATOM     13  O   LIG    1       -6.513  -1.014  -1.621  0.00  0.00    -0.700 OA
ENDBRANCH  10  11
ENDBRANCH   9  10
ENDBRANCH   8   9
ENDBRANCH   7   8
ENDBRANCH   6   7
ENDBRANCH   5   6
ENDBRANCH   3   5
BRANCH   2  14
ATOM     14  C   LIG    1        3.003   0.850  -1.428  0.00  0.00    +0.300 C 
BRANCH  14  15
ATOM     15  C   LIG    1        2.610   1.291  -0.017  0.00  0.00    +0.010 C 
ATOM     16  C   LIG    1        3.458   2.504   0.421  0.00  0.00    +0.040 C 
ATOM     17  C   LIG    1        2.576   3.696  -0.004  0.00  0.00    +0.070 C 
ATOM     18  C   LIG    1        1.159   3.164   0.008  0.00  0.00    -0.100 A 
ATOM     19  C   LIG    1       -0.052   3.836   0.023  0.00  0.00    +0.000 A 
ATOM     20  C   LIG    1       -1.239   3.130   0.031  0.00  0.00    +0.000 A 
ATOM     21  C   LIG    1       -1.220   1.748   0.017  0.00  0.00    +0.010 A 
ATOM     22  C   LIG    1       -0.013   1.076   0.008  0.00  0.00    +0.020 A 
ATOM     23  C   LIG    1        1.178   1.782   0.000  0.00  0.00    -0.080 A 
ENDBRANCH  14  15
ENDBRANCH   2  14
TORSDOF 9
