REMARK  Name = ZINCpe000000Wa0s.0
REMARK                            x       y       z     vdW  Elec       q    Type
REMARK                         _______ _______ _______ _____ _____    ______ ____
ROOT
ATOM      1  N   LIG    1       -0.696   1.558  -1.199  0.00  0.00    -0.730 N 
ATOM      2  H   LIG    1       -0.408   2.378  -1.630  0.00  0.00    +0.400 HD
ATOM      3  C   LIG    1       -1.724   0.852  -1.711  0.00  0.00    +0.710 C 
ATOM      4  N   LIG    1       -2.352   1.286  -2.821  0.00  0.00    -0.650 N 
ATOM      5  H   LIG    1       -2.064   2.106  -3.252  0.00  0.00    +0.410 HD
ATOM      6  O   LIG    1       -2.085  -0.176  -1.171  0.00  0.00    -0.570 OA
ENDROOT
BRANCH   1  13
ATOM      7  C   LIG    1        1.422   1.600  -0.003  0.00  0.00    +0.180 C 
ATOM      8  C   LIG    1        1.738   2.477   1.225  0.00  0.00    -0.310 C 
ATOM      9  S   LIG    1        0.531   1.881   2.476  0.00  0.00    +2.390 S 
ATOM     10  C   LIG    1       -0.798   1.569   1.244  0.00  0.00    -0.300 C 
ATOM     11  O   LIG    1        0.154   2.952   3.331  0.00  0.00    -0.930 OA
ATOM     12  O   LIG    1        0.976   0.649   3.027  0.00  0.00    -0.910 OA
ATOM     13  C   LIG    1       -0.013   1.086   0.008  0.00  0.00    +0.300 C 
BRANCH   7  15
ATOM     14  C   LIG    1        3.554   0.739  -0.681  0.00  0.00    +0.230 C 
ATOM     15  O   LIG    1        2.314   0.483  -0.017  0.00  0.00    -0.370 OA
ENDBRANCH   7  15
ENDBRANCH   1  13
BRANCH   4  16
ATOM     16  C   LIG    1       -3.426   0.549  -3.356  0.00  0.00    +0.020 A 
ATOM     17  C   LIG    1       -4.147   0.873  -4.460  0.00  0.00    +0.200 A 
ATOM     18  N   LIG    1       -5.085  -0.094  -4.636  0.00  0.00    -0.370 N 
ATOM     19  N   LIG    1       -4.936  -1.030  -3.604  0.00  0.00    -0.270 NA
ATOM     20  C   LIG    1       -3.946  -0.646  -2.840  0.00  0.00    +0.260 A 
BRANCH  18  21
ATOM     21  C   LIG    1       -6.078  -0.146  -5.711  0.00  0.00    +0.370 C 
BRANCH  21  22
ATOM     22  C   LIG    1       -5.971  -1.466  -6.431  0.00  0.00    -0.110 A 
ATOM     23  C   LIG    1       -5.131  -1.592  -7.521  0.00  0.00    +0.020 A 
ATOM     24  C   LIG    1       -5.030  -2.804  -8.179  0.00  0.00    +0.000 A 
ATOM     25  C   LIG    1       -5.774  -3.887  -7.750  0.00  0.00    +0.010 A 
ATOM     26  C   LIG    1       -6.618  -3.760  -6.663  0.00  0.00    +0.010 A 
ATOM     27  C   LIG    1       -6.716  -2.549  -6.003  0.00  0.00    +0.050 A 
ENDBRANCH  21  22
ENDBRANCH  18  21
ENDBRANCH   4  16
TORSDOF 5
