REMARK  Name = ZINCrg00001JduXF.0
REMARK                            x       y       z     vdW  Elec       q    Type
REMARK                         _______ _______ _______ _____ _____    ______ ____
ROOT
ATOM      1  C   LIG    1       -0.030  -0.075   1.175  0.00  0.00    +0.230 C 
ENDROOT
BRANCH   1   2
ATOM      2  N   LIG    1        0.670   0.114  -0.103  0.00  0.00    -0.530 NA
ATOM      3  C   LIG    1        0.802   1.534  -0.423  0.00  0.00    +0.200 C 
ATOM      4  C   LIG    1        2.124   1.763  -1.123  0.00  0.00    +0.050 C 
ATOM      5  C   LIG    1        1.926   1.671  -2.645  0.00  0.00    +0.250 C 
ATOM      6  N   LIG    1        0.998   0.579  -3.000  0.00  0.00    -0.610 N 
ATOM      7  C   LIG    1        1.037  -0.717  -2.354  0.00  0.00    +0.300 C 
ATOM      8  C   LIG    1        0.079   0.797  -3.962  0.00  0.00    +0.520 C 
ATOM      9  O   LIG    1       -0.759  -0.046  -4.201  0.00  0.00    -0.530 OA
ATOM     10  C   LIG    1        0.115  -0.708  -1.111  0.00  0.00    +0.190 C 
BRANCH   8  11
ATOM     11  C   LIG    1        0.094   2.087  -4.741  0.00  0.00    -0.040 C 
ATOM     12  C   LIG    1       -0.944   2.048  -5.896  0.00  0.00    +0.040 C 
ATOM     13  C   LIG    1       -1.274   3.554  -6.045  0.00  0.00    +0.210 C 
ATOM     14  O   LIG    1       -1.249   4.078  -4.708  0.00  0.00    -0.380 OA
ATOM     15  C   LIG    1       -0.422   3.257  -3.876  0.00  0.00    +0.220 C 
ENDBRANCH   8  11
ENDBRANCH   1   2
BRANCH   1  18
ATOM     16  C   LIG    1       -3.800   0.162   1.207  0.00  0.00    +0.140 A 
ATOM     17  C   LIG    1       -2.526  -0.361   1.317  0.00  0.00    -0.020 A 
ATOM     18  C   LIG    1       -1.436   0.456   1.060  0.00  0.00    -0.070 A 
ATOM     19  C   LIG    1       -1.670   1.772   0.691  0.00  0.00    -0.040 A 
ATOM     20  C   LIG    1       -2.973   2.223   0.596  0.00  0.00    +0.270 A 
ATOM     21  N   LIG    1       -3.985   1.419   0.853  0.00  0.00    -0.470 NA
BRANCH  16  23
ATOM     22  C   LIG    1       -5.871  -0.055   2.554  0.00  0.00    +0.040 C 
ATOM     23  C   LIG    1       -4.993  -0.716   1.490  0.00  0.00    +0.080 C 
ENDBRANCH  16  23
ENDBRANCH   1  18
BRANCH   1  24
ATOM     24  C   LIG    1        0.701   0.669   2.263  0.00  0.00    +0.520 C 
ATOM     25  N   LIG    1        0.259   0.609   3.534  0.00  0.00    -0.730 N 
ATOM     26  H   LIG    1       -0.530   0.087   3.749  0.00  0.00    +0.400 HD
ATOM     27  C   LIG    1        0.970   1.332   4.592  0.00  0.00    +0.290 C 
ATOM     28  O   LIG    1        1.688   1.321   1.994  0.00  0.00    -0.510 OA
ENDBRANCH   1  24
TORSDOF 5
