REMARK  Name = ZINCvU0000000Hvj.0
REMARK                            x       y       z     vdW  Elec       q    Type
REMARK                         _______ _______ _______ _____ _____    ______ ____
ROOT
ATOM      1  C   LIG    1        2.743   5.569  -0.214  0.00  0.00    +0.150 C 
ATOM      2  N   LIG    1        2.501   4.307  -0.112  0.00  0.00    -0.220 NA
ATOM      3  N   LIG    1        3.641   3.507  -0.117  0.00  0.00    -0.460 N 
ATOM      4  C   LIG    1        4.827   4.369  -0.234  0.00  0.00    +0.270 C 
ATOM      5  C   LIG    1        3.655   2.162  -0.022  0.00  0.00    +0.590 C 
ATOM      6  O   LIG    1        4.714   1.570   0.064  0.00  0.00    -0.490 OA
ATOM      7  C   LIG    1        4.236   5.790  -0.309  0.00  0.00    +0.100 C 
ENDROOT
BRANCH   4   8
ATOM      8  C   LIG    1        5.593   4.049  -1.492  0.00  0.00    -0.120 A 
ATOM      9  C   LIG    1        4.950   3.451  -2.559  0.00  0.00    +0.050 A 
ATOM     10  C   LIG    1        5.652   3.158  -3.714  0.00  0.00    +0.010 A 
ATOM     11  C   LIG    1        6.997   3.463  -3.803  0.00  0.00    +0.050 A 
ATOM     12  C   LIG    1        7.642   4.061  -2.737  0.00  0.00    -0.010 A 
ATOM     13  C   LIG    1        6.939   4.360  -1.582  0.00  0.00    +0.110 A 
ATOM     14  F   LIG    1        7.568   4.950  -0.542  0.00  0.00    -0.130 F 
ENDBRANCH   4   8
BRANCH   5  15
ATOM     15  C   LIG    1        2.385   1.408  -0.024  0.00  0.00    -0.140 A 
ATOM     16  C   LIG    1        1.166   2.088   0.004  0.00  0.00    +0.130 A 
ATOM     17  C   LIG    1       -0.016   1.377   0.002  0.00  0.00    -0.010 A 
ATOM     18  C   LIG    1        0.003  -0.006  -0.027  0.00  0.00    +0.050 A 
ATOM     19  C   LIG    1        1.207  -0.687  -0.053  0.00  0.00    +0.010 A 
ATOM     20  C   LIG    1        2.398   0.011  -0.052  0.00  0.00    +0.020 A 
ATOM     21 CL   LIG    1        3.909  -0.845  -0.087  0.00  0.00    -0.040 Cl
ENDBRANCH   5  15
BRANCH   1  26
ATOM     22  C   LIG    1        1.141   8.962  -0.370  0.00  0.00    +0.090 A 
ATOM     23  C   LIG    1       -0.204   8.631  -0.276  0.00  0.00    -0.010 A 
ATOM     24  C   LIG    1       -0.591   7.308  -0.162  0.00  0.00    -0.030 A 
ATOM     25  C   LIG    1        0.362   6.304  -0.146  0.00  0.00    +0.130 A 
ATOM     26  C   LIG    1        1.722   6.632  -0.235  0.00  0.00    -0.030 A 
ATOM     27  C   LIG    1        2.105   7.970  -0.350  0.00  0.00    +0.070 A 
BRANCH  22  29
ATOM     28  C   LIG    1        0.466  11.239  -0.496  0.00  0.00    +0.250 C 
ATOM     29  O   LIG    1        1.512  10.266  -0.482  0.00  0.00    -0.310 OA
ENDBRANCH  22  29
BRANCH  25  30
ATOM     30  O   LIG    1       -0.020   5.004  -0.039  0.00  0.00    -0.290 OA
ATOM     31  C   LIG    1       -1.422   4.745   0.048  0.00  0.00    +0.240 C 
ENDBRANCH  25  30
ENDBRANCH   1  26
TORSDOF 5
