REMARK  Name = ZINCpk00000y6vLC.0
REMARK                            x       y       z     vdW  Elec       q    Type
REMARK                         _______ _______ _______ _____ _____    ______ ____
ROOT
ATOM      1  N   LIG    1       -7.009   4.486   2.759  0.00  0.00    -0.730 N 
ATOM      2  H   LIG    1       -7.977   4.474   2.815  0.00  0.00    +0.400 HD
ATOM      3  C   LIG    1       -6.348   3.414   2.278  0.00  0.00    +0.540 C 
ATOM      4  O   LIG    1       -5.137   3.429   2.209  0.00  0.00    -0.510 OA
ENDROOT
BRANCH   3   5
ATOM      5  C   LIG    1       -7.114   2.197   1.827  0.00  0.00    -0.060 C 
ATOM      6  C   LIG    1       -6.974   0.924   2.665  0.00  0.00    +0.070 C 
ATOM      7  C   LIG    1       -6.306   1.013   1.291  0.00  0.00    +0.040 C 
BRANCH   7   8
ATOM      8  C   LIG    1       -4.806   1.154   1.255  0.00  0.00    -0.050 A 
ATOM      9  C   LIG    1       -4.106   1.376   2.425  0.00  0.00    +0.070 A 
ATOM     10  C   LIG    1       -2.730   1.506   2.396  0.00  0.00    +0.010 A 
ATOM     11  C   LIG    1       -2.049   1.415   1.191  0.00  0.00    +0.050 A 
ATOM     12  O   LIG    1       -0.694   1.553   1.177  0.00  0.00    -0.310 OA
ATOM     13  C   LIG    1       -0.013   1.086   0.008  0.00  0.00    +0.220 C 
ATOM     14  C   LIG    1       -0.767   1.600  -1.226  0.00  0.00    +0.220 C 
ATOM     15  O   LIG    1       -2.104   1.091  -1.178  0.00  0.00    -0.310 OA
ATOM     16  C   LIG    1       -2.753   1.189   0.014  0.00  0.00    +0.040 A 
ATOM     17  C   LIG    1       -4.133   1.059   0.051  0.00  0.00    +0.030 A 
ENDBRANCH   7   8
ENDBRANCH   3   5
BRANCH   1  18
ATOM     18  C   LIG    1       -6.265   5.669   3.198  0.00  0.00    +0.260 C 
BRANCH  18  19
ATOM     19  C   LIG    1       -7.245   6.733   3.696  0.00  0.00    +0.100 C 
BRANCH  19  24
ATOM     20  O   LIG    1       -4.483  11.092   5.365  0.00  0.00    -0.530 OA
ATOM     21  C   LIG    1       -5.105  10.114   4.987  0.00  0.00    +0.630 A 
ATOM     22  N   LIG    1       -5.293   9.090   5.824  0.00  0.00    -0.540 NA
ATOM     23  C   LIG    1       -5.960   8.020   5.443  0.00  0.00    +0.440 A 
ATOM     24  C   LIG    1       -6.480   7.950   4.147  0.00  0.00    -0.260 A 
ATOM     25  C   LIG    1       -6.280   8.993   3.297  0.00  0.00    +0.370 A 
ATOM     26  N   LIG    1       -5.591  10.080   3.733  0.00  0.00    -0.620 N 
ATOM     27  H   LIG    1       -5.446  10.832   3.137  0.00  0.00    +0.420 HD
ENDBRANCH  19  24
ENDBRANCH  18  19
ENDBRANCH   1  18
TORSDOF 5
