REMARK  Name = ZINCqH0000008qAO.0
REMARK                            x       y       z     vdW  Elec       q    Type
REMARK                         _______ _______ _______ _____ _____    ______ ____
ROOT
ATOM      1  N   LIG    1       -2.465   1.430   0.021  0.00  0.00    -0.720 N 
ATOM      2  H   LIG    1       -2.454   0.460   0.016  0.00  0.00    +0.400 HD
ATOM      3  C   LIG    1       -1.305   2.116   0.020  0.00  0.00    +0.550 C 
ATOM      4  O   LIG    1       -1.319   3.332   0.026  0.00  0.00    -0.510 OA
ENDROOT
BRANCH   3   5
ATOM      5  C   LIG    1       -0.017   1.391   0.010  0.00  0.00    -0.090 A 
ATOM      6  C   LIG    1        0.002  -0.004   0.002  0.00  0.00    +0.050 A 
ATOM      7  C   LIG    1        1.208  -0.674  -0.013  0.00  0.00    +0.050 A 
ATOM      8  C   LIG    1        2.396   0.034  -0.021  0.00  0.00    +0.050 A 
ATOM      9  C   LIG    1        2.385   1.417  -0.013  0.00  0.00    +0.070 A 
ATOM     10  C   LIG    1        1.186   2.100   0.002  0.00  0.00    -0.130 A 
BRANCH  10  11
ATOM     11  C   LIG    1        1.175   3.607   0.010  0.00  0.00    +0.510 C 
ATOM     12  F   LIG    1        0.523   4.062   1.160  0.00  0.00    -0.160 F 
ATOM     13  F   LIG    1        0.502   4.074  -1.124  0.00  0.00    -0.160 F 
ATOM     14  F   LIG    1        2.491   4.083  -0.000  0.00  0.00    -0.180 F 
ENDBRANCH  10  11
ENDBRANCH   3   5
BRANCH   1  16
ATOM     15  C   LIG    1       -4.118   2.500   1.472  0.00  0.00    +0.040 C 
ATOM     16  C   LIG    1       -3.742   2.148   0.031  0.00  0.00    +0.290 C 
BRANCH  16  17
ATOM     17  C   LIG    1       -4.814   1.275  -0.569  0.00  0.00    -0.100 A 
ATOM     18  C   LIG    1       -4.840  -0.078  -0.287  0.00  0.00    +0.040 A 
ATOM     19  C   LIG    1       -5.824  -0.880  -0.831  0.00  0.00    +0.010 A 
ATOM     20  C   LIG    1       -6.782  -0.327  -1.671  0.00  0.00    +0.150 A 
ATOM     21  C   LIG    1       -6.750   1.031  -1.956  0.00  0.00    +0.040 A 
ATOM     22  C   LIG    1       -5.766   1.829  -1.405  0.00  0.00    +0.060 A 
BRANCH  20  23
ATOM     23  N   LIG    1       -7.779  -1.139  -2.229  0.00  0.00    -0.330 N 
ATOM     24  C   LIG    1       -7.936  -2.465  -2.050  0.00  0.00    +0.480 A 
ATOM     25  N   LIG    1       -8.982  -2.846  -2.737  0.00  0.00    -0.530 NA
ATOM     26  C   LIG    1       -9.513  -1.800  -3.370  0.00  0.00    +0.440 A 
ATOM     27  N   LIG    1       -8.812  -0.732  -3.091  0.00  0.00    -0.310 NA
ENDBRANCH  20  23
ENDBRANCH  16  17
ENDBRANCH   1  16
TORSDOF 5
