REMARK  Name = ZINCrD00000hQ7iX.0
REMARK                            x       y       z     vdW  Elec       q    Type
REMARK                         _______ _______ _______ _____ _____    ______ ____
ROOT
ATOM      1  O   LIG    1        1.568  -1.783  -2.786  0.00  0.00    -0.570 OA
ATOM      2  C   LIG    1        2.416  -2.439  -2.213  0.00  0.00    +0.730 C 
ATOM      3  N   LIG    1        2.311  -2.668  -0.889  0.00  0.00    -0.630 N 
ATOM      4  C   LIG    1        3.262  -3.445  -0.067  0.00  0.00    +0.220 C 
ATOM      5  C   LIG    1        2.431  -3.934   1.145  0.00  0.00    +0.170 C 
ATOM      6  C   LIG    1        1.507  -2.715   1.403  0.00  0.00    +0.070 C 
ATOM      7  C   LIG    1        1.227  -2.186  -0.020  0.00  0.00    +0.290 C 
ATOM      8  N   LIG    1        3.462  -2.938  -2.902  0.00  0.00    -0.710 N 
ATOM      9  H   LIG    1        4.138  -3.462  -2.445  0.00  0.00    +0.400 HD
ENDROOT
BRANCH   8  10
ATOM     10  C   LIG    1        3.577  -2.689  -4.341  0.00  0.00    +0.260 C 
ATOM     11  C   LIG    1        4.380  -3.694  -5.169  0.00  0.00    -0.040 C 
ATOM     12  C   LIG    1        5.025  -4.865  -4.412  0.00  0.00    +0.050 C 
ATOM     13  C   LIG    1        6.559  -4.636  -4.426  0.00  0.00    +0.070 C 
ATOM     14  C   LIG    1        6.870  -3.362  -3.679  0.00  0.00    -0.080 A 
ATOM     15  C   LIG    1        7.918  -3.316  -2.781  0.00  0.00    +0.000 A 
ATOM     16  C   LIG    1        8.193  -2.144  -2.102  0.00  0.00    +0.000 A 
ATOM     17  C   LIG    1        7.420  -1.019  -2.320  0.00  0.00    +0.000 A 
ATOM     18  C   LIG    1        6.370  -1.065  -3.219  0.00  0.00    +0.020 A 
ATOM     19  C   LIG    1        6.096  -2.235  -3.898  0.00  0.00    -0.050 A 
ATOM     20  C   LIG    1        4.953  -2.297  -4.882  0.00  0.00    -0.010 C 
ENDBRANCH   8  10
BRANCH   7  21
ATOM     21  C   LIG    1        1.208  -0.679  -0.013  0.00  0.00    -0.100 A 
ATOM     22  C   LIG    1        0.002  -0.004   0.002  0.00  0.00    +0.060 A 
ATOM     23  C   LIG    1       -0.017   1.378   0.010  0.00  0.00    -0.010 A 
ATOM     24  C   LIG    1        1.173   2.086   0.002  0.00  0.00    +0.100 A 
ATOM     25  C   LIG    1        2.381   1.408  -0.013  0.00  0.00    -0.020 A 
ATOM     26  F   LIG    1        1.156   3.437   0.009  0.00  0.00    -0.140 F 
ATOM     27  C   LIG    1        2.397   0.026  -0.020  0.00  0.00    +0.050 A 
ENDBRANCH   7  21
BRANCH   5  28
ATOM     28  O   LIG    1        3.271  -4.188   2.273  0.00  0.00    -0.550 OA
ATOM     29  H   LIG    1        3.866  -4.942   2.158  0.00  0.00    +0.380 HD
ENDBRANCH   5  28
TORSDOF 3
