REMARK  Name = ZINCpk00000dHuFb.0
REMARK                            x       y       z     vdW  Elec       q    Type
REMARK                         _______ _______ _______ _____ _____    ______ ____
ROOT
ATOM      1  O   LIG    1       -2.173  -0.166   0.111  0.00  0.00    -0.560 OA
ATOM      2  C   LIG    1       -1.099  -0.737   0.092  0.00  0.00    +0.710 C 
ATOM      3  N   LIG    1       -1.049  -2.080   0.180  0.00  0.00    -0.620 N 
ATOM      4  C   LIG    1        0.243  -2.776   0.268  0.00  0.00    +0.270 C 
ATOM      5  C   LIG    1        0.233  -3.661   1.526  0.00  0.00    +0.270 C 
ATOM      6  N   LIG    1       -1.002  -4.457   1.528  0.00  0.00    -0.610 N 
ATOM      7  C   LIG    1       -2.294  -3.762   1.435  0.00  0.00    +0.290 C 
ATOM      8  C   LIG    1       -0.952  -5.801   1.615  0.00  0.00    +0.520 C 
ATOM      9  O   LIG    1       -1.978  -6.448   1.616  0.00  0.00    -0.510 OA
ATOM     10  C   LIG    1       -2.284  -2.877   0.182  0.00  0.00    +0.300 C 
ATOM     11  N   LIG    1        0.040  -0.025  -0.015  0.00  0.00    -0.680 N 
ATOM     12  H   LIG    1        0.890  -0.482  -0.114  0.00  0.00    +0.420 HD
ENDROOT
BRANCH  11  13
ATOM     13  C   LIG    1       -0.003   1.373   0.015  0.00  0.00    +0.250 A 
ATOM     14  C   LIG    1       -1.050   2.024   0.654  0.00  0.00    +0.030 A 
ATOM     15  C   LIG    1       -1.086   3.404   0.687  0.00  0.00    +0.110 A 
ATOM     16  C   LIG    1       -0.087   4.138   0.074  0.00  0.00    +0.010 A 
ATOM     17  C   LIG    1        0.954   3.494  -0.569  0.00  0.00    +0.130 A 
ATOM     18  C   LIG    1        0.999   2.114  -0.600  0.00  0.00    -0.090 A 
BRANCH  18  19
ATOM     19  N   LIG    1        2.114   1.425  -1.288  0.00  0.00    +0.040 N 
ATOM     20  O   LIG    1        2.202   0.211  -1.238  0.00  0.00    -0.200 OA
ATOM     21  O   LIG    1        2.943   2.071  -1.903  0.00  0.00    -0.140 OA
ENDBRANCH  18  19
ENDBRANCH  11  13
BRANCH   8  22
ATOM     22  C   LIG    1        0.380  -6.501   1.710  0.00  0.00    +0.160 C 
ATOM     23  C   LIG    1        1.074  -6.127   3.034  0.00  0.00    +0.020 C 
ATOM     24  C   LIG    1        1.290  -7.484   3.746  0.00  0.00    +0.020 C 
ATOM     25  C   LIG    1        1.208  -8.486   2.567  0.00  0.00    +0.210 C 
ATOM     26  O   LIG    1        0.184  -7.925   1.714  0.00  0.00    -0.350 OA
ENDBRANCH   8  22
TORSDOF 3
