REMARK  Name = ZINCpk00000y6tJM.0
REMARK                            x       y       z     vdW  Elec       q    Type
REMARK                         _______ _______ _______ _____ _____    ______ ____
ROOT
ATOM      1  C   LIG    1       -2.433   4.260  -0.814  0.00  0.00    +0.140 A 
ATOM      2  N   LIG    1       -3.192   4.307   0.271  0.00  0.00    -0.370 NA
ATOM      3  C   LIG    1       -2.800   3.751   1.413  0.00  0.00    +0.220 A 
ATOM      4  C   LIG    1       -3.390   3.654   2.683  0.00  0.00    -0.020 A 
ATOM      5  N   LIG    1       -2.532   2.973   3.468  0.00  0.00    -0.410 NA
ATOM      6  C   LIG    1       -1.472   2.648   2.784  0.00  0.00    +0.400 A 
ATOM      7  N   LIG    1       -1.589   3.106   1.509  0.00  0.00    -0.390 N 
ATOM      8  C   LIG    1       -0.766   3.032   0.407  0.00  0.00    +0.210 A 
ATOM      9  C   LIG    1       -1.184   3.622  -0.776  0.00  0.00    +0.070 A 
ENDROOT
BRANCH   4  10
ATOM     10  C   LIG    1       -4.693   4.192   3.081  0.00  0.00    +0.610 C 
ATOM     11  O   LIG    1       -5.376   4.793   2.272  0.00  0.00    -0.520 OA
ATOM     12  N   LIG    1       -5.136   4.023   4.342  0.00  0.00    -0.840 N 
ATOM     13  H   LIG    1       -5.998   4.380   4.606  0.00  0.00    +0.410 HD
ATOM     14  H   LIG    1       -4.591   3.544   4.987  0.00  0.00    +0.410 HD
ENDBRANCH   4  10
BRANCH   8  15
ATOM     15  C   LIG    1        0.529   2.350   0.485  0.00  0.00    -0.030 A 
ATOM     16  C   LIG    1        1.756   2.936   0.342  0.00  0.00    +0.030 A 
ATOM     17  C   LIG    1        2.710   1.915   0.485  0.00  0.00    -0.050 A 
ATOM     18  C   LIG    1        2.034   0.766   0.705  0.00  0.00    +0.220 A 
ATOM     19  O   LIG    1        0.719   1.033   0.705  0.00  0.00    -0.160 OA
ENDBRANCH   8  15
BRANCH   1  22
ATOM     20  C   LIG    1       -5.035   5.341  -0.982  0.00  0.00    +0.320 C 
ATOM     21  N   LIG    1       -4.154   5.385  -2.151  0.00  0.00    -0.590 N 
ATOM     22  C   LIG    1       -2.902   4.892  -2.071  0.00  0.00    +0.580 C 
ATOM     23  O   LIG    1       -2.158   4.964  -3.029  0.00  0.00    -0.510 OA
BRANCH  21  24
ATOM     24  C   LIG    1       -4.633   5.966  -3.408  0.00  0.00    +0.300 C 
BRANCH  24  25
ATOM     25  C   LIG    1       -5.284   4.873  -4.259  0.00  0.00    +0.360 C 
ATOM     26  F   LIG    1       -6.361   4.318  -3.561  0.00  0.00    -0.200 F 
ATOM     27  F   LIG    1       -4.343   3.875  -4.535  0.00  0.00    -0.200 F 
ENDBRANCH  24  25
ENDBRANCH  21  24
ENDBRANCH   1  22
TORSDOF 5
