REMARK  Name = ZINCvU0000000B64.0
REMARK                            x       y       z     vdW  Elec       q    Type
REMARK                         _______ _______ _______ _____ _____    ______ ____
ROOT
ATOM      1  C   LIG    1       -6.761   1.967  -2.127  0.00  0.00    +0.160 C 
ATOM      2  C   LIG    1       -6.849   2.417  -0.691  0.00  0.00    +0.110 A 
ATOM      3  N   LIG    1       -7.612   3.377  -0.234  0.00  0.00    -0.280 NA
ATOM      4  N   LIG    1       -7.402   3.482   1.147  0.00  0.00    -0.330 N 
ATOM      5  C   LIG    1       -6.490   2.549   1.502  0.00  0.00    +0.110 A 
ATOM      6  C   LIG    1       -5.968   2.300   2.893  0.00  0.00    +0.150 C 
ATOM      7  C   LIG    1       -6.129   1.880   0.382  0.00  0.00    -0.220 A 
ENDROOT
BRANCH   4   8
ATOM      8  C   LIG    1       -8.030   4.391   2.010  0.00  0.00    +0.160 A 
ATOM      9  C   LIG    1       -7.297   5.028   3.002  0.00  0.00    +0.040 A 
ATOM     10  C   LIG    1       -7.919   5.924   3.851  0.00  0.00    +0.050 A 
ATOM     11  C   LIG    1       -9.269   6.187   3.712  0.00  0.00    +0.080 A 
ATOM     12  C   LIG    1      -10.002   5.554   2.724  0.00  0.00    -0.170 A 
ATOM     13  C   LIG    1       -9.385   4.661   1.869  0.00  0.00    +0.080 A 
BRANCH  12  14
ATOM     14  C   LIG    1      -11.473   5.843   2.576  0.00  0.00    +0.510 C 
ATOM     15  F   LIG    1      -12.200   4.660   2.747  0.00  0.00    -0.170 F 
ATOM     16  F   LIG    1      -11.720   6.362   1.301  0.00  0.00    -0.170 F 
ATOM     17  F   LIG    1      -11.865   6.775   3.543  0.00  0.00    -0.170 F 
ENDBRANCH  12  14
ENDBRANCH   4   8
BRANCH   7  18
ATOM     18  C   LIG    1       -5.132   0.752   0.305  0.00  0.00    +0.160 C 
BRANCH  18  19
ATOM     19  C   LIG    1       -3.757   1.313   0.050  0.00  0.00    +0.510 C 
ATOM     20  N   LIG    1       -2.700   0.484  -0.058  0.00  0.00    -0.670 N 
ATOM     21  H   LIG    1       -2.834  -0.476  -0.042  0.00  0.00    +0.410 HD
ATOM     22  O   LIG    1       -3.602   2.511  -0.060  0.00  0.00    -0.510 OA
BRANCH  20  23
ATOM     23  C   LIG    1       -1.410   1.009  -0.191  0.00  0.00    +0.090 A 
ATOM     24  C   LIG    1       -1.077   2.198   0.428  0.00  0.00    +0.090 A 
ATOM     25  C   LIG    1        0.235   2.682   0.269  0.00  0.00    -0.080 A 
ATOM     26  C   LIG    1        0.649   3.880   0.873  0.00  0.00    +0.030 A 
ATOM     27  C   LIG    1        1.927   4.316   0.696  0.00  0.00    +0.020 A 
ATOM     28  C   LIG    1        2.830   3.589  -0.076  0.00  0.00    +0.030 A 
ATOM     29  C   LIG    1        2.462   2.424  -0.676  0.00  0.00    +0.050 A 
ATOM     30  C   LIG    1        1.152   1.940  -0.517  0.00  0.00    +0.110 A 
ATOM     31  N   LIG    1        0.766   0.797  -1.095  0.00  0.00    -0.450 NA
ATOM     32  C   LIG    1       -0.451   0.334  -0.955  0.00  0.00    +0.280 A 
ENDBRANCH  20  23
ENDBRANCH  18  19
ENDBRANCH   7  18
TORSDOF 5
