REMARK  Name = ZINCvU0000000Ekk.0
REMARK                            x       y       z     vdW  Elec       q    Type
REMARK                         _______ _______ _______ _____ _____    ______ ____
ROOT
ATOM      1  C   LIG    1       -2.176  -3.520   0.260  0.00  0.00    +0.580 C 
ATOM      2  N   LIG    1       -2.013  -4.847   0.430  0.00  0.00    -0.460 N 
ATOM      3  N   LIG    1       -0.793  -5.500   0.587  0.00  0.00    -0.230 NA
ATOM      4  C   LIG    1       -0.894  -6.775   0.739  0.00  0.00    +0.150 C 
ATOM      5  C   LIG    1       -2.352  -7.176   0.687  0.00  0.00    +0.100 C 
ATOM      6  C   LIG    1       -3.096  -5.843   0.475  0.00  0.00    +0.330 C 
ATOM      7  O   LIG    1       -3.289  -3.057   0.127  0.00  0.00    -0.490 OA
ENDROOT
BRANCH   4   8
ATOM      8  C   LIG    1        0.237  -7.702   0.928  0.00  0.00    -0.030 A 
ATOM      9  C   LIG    1        0.003  -9.071   1.083  0.00  0.00    +0.070 A 
ATOM     10  C   LIG    1        1.066  -9.934   1.254  0.00  0.00    +0.030 A 
ATOM     11  C   LIG    1        2.361  -9.444   1.285  0.00  0.00    -0.020 A 
ATOM     12  C   LIG    1        2.599  -8.087   1.138  0.00  0.00    +0.030 A 
ATOM     13 CL   LIG    1        3.692 -10.535   1.509  0.00  0.00    -0.060 Cl
ATOM     14  C   LIG    1        1.545  -7.215   0.960  0.00  0.00    +0.070 A 
ENDBRANCH   4   8
BRANCH   6  15
ATOM     15  C   LIG    1       -4.024  -5.565   1.629  0.00  0.00    -0.030 A 
ATOM     16  C   LIG    1       -5.363  -5.700   1.612  0.00  0.00    -0.030 A 
ATOM     17  C   LIG    1       -5.828  -5.336   2.897  0.00  0.00    -0.060 A 
ATOM     18  C   LIG    1       -4.746  -4.999   3.622  0.00  0.00    +0.180 A 
ATOM     19  O   LIG    1       -3.656  -5.145   2.850  0.00  0.00    -0.170 OA
ENDBRANCH   6  15
BRANCH   1  20
ATOM     20  C   LIG    1       -0.974  -2.611   0.233  0.00  0.00    +0.100 C 
BRANCH  20  21
ATOM     21  S   LIG    1       -1.517  -0.897  -0.010  0.00  0.00    -0.040 S 
BRANCH  21  25
ATOM     22  C   LIG    1        2.380   1.416  -0.018  0.00  0.00    +0.140 A 
ATOM     23  C   LIG    1        1.175   2.086  -0.182  0.00  0.00    +0.040 A 
ATOM     24  C   LIG    1       -0.013   1.382  -0.180  0.00  0.00    +0.050 A 
ATOM     25  C   LIG    1       -0.002   0.002  -0.014  0.00  0.00    -0.110 A 
ATOM     26  C   LIG    1        1.204  -0.668   0.150  0.00  0.00    +0.020 A 
ATOM     27  C   LIG    1        2.391   0.037   0.148  0.00  0.00    +0.010 A 
BRANCH  22  30
ATOM     28  C   LIG    1        4.891   4.195   0.368  0.00  0.00    +0.110 C 
ATOM     29  C   LIG    1        3.627   3.382   0.478  0.00  0.00    +0.510 C 
ATOM     30  N   LIG    1        3.585   2.131  -0.021  0.00  0.00    -0.680 N 
ATOM     31  H   LIG    1        4.389   1.726  -0.383  0.00  0.00    +0.410 HD
ATOM     32  O   LIG    1        2.648   3.854   1.017  0.00  0.00    -0.520 OA
ENDBRANCH  22  30
ENDBRANCH  21  25
ENDBRANCH  20  21
ENDBRANCH   1  20
TORSDOF 6
