REMARK  Name = ZINCpk00000KfKus.0
REMARK                            x       y       z     vdW  Elec       q    Type
REMARK                         _______ _______ _______ _____ _____    ______ ____
ROOT
ATOM      1  N   LIG    1        3.608  -0.622  -0.036  0.00  0.00    -0.590 N 
ATOM      2  C   LIG    1        4.859   0.139  -0.160  0.00  0.00    +0.300 C 
ATOM      3  C   LIG    1        5.788  -0.256   0.998  0.00  0.00    +0.020 C 
ATOM      4  C   LIG    1        5.973  -1.775   1.000  0.00  0.00    +0.280 C 
ATOM      5  C   LIG    1        4.620  -2.456   1.215  0.00  0.00    +0.020 C 
ATOM      6  C   LIG    1        3.678  -2.086   0.065  0.00  0.00    +0.290 C 
ENDROOT
BRANCH   1  14
ATOM      7  C   LIG    1        1.082   2.023   0.063  0.00  0.00    +0.270 A 
ATOM      8  N   LIG    1       -0.020   1.304   0.011  0.00  0.00    -0.500 NA
ATOM      9  C   LIG    1        0.025  -0.031  -0.057  0.00  0.00    +0.490 A 
ATOM     10  N   LIG    1       -0.924  -0.958  -0.118  0.00  0.00    -0.540 NA
ATOM     11  C   LIG    1       -0.371  -2.163  -0.172  0.00  0.00    +0.490 A 
ATOM     12  N   LIG    1        0.934  -2.050  -0.147  0.00  0.00    -0.360 NA
ATOM     13  N   LIG    1        1.226  -0.683  -0.073  0.00  0.00    -0.360 N 
ATOM     14  C   LIG    1        2.392   0.025  -0.021  0.00  0.00    +0.500 A 
ATOM     15  C   LIG    1        2.329   1.404   0.049  0.00  0.00    -0.160 A 
BRANCH   7  16
ATOM     16  C   LIG    1        0.993   3.525   0.139  0.00  0.00    +0.130 C 
BRANCH  16  18
ATOM     17  C   LIG    1       -0.568   5.475   0.218  0.00  0.00    +0.000 C 
ATOM     18  C   LIG    1       -0.477   3.950   0.141  0.00  0.00    +0.030 C 
ENDBRANCH  16  18
ENDBRANCH   7  16
ENDBRANCH   1  14
BRANCH   4  19
ATOM     19  N   LIG    1        6.887  -2.154   2.081  0.00  0.00    -0.630 N 
ATOM     20  C   LIG    1        8.170  -2.851   1.907  0.00  0.00    +0.250 C 
ATOM     21  C   LIG    1        8.709  -2.996   3.344  0.00  0.00    +0.250 C 
ATOM     22  N   LIG    1        7.672  -2.365   4.175  0.00  0.00    -0.640 N 
ATOM     23  C   LIG    1        7.712  -2.242   5.634  0.00  0.00    +0.330 C 
ATOM     24  C   LIG    1        6.689  -1.914   3.384  0.00  0.00    +0.700 C 
ATOM     25  O   LIG    1        5.704  -1.343   3.811  0.00  0.00    -0.580 OA
ENDBRANCH   4  19
TORSDOF 4
