REMARK  Name = ZINCpe000000O08Q.0
REMARK                            x       y       z     vdW  Elec       q    Type
REMARK                         _______ _______ _______ _____ _____    ______ ____
ROOT
ATOM      1  C   LIG    1       -4.620   4.535   2.678  0.00  0.00    +0.220 C 
ATOM      2  C   LIG    1       -5.731   3.861   3.489  0.00  0.00    +0.040 C 
ATOM      3  C   LIG    1       -5.191   3.485   4.870  0.00  0.00    +0.020 C 
ATOM      4  C   LIG    1       -4.037   2.493   4.716  0.00  0.00    +0.010 C 
ATOM      5  C   LIG    1       -2.910   3.147   3.919  0.00  0.00    +0.280 C 
ATOM      6  N   LIG    1       -3.450   3.646   2.647  0.00  0.00    -0.600 N 
ATOM      7  C   LIG    1       -2.888   3.291   1.475  0.00  0.00    +0.520 C 
ATOM      8  O   LIG    1       -3.388   3.649   0.429  0.00  0.00    -0.500 OA
ENDROOT
BRANCH   1  12
ATOM      9  C   LIG    1       -5.493   6.265  -0.624  0.00  0.00    +0.290 C 
ATOM     10  N   LIG    1       -5.025   6.022   0.743  0.00  0.00    -0.740 N 
ATOM     11  H   LIG    1       -4.660   6.752   1.268  0.00  0.00    +0.400 HD
ATOM     12  C   LIG    1       -5.101   4.785   1.272  0.00  0.00    +0.530 C 
ATOM     13  O   LIG    1       -5.557   3.873   0.616  0.00  0.00    -0.520 OA
ENDBRANCH   1  12
BRANCH   7  14
ATOM     14  C   LIG    1       -1.639   2.448   1.463  0.00  0.00    +0.050 C 
BRANCH  14  15
ATOM     15  C   LIG    1       -1.212   2.189   0.017  0.00  0.00    +0.350 C 
BRANCH  15  16
ATOM     16  N   LIG    1        0.002   1.369   0.006  0.00  0.00    -0.580 N 
ATOM     17  C   LIG    1        1.254   1.863   0.013  0.00  0.00    +0.570 C 
ATOM     18  C   LIG    1        2.206   0.733  -0.010  0.00  0.00    -0.140 A 
ATOM     19  C   LIG    1        3.587   0.631  -0.014  0.00  0.00    +0.100 A 
ATOM     20  C   LIG    1        4.185  -0.620  -0.038  0.00  0.00    +0.050 A 
ATOM     21  C   LIG    1        3.412  -1.765  -0.057  0.00  0.00    +0.050 A 
ATOM     22  C   LIG    1        2.028  -1.679  -0.053  0.00  0.00    +0.100 A 
ATOM     23  C   LIG    1        1.417  -0.436  -0.030  0.00  0.00    -0.140 A 
ATOM     24  O   LIG    1        1.551   3.040   0.034  0.00  0.00    -0.460 OA
ATOM     25  C   LIG    1        0.013   0.025  -0.019  0.00  0.00    +0.570 C 
ATOM     26  O   LIG    1       -0.968  -0.692  -0.031  0.00  0.00    -0.460 OA
ENDBRANCH  15  16
ENDBRANCH  14  15
ENDBRANCH   7  14
TORSDOF 4
