REMARK  Name = ZINCrH000004qXNj.1
REMARK                            x       y       z     vdW  Elec       q    Type
REMARK                         _______ _______ _______ _____ _____    ______ ____
ROOT
ATOM      1  N   LIG    1       -5.814  -7.931   0.017  0.00  0.00    -0.590 N 
ATOM      2  H   LIG    1       -5.067  -8.550   0.006  0.00  0.00    +0.440 HD
ATOM      3  C   LIG    1       -5.587  -6.603   0.022  0.00  0.00    +0.510 C 
ATOM      4  O   LIG    1       -6.521  -5.827   0.036  0.00  0.00    -0.480 OA
ENDROOT
BRANCH   1   8
ATOM      5  C   LIG    1       -8.745  -9.943   0.036  0.00  0.00    +0.170 A 
ATOM      6  C   LIG    1       -9.564  -8.872   0.049  0.00  0.00    -0.110 A 
ATOM      7  S   LIG    1       -8.567  -7.418   0.055  0.00  0.00    +0.220 S 
ATOM      8  C   LIG    1       -7.114  -8.413   0.028  0.00  0.00    +0.270 A 
ATOM      9  N   LIG    1       -7.449  -9.666   0.024  0.00  0.00    -0.480 NA
BRANCH   5  14
ATOM     10  C   LIG    1      -11.520 -14.630   0.042  0.00  0.00    +0.140 C 
ATOM     11  C   LIG    1      -10.533 -13.491   0.036  0.00  0.00    -0.170 A 
ATOM     12  C   LIG    1       -9.205 -13.626   0.022  0.00  0.00    +0.000 A 
ATOM     13  C   LIG    1       -8.496 -12.441   0.020  0.00  0.00    +0.060 A 
ATOM     14  C   LIG    1       -9.258 -11.330   0.034  0.00  0.00    -0.140 A 
ATOM     15  S   LIG    1      -10.957 -11.784   0.056  0.00  0.00    +0.130 S 
ENDBRANCH   5  14
ENDBRANCH   1   8
BRANCH   3  16
ATOM     16  C   LIG    1       -4.187  -6.084   0.011  0.00  0.00    +0.520 C 
ATOM     17  N   LIG    1       -3.961  -4.755   0.016  0.00  0.00    -0.690 N 
ATOM     18  H   LIG    1       -4.707  -4.136   0.027  0.00  0.00    +0.420 HD
ATOM     19  O   LIG    1       -3.253  -6.859  -0.002  0.00  0.00    -0.500 OA
BRANCH  17  20
ATOM     20  C   LIG    1       -2.587  -4.247   0.005  0.00  0.00    +0.280 C 
BRANCH  20  21
ATOM     21  C   LIG    1       -2.610  -2.717   0.013  0.00  0.00    +0.010 C 
BRANCH  21  22
ATOM     22  C   LIG    1       -1.175  -2.185   0.002  0.00  0.00    +0.250 C 
BRANCH  22  23
ATOM     23  N   LIG    1       -1.197  -0.720   0.010  0.00  0.00    -0.750 N 
ATOM     24  H   LIG    1       -2.044  -0.248   0.021  0.00  0.00    +0.400 HD
BRANCH  23  25
ATOM     25  C   LIG    1        0.002  -0.004   0.002  0.00  0.00    +0.210 A 
ATOM     26  C   LIG    1       -0.017   1.385   0.010  0.00  0.00    -0.080 A 
ATOM     27  C   LIG    1        1.171   2.090   0.002  0.00  0.00    +0.050 A 
ATOM     28  C   LIG    1        2.377   1.415  -0.013  0.00  0.00    -0.060 A 
ATOM     29  C   LIG    1        2.400   0.032  -0.021  0.00  0.00    +0.050 A 
ATOM     30  C   LIG    1        1.216  -0.679  -0.013  0.00  0.00    -0.080 A 
ENDBRANCH  23  25
ENDBRANCH  22  23
ENDBRANCH  21  22
ENDBRANCH  20  21
ENDBRANCH  17  20
ENDBRANCH   3  16
TORSDOF 8
