REMARK  Name = ZINCpe00000MJKj0.0
REMARK                            x       y       z     vdW  Elec       q    Type
REMARK                         _______ _______ _______ _____ _____    ______ ____
ROOT
ATOM      1  C   LIG    1        6.979   2.085  -1.667  0.00  0.00    +0.530 C 
ATOM      2  N   LIG    1        5.943   1.866  -0.834  0.00  0.00    -0.620 N 
ATOM      3  C   LIG    1        6.016   1.833   0.634  0.00  0.00    +0.240 C 
ATOM      4  C   LIG    1        4.587   1.577   1.159  0.00  0.00    +0.060 C 
ATOM      5  C   LIG    1        3.695   2.042  -0.022  0.00  0.00    +0.050 C 
ATOM      6  C   LIG    1        4.548   1.617  -1.243  0.00  0.00    +0.280 C 
ATOM      7  O   LIG    1        6.802   2.089  -2.867  0.00  0.00    -0.530 OA
ENDROOT
BRANCH   5   8
ATOM      8  C   LIG    1        2.370   1.324  -0.013  0.00  0.00    +0.240 A 
ATOM      9  C   LIG    1        1.208   2.038   0.002  0.00  0.00    -0.190 A 
ATOM     10  C   LIG    1       -0.016   1.346   0.009  0.00  0.00    +0.540 A 
ATOM     11  N   LIG    1        0.002  -0.004   0.002  0.00  0.00    -0.650 N 
ATOM     12  H   LIG    1       -0.830  -0.502   0.007  0.00  0.00    +0.410 HD
ATOM     13  C   LIG    1        1.192  -0.663  -0.013  0.00  0.00    +0.640 A 
ATOM     14  O   LIG    1       -1.074   1.953   0.018  0.00  0.00    -0.540 OA
ATOM     15  N   LIG    1        2.335  -0.007  -0.020  0.00  0.00    -0.590 NA
BRANCH  13  16
ATOM     16  N   LIG    1        1.202  -2.032  -0.020  0.00  0.00    -0.590 N 
ATOM     17  C   LIG    1       -0.061  -2.775  -0.011  0.00  0.00    +0.300 C 
ATOM     18  C   LIG    1        2.477  -2.755  -0.036  0.00  0.00    +0.330 C 
ENDBRANCH  13  16
ENDBRANCH   5   8
BRANCH   1  19
ATOM     19  C   LIG    1        8.357   2.326  -1.108  0.00  0.00    +0.150 C 
BRANCH  19  22
ATOM     20  C   LIG    1        8.907   5.037  -2.569  0.00  0.00    +0.140 C 
ATOM     21  C   LIG    1        9.565   3.716  -2.872  0.00  0.00    +0.100 A 
ATOM     22  C   LIG    1        9.328   2.543  -2.240  0.00  0.00    -0.230 A 
ATOM     23  C   LIG    1       10.138   1.566  -2.828  0.00  0.00    +0.240 A 
ATOM     24  N   LIG    1       10.840   2.133  -3.775  0.00  0.00    -0.300 NA
ATOM     25  N   LIG    1       10.499   3.491  -3.820  0.00  0.00    -0.370 N 
ATOM     26  C   LIG    1       11.053   4.489  -4.738  0.00  0.00    +0.350 C 
ENDBRANCH  19  22
ENDBRANCH   1  19
TORSDOF 4
