REMARK  Name = ZINCkj000005lr9x.1
REMARK                            x       y       z     vdW  Elec       q    Type
REMARK                         _______ _______ _______ _____ _____    ______ ____
ROOT
ATOM      1  C   LIG    1       -0.699   1.479   1.216  0.00  0.00    +0.020 C 
ATOM      2  C   LIG    1       -1.192   2.883   1.010  0.00  0.00    +0.100 C 
ATOM      3  C   LIG    1       -2.492   2.724   0.181  0.00  0.00    +0.050 C 
ATOM      4  C   LIG    1       -2.783   1.188   0.145  0.00  0.00    +0.050 C 
ATOM      5  C   LIG    1        0.007   0.964   2.447  0.00  0.00    +0.340 C 
ATOM      6  N   LIG    1       -0.298  -0.500   2.400  0.00  0.00    -0.640 N 
ATOM      7  C   LIG    1        0.439  -1.482   2.955  0.00  0.00    +0.620 C 
ATOM      8  O   LIG    1        1.456  -1.210   3.562  0.00  0.00    -0.480 OA
ATOM      9  C   LIG    1       -1.564  -0.680   1.630  0.00  0.00    +0.290 C 
ATOM     10  C   LIG    1       -2.070   0.715   1.389  0.00  0.00    +0.020 C 
ENDROOT
BRANCH   7  11
ATOM     11  C   LIG    1        0.010  -2.890   2.827  0.00  0.00    +0.030 A 
ATOM     12  N   LIG    1       -1.067  -3.329   2.206  0.00  0.00    -0.250 NA
ATOM     13  N   LIG    1       -1.131  -4.609   2.285  0.00  0.00    -0.370 N 
ATOM     14  H   LIG    1       -1.835  -5.154   1.901  0.00  0.00    +0.460 HD
ATOM     15  C   LIG    1       -0.080  -5.087   2.986  0.00  0.00    +0.290 A 
ATOM     16  C   LIG    1        0.674  -4.024   3.352  0.00  0.00    -0.250 A 
BRANCH  16  17
ATOM     17  C   LIG    1        1.953  -4.044   4.149  0.00  0.00    +0.550 C 
ATOM     18  F   LIG    1        1.783  -3.298   5.321  0.00  0.00    -0.160 F 
ATOM     19  F   LIG    1        2.986  -3.488   3.388  0.00  0.00    -0.170 F 
ATOM     20  F   LIG    1        2.276  -5.364   4.480  0.00  0.00    -0.170 F 
ENDBRANCH  16  17
ENDBRANCH   7  11
BRANCH   1  21
ATOM     21  N   LIG    1       -0.012   1.005   0.008  0.00  0.00    -0.630 N 
ATOM     22  H   LIG    1       -0.500   1.339  -0.810  0.00  0.00    +0.440 HD
ATOM     23  H   LIG    1        0.935   1.354   0.000  0.00  0.00    +0.440 HD
ATOM     24  H   LIG    1        0.002  -0.004   0.002  0.00  0.00    +0.430 HD
ENDBRANCH   1  21
TORSDOF 3
