REMARK  Name = ZINCkj000005lr9x.0
REMARK                            x       y       z     vdW  Elec       q    Type
REMARK                         _______ _______ _______ _____ _____    ______ ____
ROOT
ATOM      1  C   LIG    1       -0.018   1.505   0.010  0.00  0.00    +0.020 C 
ATOM      2  C   LIG    1       -0.470   2.383  -1.123  0.00  0.00    +0.100 C 
ATOM      3  C   LIG    1        0.469   3.625  -1.041  0.00  0.00    +0.050 C 
ATOM      4  C   LIG    1        1.543   3.276   0.041  0.00  0.00    +0.050 C 
ATOM      5  C   LIG    1        0.002  -0.004   0.002  0.00  0.00    +0.360 C 
ATOM      6  N   LIG    1        1.045  -0.314   1.030  0.00  0.00    -0.650 N 
ATOM      7  C   LIG    1        1.137  -1.449   1.751  0.00  0.00    +0.610 C 
ATOM      8  O   LIG    1        0.322  -2.338   1.591  0.00  0.00    -0.460 OA
ATOM      9  C   LIG    1        1.966   0.857   1.115  0.00  0.00    +0.270 C 
ATOM     10  C   LIG    1        1.539   1.766  -0.003  0.00  0.00    +0.030 C 
ENDROOT
BRANCH   7  11
ATOM     11  C   LIG    1        2.222  -1.613   2.731  0.00  0.00    +0.010 A 
ATOM     12  C   LIG    1        2.450  -2.711   3.542  0.00  0.00    -0.210 A 
ATOM     13  C   LIG    1        3.587  -2.391   4.288  0.00  0.00    +0.280 A 
ATOM     14  N   LIG    1        3.979  -1.195   3.928  0.00  0.00    -0.250 NA
ATOM     15  N   LIG    1        3.210  -0.715   3.018  0.00  0.00    -0.370 N 
ATOM     16  H   LIG    1        3.314   0.155   2.600  0.00  0.00    +0.450 HD
BRANCH  12  17
ATOM     17  C   LIG    1        1.643  -3.982   3.607  0.00  0.00    +0.550 C 
ATOM     18  F   LIG    1        1.648  -4.603   2.353  0.00  0.00    -0.170 F 
ATOM     19  F   LIG    1        0.327  -3.681   3.972  0.00  0.00    -0.170 F 
ATOM     20  F   LIG    1        2.205  -4.843   4.556  0.00  0.00    -0.170 F 
ENDBRANCH  12  17
ENDBRANCH   7  11
BRANCH   1  21
ATOM     21  N   LIG    1       -0.597   1.992   1.270  0.00  0.00    -0.630 N 
ATOM     22  H   LIG    1       -1.546   1.661   1.354  0.00  0.00    +0.440 HD
ATOM     23  H   LIG    1       -0.592   3.002   1.274  0.00  0.00    +0.440 HD
ATOM     24  H   LIG    1       -0.051   1.650   2.046  0.00  0.00    +0.430 HD
ENDBRANCH   1  21
TORSDOF 3
