REMARK  Name = ZINCqH0000007P4M.0
REMARK                            x       y       z     vdW  Elec       q    Type
REMARK                         _______ _______ _______ _____ _____    ______ ____
ROOT
ATOM      1  C   LIG    1        1.133   1.930   0.002  0.00  0.00    +0.360 A 
ATOM      2  N   LIG    1       -0.016   1.328   0.009  0.00  0.00    -0.550 NA
ATOM      3  C   LIG    1        0.002  -0.004   0.002  0.00  0.00    +0.150 A 
ATOM      4  C   LIG    1        1.224  -0.562  -0.013  0.00  0.00    -0.100 A 
ATOM      5  S   LIG    1        2.422   0.730  -0.017  0.00  0.00    +0.060 S 
ENDROOT
BRANCH   3   6
ATOM      6  C   LIG    1       -1.240  -0.815   0.010  0.00  0.00    -0.010 A 
ATOM      7  C   LIG    1       -1.165  -2.206  -0.004  0.00  0.00    +0.050 A 
ATOM      8  C   LIG    1       -2.321  -2.963   0.009  0.00  0.00    +0.040 A 
ATOM      9  C   LIG    1       -3.557  -2.340   0.025  0.00  0.00    +0.080 A 
ATOM     10  O   LIG    1       -4.701  -3.076   0.035  0.00  0.00    -0.300 OA
ATOM     11  C   LIG    1       -5.814  -2.524   0.743  0.00  0.00    +0.300 C 
ATOM     12  C   LIG    1       -5.983  -1.073   0.370  0.00  0.00    +0.490 C 
ATOM     13  N   LIG    1       -4.899  -0.334   0.046  0.00  0.00    -0.660 N 
ATOM     14  H   LIG    1       -4.992   0.606  -0.172  0.00  0.00    +0.420 HD
ATOM     15  O   LIG    1       -7.087  -0.571   0.359  0.00  0.00    -0.510 OA
ATOM     16  C   LIG    1       -3.638  -0.947   0.032  0.00  0.00    +0.090 A 
ATOM     17  C   LIG    1       -2.484  -0.185   0.025  0.00  0.00    +0.050 A 
ENDBRANCH   3   6
BRANCH   1  18
ATOM     18  N   LIG    1        1.318   3.303   0.006  0.00  0.00    -0.680 N 
ATOM     19  H   LIG    1        0.550   3.895   0.016  0.00  0.00    +0.410 HD
BRANCH  18  20
ATOM     20  C   LIG    1        2.673   3.860  -0.004  0.00  0.00    +0.340 C 
BRANCH  20  26
ATOM     21  C   LIG    1        2.359   6.042   1.192  0.00  0.00    +0.150 A 
ATOM     22  C   LIG    1        2.296   7.428   1.196  0.00  0.00    -0.080 A 
ATOM     23  C   LIG    1        2.458   8.130   0.017  0.00  0.00    +0.060 A 
ATOM     24  C   LIG    1        2.690   7.452  -1.165  0.00  0.00    -0.030 A 
ATOM     25  C   LIG    1        2.759   6.071  -1.172  0.00  0.00    +0.070 A 
ATOM     26  C   LIG    1        2.597   5.365   0.004  0.00  0.00    -0.150 A 
BRANCH  21  28
ATOM     27  C   LIG    1        1.952   6.112   3.533  0.00  0.00    +0.250 C 
ATOM     28  O   LIG    1        2.194   5.349   2.349  0.00  0.00    -0.310 OA
ENDBRANCH  21  28
ENDBRANCH  20  26
ENDBRANCH  18  20
ENDBRANCH   1  18
TORSDOF 5
