REMARK  Name = ZINC9l0000002ohw.0
REMARK                            x       y       z     vdW  Elec       q    Type
REMARK                         _______ _______ _______ _____ _____    ______ ____
ROOT
ATOM      1  C   LIG    1        1.483   2.019   0.076  0.00  0.00    -0.100 C 
ATOM      2  C   LIG    1        2.294   1.440  -1.084  0.00  0.00    +0.010 C 
ENDROOT
BRANCH   1   3
ATOM      3  C   LIG    1        2.088   1.577   1.383  0.00  0.00    +0.500 C 
ATOM      4  O   LIG    1        1.371   1.350   2.342  0.00  0.00    -0.700 OA
ATOM      5  O   LIG    1        3.297   1.445   1.482  0.00  0.00    -0.710 OA
ENDBRANCH   1   3
BRANCH   1   6
ATOM      6  C   LIG    1        0.039   1.521  -0.011  0.00  0.00    +0.030 C 
ATOM      7  C   LIG    1       -0.620   2.085  -1.272  0.00  0.00    +0.010 C 
BRANCH   6   9
ATOM      8  C   LIG    1       -0.586  -0.674   0.856  0.00  0.00    -0.010 C 
ATOM      9  C   LIG    1        0.031   0.015  -0.072  0.00  0.00    -0.030 C 
ENDBRANCH   6   9
ENDBRANCH   1   6
TORSDOF 3
