REMARK  Name = ZINCqH0000065Jq0.0
REMARK                            x       y       z     vdW  Elec       q    Type
REMARK                         _______ _______ _______ _____ _____    ______ ____
ROOT
ATOM      1  C   LIG    1       -1.161   2.210   0.020  0.00  0.00    +0.420 C 
ATOM      2  O   LIG    1       -1.032   3.417   0.025  0.00  0.00    -0.440 OA
ENDROOT
BRANCH   1   8
ATOM      3  C   LIG    1        3.544   0.710  -0.028  0.00  0.00    -0.080 A 
ATOM      4  C   LIG    1        2.155   0.625  -0.015  0.00  0.00    +0.080 A 
ATOM      5  N   LIG    1        1.276  -0.439  -0.013  0.00  0.00    -0.560 N 
ATOM      6  H   LIG    1        1.540  -1.373  -0.019  0.00  0.00    +0.420 HD
ATOM      7  C   LIG    1        0.002  -0.004   0.002  0.00  0.00    +0.330 A 
ATOM      8  C   LIG    1       -0.017   1.374   0.010  0.00  0.00    -0.270 A 
ATOM      9  C   LIG    1        1.395   1.805  -0.002  0.00  0.00    -0.050 A 
ATOM     10  C   LIG    1        2.028   3.044  -0.001  0.00  0.00    +0.050 A 
ATOM     11  C   LIG    1        3.405   3.108  -0.015  0.00  0.00    +0.000 A 
ATOM     12  C   LIG    1        4.158   1.943  -0.028  0.00  0.00    +0.030 A 
BRANCH   3  14
ATOM     13  C   LIG    1        4.538  -1.034  -1.485  0.00  0.00    +0.020 C 
ATOM     14  C   LIG    1        4.376  -0.547  -0.043  0.00  0.00    +0.060 C 
ENDBRANCH   3  14
ENDBRANCH   1   8
BRANCH   1  15
ATOM     15  C   LIG    1       -2.539   1.600   0.024  0.00  0.00    +0.220 C 
BRANCH  15  16
ATOM     16  O   LIG    1       -3.536   2.656   0.035  0.00  0.00    -0.320 OA
BRANCH  16  17
ATOM     17  C   LIG    1       -4.829   2.277   0.039  0.00  0.00    +0.560 C 
ATOM     18  O   LIG    1       -5.116   1.096   0.035  0.00  0.00    -0.520 OA
BRANCH  17  19
ATOM     19  C   LIG    1       -5.894   3.293   0.050  0.00  0.00    -0.050 A 
ATOM     20  C   LIG    1       -7.238   3.054   0.050  0.00  0.00    +0.240 A 
ATOM     21  N   LIG    1       -7.851   4.260   0.066  0.00  0.00    -0.440 N 
ATOM     22  C   LIG    1       -6.886   5.216   0.065  0.00  0.00    +0.400 A 
ATOM     23  N   LIG    1       -5.719   4.640   0.056  0.00  0.00    -0.440 NA
BRANCH  21  24
ATOM     24  C   LIG    1       -9.298   4.494   0.074  0.00  0.00    +0.150 C 
ATOM     25  C   LIG    1       -9.909   3.857   1.323  0.00  0.00    +0.060 C 
ATOM     26  C   LIG    1       -9.922   3.869  -1.175  0.00  0.00    +0.060 C 
ATOM     27  C   LIG    1       -9.571   5.999   0.083  0.00  0.00    +0.070 C 
ENDBRANCH  21  24
ENDBRANCH  17  19
ENDBRANCH  16  17
ENDBRANCH  15  16
ENDBRANCH   1  15
TORSDOF 7
