REMARK  Name = ZINCrD000000AMWy.0
REMARK                            x       y       z     vdW  Elec       q    Type
REMARK                         _______ _______ _______ _____ _____    ______ ____
ROOT
ATOM      1  C   LIG    1       -0.061   5.351   0.029  0.00  0.00    +0.230 C 
ENDROOT
BRANCH   1   2
ATOM      2  C   LIG    1       -0.044   3.845   0.022  0.00  0.00    -0.100 A 
ATOM      3  C   LIG    1        1.160   3.167   0.007  0.00  0.00    +0.090 A 
ATOM      4  C   LIG    1        1.176   1.783   0.000  0.00  0.00    -0.070 A 
ATOM      5  C   LIG    1       -0.013   1.076   0.008  0.00  0.00    +0.070 A 
ATOM      6  C   LIG    1       -1.219   1.750   0.017  0.00  0.00    -0.060 A 
ATOM      7 CL   LIG    1        2.690   0.934  -0.019  0.00  0.00    -0.070 Cl
ATOM      8  C   LIG    1       -1.237   3.137   0.030  0.00  0.00    +0.140 A 
BRANCH   8   9
ATOM      9  O   LIG    1       -2.422   3.801   0.044  0.00  0.00    -0.300 OA
BRANCH   9  10
ATOM     10  C   LIG    1       -3.611   3.008   0.051  0.00  0.00    +0.210 C 
BRANCH  10  11
ATOM     11  C   LIG    1       -4.836   3.925   0.067  0.00  0.00    +0.160 C 
ATOM     12  C   LIG    1       -6.122   3.084  -0.052  0.00  0.00    +0.010 C 
ATOM     13  C   LIG    1       -6.924   3.435   1.225  0.00  0.00    +0.000 C 
ATOM     14  C   LIG    1       -6.300   4.793   1.637  0.00  0.00    +0.210 C 
ATOM     15  O   LIG    1       -4.901   4.632   1.316  0.00  0.00    -0.360 OA
ENDBRANCH  10  11
ENDBRANCH   9  10
ENDBRANCH   8   9
ENDBRANCH   1   2
BRANCH   1  19
ATOM     16  C   LIG    1       -1.576   7.355   3.489  0.00  0.00    +0.230 C 
ATOM     17  C   LIG    1       -0.191   7.723   2.951  0.00  0.00    +0.030 C 
ATOM     18  C   LIG    1       -0.083   7.282   1.490  0.00  0.00    +0.180 C 
ATOM     19  N   LIG    1       -0.294   5.832   1.398  0.00  0.00    -0.530 NA
ATOM     20  C   LIG    1       -1.635   5.460   1.865  0.00  0.00    +0.190 C 
ATOM     21  C   LIG    1       -1.790   5.847   3.338  0.00  0.00    +0.020 C 
BRANCH  16  24
ATOM     22  O   LIG    1       -3.874   7.896   4.790  0.00  0.00    -0.540 OA
ATOM     23  C   LIG    1       -2.867   7.974   5.461  0.00  0.00    +0.540 C 
ATOM     24  N   LIG    1       -1.665   7.723   4.904  0.00  0.00    -0.720 N 
ATOM     25  H   LIG    1       -0.860   7.785   5.441  0.00  0.00    +0.400 HD
BRANCH  23  26
ATOM     26  C   LIG    1       -2.958   8.352   6.917  0.00  0.00    -0.080 C 
ATOM     27  C   LIG    1       -3.602   7.343   7.870  0.00  0.00    +0.050 C 
ATOM     28  C   LIG    1       -4.350   8.623   7.491  0.00  0.00    +0.060 C 
ENDBRANCH  23  26
ENDBRANCH  16  24
ENDBRANCH   1  19
TORSDOF 7
