REMARK  Name = ZINCvU0000000EKF.0
REMARK                            x       y       z     vdW  Elec       q    Type
REMARK                         _______ _______ _______ _____ _____    ______ ____
ROOT
ATOM      1  C   LIG    1        1.179   3.044  -0.347  0.00  0.00    -0.060 A 
ATOM      2  C   LIG    1       -0.016   3.756  -0.349  0.00  0.00    -0.020 A 
ATOM      3  C   LIG    1       -1.214   3.095  -0.173  0.00  0.00    +0.060 A 
ATOM      4  C   LIG    1       -1.239   1.720  -0.000  0.00  0.00    -0.010 A 
ATOM      5  C   LIG    1       -0.065   0.998   0.010  0.00  0.00    +0.070 A 
ATOM      6  C   LIG    1        1.157   1.651  -0.166  0.00  0.00    -0.130 A 
ENDROOT
BRANCH   6   7
ATOM      7  C   LIG    1        2.415   0.885  -0.161  0.00  0.00    +0.550 C 
ATOM      8  N   LIG    1        2.390  -0.451   0.013  0.00  0.00    -0.670 N 
ATOM      9  H   LIG    1        1.541  -0.918   0.062  0.00  0.00    +0.410 HD
ATOM     10  O   LIG    1        3.477   1.458  -0.315  0.00  0.00    -0.490 OA
BRANCH   8  11
ATOM     11  C   LIG    1        3.587  -1.165   0.124  0.00  0.00    +0.150 A 
ATOM     12  C   LIG    1        4.692  -0.583   0.732  0.00  0.00    +0.020 A 
ATOM     13  C   LIG    1        5.871  -1.292   0.839  0.00  0.00    +0.030 A 
ATOM     14  C   LIG    1        5.958  -2.582   0.343  0.00  0.00    -0.110 A 
ATOM     15  C   LIG    1        7.120  -3.553   0.339  0.00  0.00    +0.080 C 
ATOM     16  C   LIG    1        6.752  -4.619  -0.716  0.00  0.00    +0.030 C 
ATOM     17  C   LIG    1        5.209  -4.567  -0.715  0.00  0.00    +0.080 C 
ATOM     18  C   LIG    1        4.860  -3.165  -0.262  0.00  0.00    -0.080 A 
ATOM     19  C   LIG    1        3.674  -2.460  -0.367  0.00  0.00    -0.010 A 
ENDBRANCH   8  11
ENDBRANCH   6   7
BRANCH   1  20
ATOM     20  S   LIG    1        2.711   3.885  -0.570  0.00  0.00    +0.090 S 
BRANCH  20  21
ATOM     21  C   LIG    1        2.203   5.617  -0.755  0.00  0.00    +0.030 C 
BRANCH  21  24
ATOM     22  N   LIG    1        3.287   7.810  -1.119  0.00  0.00    -0.670 N 
ATOM     23  H   LIG    1        2.402   8.205  -1.171  0.00  0.00    +0.410 HD
ATOM     24  C   LIG    1        3.422   6.479  -0.957  0.00  0.00    +0.530 C 
ATOM     25  O   LIG    1        4.525   5.975  -0.975  0.00  0.00    -0.490 OA
BRANCH  22  30
ATOM     26  C   LIG    1        6.684   8.963  -1.938  0.00  0.00    +0.150 A 
ATOM     27  C   LIG    1        6.667  10.237  -1.388  0.00  0.00    -0.090 A 
ATOM     28  C   LIG    1        5.531  10.701  -0.751  0.00  0.00    +0.070 A 
ATOM     29  C   LIG    1        4.409   9.901  -0.666  0.00  0.00    -0.050 A 
ATOM     30  C   LIG    1        4.422   8.623  -1.210  0.00  0.00    +0.180 A 
ATOM     31  C   LIG    1        5.561   8.155  -1.850  0.00  0.00    +0.000 A 
BRANCH  26  33
ATOM     32  C   LIG    1        8.921   9.394  -2.618  0.00  0.00    +0.250 C 
ATOM     33  O   LIG    1        7.802   8.508  -2.564  0.00  0.00    -0.310 OA
ENDBRANCH  26  33
ENDBRANCH  22  30
ENDBRANCH  21  24
ENDBRANCH  20  21
ENDBRANCH   1  20
TORSDOF 7
