REMARK  Name = ZINCrg00000AaMei.0
REMARK                            x       y       z     vdW  Elec       q    Type
REMARK                         _______ _______ _______ _____ _____    ______ ____
ROOT
ATOM      1  N   LIG    1       -2.401  -2.599   0.001  0.00  0.00    -0.440 N 
ATOM      2  C   LIG    1       -3.005  -1.566   0.655  0.00  0.00    +0.480 A 
ATOM      3  N   LIG    1       -2.358  -0.460   0.431  0.00  0.00    -0.460 NA
ATOM      4  C   LIG    1       -1.300  -0.711  -0.378  0.00  0.00    -0.060 A 
ATOM      5  C   LIG    1       -0.277   0.072  -0.939  0.00  0.00    +0.420 A 
ATOM      6  N   LIG    1        0.622  -0.523  -1.716  0.00  0.00    -0.520 NA
ATOM      7  C   LIG    1        0.569  -1.822  -1.952  0.00  0.00    +0.540 A 
ATOM      8  N   LIG    1       -0.370  -2.594  -1.447  0.00  0.00    -0.530 NA
ATOM      9  C   LIG    1       -1.315  -2.087  -0.663  0.00  0.00    +0.290 A 
ENDROOT
BRANCH   5  10
ATOM     10  N   LIG    1       -0.211   1.432  -0.693  0.00  0.00    -0.440 N 
ATOM     11  C   LIG    1       -1.392   2.135  -1.262  0.00  0.00    +0.210 C 
ATOM     12  C   LIG    1       -0.936   3.597  -1.409  0.00  0.00    -0.060 C 
ATOM     13  C   LIG    1        0.599   3.544  -1.491  0.00  0.00    +0.040 C 
ATOM     14  C   LIG    1       -1.511   4.202  -2.686  0.00  0.00    +0.010 C 
ATOM     15  C   LIG    1       -1.094   5.673  -2.779  0.00  0.00    +0.210 C 
ATOM     16  O   LIG    1       -1.529   6.364  -1.606  0.00  0.00    -0.380 OA
ATOM     17  C   LIG    1       -0.959   5.872  -0.391  0.00  0.00    +0.210 C 
ATOM     18  C   LIG    1       -1.371   4.410  -0.193  0.00  0.00    +0.020 C 
ATOM     19  C   LIG    1        0.951   2.043  -1.390  0.00  0.00    +0.160 C 
BRANCH  19  20
ATOM     20  C   LIG    1        2.228   1.848  -0.571  0.00  0.00    +0.190 C 
BRANCH  20  21
ATOM     21  O   LIG    1        2.555   0.458  -0.522  0.00  0.00    -0.550 OA
ATOM     22  H   LIG    1        3.356   0.260  -0.018  0.00  0.00    +0.370 HD
ENDBRANCH  20  21
ENDBRANCH  19  20
ENDBRANCH   5  10
BRANCH   1  23
ATOM     23  C   LIG    1       -2.832  -3.999   0.008  0.00  0.00    +0.050 C 
ATOM     24  C   LIG    1       -3.631  -4.498  -1.198  0.00  0.00    +0.070 C 
ATOM     25  C   LIG    1       -4.330  -4.277   0.146  0.00  0.00    +0.070 C 
BRANCH  23  27
ATOM     26  C   LIG    1       -2.383  -6.411   0.481  0.00  0.00    +0.040 C 
ATOM     27  C   LIG    1       -1.867  -4.984   0.671  0.00  0.00    +0.250 C 
BRANCH  27  28
ATOM     28  O   LIG    1       -1.774  -4.692   2.067  0.00  0.00    -0.550 OA
ATOM     29  H   LIG    1       -2.616  -4.756   2.539  0.00  0.00    +0.370 HD
ENDBRANCH  27  28
ENDBRANCH  23  27
ENDBRANCH   1  23
TORSDOF 6
