REMARK  Name = ZINCpe000000WgVm.0
REMARK                            x       y       z     vdW  Elec       q    Type
REMARK                         _______ _______ _______ _____ _____    ______ ____
ROOT
ATOM      1  C   LIG    1       -0.014   1.212   0.009  0.00  0.00    +0.570 C 
ATOM      2  N   LIG    1       -1.191   1.870   0.018  0.00  0.00    -0.510 N 
ATOM      3  H   LIG    1       -1.204   2.840   0.023  0.00  0.00    +0.430 HD
ATOM      4  O   LIG    1        0.002  -0.004   0.002  0.00  0.00    -0.530 OA
ENDROOT
BRANCH   1   7
ATOM      5  C   LIG    1        3.660   1.996  -0.023  0.00  0.00    +0.140 A 
ATOM      6  C   LIG    1        2.474   1.286  -0.015  0.00  0.00    -0.020 A 
ATOM      7  C   LIG    1        1.254   1.967   0.001  0.00  0.00    -0.060 A 
ATOM      8  C   LIG    1        1.236   3.364   0.003  0.00  0.00    -0.060 A 
ATOM      9  C   LIG    1        2.425   4.069  -0.001  0.00  0.00    +0.150 A 
ATOM     10  C   LIG    1        3.639   3.388  -0.015  0.00  0.00    +0.060 A 
BRANCH   5  12
ATOM     11  C   LIG    1        4.794  -0.094  -0.045  0.00  0.00    +0.250 C 
ATOM     12  O   LIG    1        4.848   1.334  -0.038  0.00  0.00    -0.300 OA
ENDBRANCH   5  12
BRANCH   9  13
ATOM     13  O   LIG    1        2.409   5.429   0.006  0.00  0.00    -0.300 OA
ATOM     14  C   LIG    1        1.128   6.062   0.021  0.00  0.00    +0.250 C 
ENDBRANCH   9  13
BRANCH  10  15
ATOM     15  O   LIG    1        4.807   4.083  -0.023  0.00  0.00    -0.310 OA
ATOM     16  C   LIG    1        5.352   4.422  -1.300  0.00  0.00    +0.240 C 
ENDBRANCH  10  15
ENDBRANCH   1   7
BRANCH   2  17
ATOM     17  N   LIG    1       -2.394   1.153   0.020  0.00  0.00    -0.520 N 
ATOM     18  H   LIG    1       -2.381   0.183   0.014  0.00  0.00    +0.430 HD
ATOM     19  C   LIG    1       -3.571   1.811   0.029  0.00  0.00    +0.580 C 
ATOM     20  O   LIG    1       -3.587   3.027   0.035  0.00  0.00    -0.540 OA
BRANCH  19  21
ATOM     21  C   LIG    1       -4.837   1.056   0.031  0.00  0.00    -0.250 A 
ATOM     22  C   LIG    1       -6.045   1.724   0.046  0.00  0.00    +0.420 A 
ATOM     23  N   LIG    1       -7.204   1.040   0.043  0.00  0.00    -0.600 N 
ATOM     24  H   LIG    1       -8.044   1.524   0.051  0.00  0.00    +0.430 HD
ATOM     25  C   LIG    1       -7.215  -0.306   0.036  0.00  0.00    +0.520 A 
ATOM     26  C   LIG    1       -6.008  -1.030   0.025  0.00  0.00    -0.070 A 
ATOM     27  O   LIG    1       -8.278  -0.902   0.038  0.00  0.00    -0.530 OA
ATOM     28  C   LIG    1       -4.825  -0.360   0.023  0.00  0.00    +0.140 A 
ENDBRANCH  19  21
ENDBRANCH   2  17
TORSDOF 6
