REMARK  Name = ZINCpk000005DbMT.0
REMARK                            x       y       z     vdW  Elec       q    Type
REMARK                         _______ _______ _______ _____ _____    ______ ____
ROOT
ATOM      1  N   LIG    1       -0.666   1.269   3.867  0.00  0.00    -0.710 N 
ATOM      2  H   LIG    1       -1.586   1.470   4.100  0.00  0.00    +0.410 HD
ATOM      3  C   LIG    1       -0.206   1.550   2.632  0.00  0.00    +0.490 C 
ATOM      4  O   LIG    1        0.944   1.298   2.341  0.00  0.00    -0.530 OA
ENDROOT
BRANCH   1   6
ATOM      5  C   LIG    1        1.026   1.754   5.565  0.00  0.00    +0.030 C 
ATOM      6  C   LIG    1        0.224   0.659   4.859  0.00  0.00    +0.240 C 
BRANCH   6   7
ATOM      7  C   LIG    1       -0.609  -0.108   5.888  0.00  0.00    -0.020 C 
ATOM      8  C   LIG    1        0.201  -1.136   6.698  0.00  0.00    +0.230 C 
ATOM      9  N   LIG    1       -0.957  -2.039   6.523  0.00  0.00    -0.420 N 
ATOM     10  C   LIG    1       -1.364  -1.314   5.299  0.00  0.00    +0.240 C 
BRANCH   9  11
ATOM     11  C   LIG    1       -0.543  -3.325   6.223  0.00  0.00    +0.460 A 
ATOM     12  N   LIG    1       -0.561  -3.733   4.963  0.00  0.00    -0.550 NA
ATOM     13  C   LIG    1       -0.166  -4.954   4.641  0.00  0.00    +0.340 A 
ATOM     14  C   LIG    1        0.260  -5.812   5.642  0.00  0.00    -0.100 A 
ATOM     15  C   LIG    1        0.261  -5.355   6.951  0.00  0.00    +0.340 A 
ATOM     16  N   LIG    1       -0.142  -4.121   7.204  0.00  0.00    -0.510 NA
ENDBRANCH   9  11
ENDBRANCH   6   7
ENDBRANCH   1   6
BRANCH   3  17
ATOM     17  C   LIG    1       -1.122   2.177   1.612  0.00  0.00    +0.130 C 
ATOM     18  C   LIG    1       -1.126   3.696   1.796  0.00  0.00    +0.090 C 
BRANCH  17  19
ATOM     19  O   LIG    1       -2.447   1.671   1.787  0.00  0.00    -0.540 OA
ATOM     20  H   LIG    1       -2.519   0.713   1.684  0.00  0.00    +0.380 HD
ENDBRANCH  17  19
BRANCH  17  21
ATOM     21  C   LIG    1       -0.627   1.835   0.205  0.00  0.00    +0.090 C 
BRANCH  21  22
ATOM     22  C   LIG    1       -1.468   2.561  -0.813  0.00  0.00    -0.080 A 
ATOM     23  C   LIG    1       -2.605   1.963  -1.324  0.00  0.00    +0.020 A 
ATOM     24  C   LIG    1       -3.379   2.631  -2.254  0.00  0.00    +0.000 A 
ATOM     25  C   LIG    1       -3.011   3.893  -2.682  0.00  0.00    +0.000 A 
ATOM     26  C   LIG    1       -1.871   4.489  -2.175  0.00  0.00    +0.000 A 
ATOM     27  C   LIG    1       -1.100   3.823  -1.241  0.00  0.00    +0.000 A 
ENDBRANCH  21  22
ENDBRANCH  17  21
ENDBRANCH   3  17
TORSDOF 7
