REMARK  Name = ZINCpe00000yzTUE.0
REMARK                            x       y       z     vdW  Elec       q    Type
REMARK                         _______ _______ _______ _____ _____    ______ ____
ROOT
ATOM      1  C   LIG    1        1.349  -0.293   0.403  0.00  0.00    +0.030 C 
ATOM      2  C   LIG    1        2.130   0.985   0.799  0.00  0.00    +0.290 C 
ATOM      3  N   LIG    1        1.359   2.070   0.149  0.00  0.00    -0.610 N 
ATOM      4  C   LIG    1       -0.061   1.707   0.307  0.00  0.00    +0.230 C 
ATOM      5  C   LIG    1        1.855   3.164  -0.462  0.00  0.00    +0.580 C 
ATOM      6  O   LIG    1        3.053   3.371  -0.461  0.00  0.00    -0.520 OA
ATOM      7  C   LIG    1       -0.124   0.176   0.454  0.00  0.00    +0.170 C 
ENDROOT
BRANCH   5   8
ATOM      8  C   LIG    1        0.942   4.114  -1.133  0.00  0.00    -0.110 A 
ATOM      9  C   LIG    1        1.407   4.892  -2.180  0.00  0.00    +0.120 A 
ATOM     10  C   LIG    1        0.531   5.785  -2.812  0.00  0.00    -0.070 A 
ATOM     11  C   LIG    1        0.941   6.600  -3.885  0.00  0.00    -0.040 A 
ATOM     12  C   LIG    1        0.011   7.441  -4.429  0.00  0.00    +0.040 A 
ATOM     13  N   LIG    1       -1.227   7.480  -3.956  0.00  0.00    -0.210 NA
ATOM     14  N   LIG    1       -1.632   6.750  -2.979  0.00  0.00    -0.210 NA
ATOM     15  C   LIG    1        0.397   8.335  -5.580  0.00  0.00    +0.150 C 
ATOM     16  C   LIG    1        2.351   6.546  -4.413  0.00  0.00    +0.130 C 
ATOM     17  C   LIG    1       -0.813   5.889  -2.368  0.00  0.00    +0.070 A 
ATOM     18  C   LIG    1       -1.252   5.088  -1.298  0.00  0.00    +0.080 A 
ATOM     19  C   LIG    1       -0.392   4.224  -0.701  0.00  0.00    +0.050 A 
ENDBRANCH   5   8
BRANCH   7  20
ATOM     20  O   LIG    1       -0.865  -0.397  -0.626  0.00  0.00    -0.550 OA
ATOM     21  H   LIG    1       -1.785  -0.103  -0.671  0.00  0.00    +0.380 HD
ENDBRANCH   7  20
BRANCH   1  22
ATOM     22  C   LIG    1        1.595  -1.415   1.414  0.00  0.00    +0.080 C 
BRANCH  22  26
ATOM     23  C   LIG    1        4.812  -3.434   1.892  0.00  0.00    +0.290 C 
ATOM     24  N   LIG    1        3.445  -2.930   2.046  0.00  0.00    -0.740 N 
ATOM     25  H   LIG    1        2.860  -3.315   2.716  0.00  0.00    +0.400 HD
ATOM     26  C   LIG    1        3.002  -1.933   1.255  0.00  0.00    +0.510 C 
ATOM     27  O   LIG    1        3.734  -1.452   0.417  0.00  0.00    -0.530 OA
ENDBRANCH  22  26
ENDBRANCH   1  22
TORSDOF 4
