REMARK  Name = ZINCqH0000033B1X.0
REMARK                            x       y       z     vdW  Elec       q    Type
REMARK                         _______ _______ _______ _____ _____    ______ ____
ROOT
ATOM      1  C   LIG    1       -3.130  -1.099   4.534  0.00  0.00    +0.260 C 
ATOM      2  C   LIG    1       -3.123  -0.143   3.340  0.00  0.00    +0.080 C 
ENDROOT
BRANCH   1   8
ATOM      3  C   LIG    1       -5.933  -1.544   9.155  0.00  0.00    +0.160 C 
ATOM      4  C   LIG    1       -6.209  -2.579   8.048  0.00  0.00    +0.050 C 
ATOM      5  C   LIG    1       -5.435  -1.655   7.114  0.00  0.00    -0.100 C 
ATOM      6  C   LIG    1       -6.281  -0.641   6.321  0.00  0.00    +0.060 C 
ATOM      7  C   LIG    1       -5.285  -0.206   5.214  0.00  0.00    +0.190 C 
ATOM      8  N   LIG    1       -4.516  -1.428   4.890  0.00  0.00    -0.520 NA
ATOM      9  C   LIG    1       -4.563  -2.336   6.055  0.00  0.00    +0.200 C 
ATOM     10  C   LIG    1       -4.707  -1.100   8.334  0.00  0.00    +0.020 C 
BRANCH   3  11
ATOM     11  O   LIG    1       -5.598  -2.130  10.414  0.00  0.00    -0.370 OA
BRANCH  11  13
ATOM     12  C   LIG    1       -5.581  -2.066  12.830  0.00  0.00    +0.040 C 
ATOM     13  C   LIG    1       -5.987  -1.345  11.543  0.00  0.00    +0.160 C 
ENDBRANCH  11  13
ENDBRANCH   3  11
ENDBRANCH   1   8
BRANCH   1  14
ATOM     14  C   LIG    1       -2.390  -2.361   4.172  0.00  0.00    +0.190 A 
ATOM     15  N   LIG    1       -1.190  -2.705   4.571  0.00  0.00    -0.480 NA
ATOM     16  C   LIG    1       -0.946  -3.897   3.999  0.00  0.00    +0.170 A 
ATOM     17  N   LIG    1       -1.994  -4.215   3.300  0.00  0.00    -0.380 NA
ATOM     18  O   LIG    1       -2.836  -3.346   3.386  0.00  0.00    +0.100 OA
BRANCH  16  19
ATOM     19  C   LIG    1        0.310  -4.717   4.146  0.00  0.00    +0.220 C 
BRANCH  19  20
ATOM     20  C   LIG    1        1.287  -4.339   3.063  0.00  0.00    -0.100 A 
ATOM     21  C   LIG    1        2.200  -3.324   3.280  0.00  0.00    +0.070 A 
ATOM     22  C   LIG    1        3.100  -2.980   2.289  0.00  0.00    -0.010 A 
ATOM     23  C   LIG    1        3.083  -3.649   1.077  0.00  0.00    +0.100 A 
ATOM     24  C   LIG    1        2.165  -4.661   0.859  0.00  0.00    -0.010 A 
ATOM     25  F   LIG    1        3.963  -3.313   0.108  0.00  0.00    -0.140 F 
ATOM     26  C   LIG    1        1.266  -5.004   1.851  0.00  0.00    +0.050 A 
ENDBRANCH  19  20
ENDBRANCH  16  19
ENDBRANCH   1  14
TORSDOF 6
