REMARK  Name = ZINCpe000000UszF.1
REMARK                            x       y       z     vdW  Elec       q    Type
REMARK                         _______ _______ _______ _____ _____    ______ ____
ROOT
ATOM      1  C   LIG    1        6.136   0.816  -0.051  0.00  0.00    +0.540 C 
ATOM      2  O   LIG    1        6.657   1.918  -0.051  0.00  0.00    -0.570 OA
ENDROOT
BRANCH   1   8
ATOM      3  C   LIG    1        4.515  -1.812  -0.049  0.00  0.00    +0.380 C 
ATOM      4  N   LIG    1        3.943  -0.464  -0.037  0.00  0.00    -0.260 N 
ATOM      5  N   LIG    1        2.687  -0.194  -0.018  0.00  0.00    -0.280 NA
ATOM      6  C   LIG    1        2.494   1.109  -0.015  0.00  0.00    +0.030 A 
ATOM      7  C   LIG    1        3.760   1.724  -0.024  0.00  0.00    -0.010 A 
ATOM      8  C   LIG    1        4.666   0.695  -0.038  0.00  0.00    +0.030 A 
BRANCH   6   9
ATOM      9  C   LIG    1        1.182   1.801   0.000  0.00  0.00    +0.060 A 
ATOM     10  C   LIG    1       -0.013   1.076   0.008  0.00  0.00    -0.020 A 
ATOM     11  C   LIG    1       -1.211   1.760   0.017  0.00  0.00    +0.260 A 
ATOM     12  N   LIG    1       -1.238   3.079   0.031  0.00  0.00    -0.490 NA
ATOM     13  C   LIG    1       -0.133   3.800   0.024  0.00  0.00    +0.260 A 
ATOM     14  C   LIG    1        1.107   3.197   0.009  0.00  0.00    -0.020 A 
ENDBRANCH   6   9
ENDBRANCH   1   8
BRANCH   1  15
ATOM     15  N   LIG    1        6.899  -0.285  -0.063  0.00  0.00    -0.690 NA
ATOM     16  C   LIG    1        8.223  -0.176  -0.075  0.00  0.00    +0.490 A 
ATOM     17  N   LIG    1        8.922   0.970  -0.076  0.00  0.00    -0.540 NA
ATOM     18  C   LIG    1       10.204   0.714  -0.089  0.00  0.00    +0.430 A 
ATOM     19  N   LIG    1       10.395  -0.624  -0.097  0.00  0.00    -0.430 N 
ATOM     20  N   LIG    1        9.120  -1.215  -0.083  0.00  0.00    -0.410 NA
BRANCH  19  21
ATOM     21  C   LIG    1       11.682  -1.323  -0.112  0.00  0.00    +0.330 C 
BRANCH  21  22
ATOM     22  C   LIG    1       12.143  -1.573   1.325  0.00  0.00    +0.240 C 
BRANCH  22  23
ATOM     23  N   LIG    1       13.434  -2.274   1.310  0.00  0.00    -0.380 N 
ATOM     24  C   LIG    1       13.819  -2.621   2.685  0.00  0.00    +0.320 C 
ATOM     25  C   LIG    1       14.458  -1.402   0.720  0.00  0.00    +0.310 C 
ATOM     26  H   LIG    1       13.352  -3.117   0.761  0.00  0.00    +0.430 HD
ENDBRANCH  22  23
ENDBRANCH  21  22
ENDBRANCH  19  21
ENDBRANCH   1  15
TORSDOF 6
