REMARK  Name = ZINCrg000000ss1C.0
REMARK                            x       y       z     vdW  Elec       q    Type
REMARK                         _______ _______ _______ _____ _____    ______ ____
ROOT
ATOM      1  N   LIG    1       -1.196   1.876   0.018  0.00  0.00    -0.670 N 
ATOM      2  H   LIG    1       -1.142   2.785   0.353  0.00  0.00    +0.410 HD
ATOM      3  C   LIG    1       -0.116   1.300  -0.547  0.00  0.00    +0.560 C 
ATOM      4  O   LIG    1       -0.210   0.199  -1.055  0.00  0.00    -0.460 OA
ENDROOT
BRANCH   3   5
ATOM      5  C   LIG    1        1.172   2.005  -0.554  0.00  0.00    -0.180 A 
ATOM      6  C   LIG    1        1.268   3.302  -0.072  0.00  0.00    +0.180 A 
ATOM      7  C   LIG    1        2.509   3.939  -0.091  0.00  0.00    -0.060 A 
ATOM      8  C   LIG    1        3.597   3.318  -0.590  0.00  0.00    +0.330 A 
ATOM      9  N   LIG    1        3.559   2.050  -1.099  0.00  0.00    -0.510 N 
ATOM     10  C   LIG    1        4.817   1.533  -1.646  0.00  0.00    +0.340 C 
ATOM     11  C   LIG    1        4.948   0.033  -1.371  0.00  0.00    -0.390 C 
ATOM     12  S   LIG    1        3.491  -0.776  -2.104  0.00  0.00    +2.550 S 
ATOM     13  N   LIG    1        2.236   0.111  -1.490  0.00  0.00    -0.920 NA
ATOM     14  O   LIG    1        3.438  -0.549  -3.506  0.00  0.00    -0.960 OA
ATOM     15  O   LIG    1        3.309  -2.076  -1.560  0.00  0.00    -0.930 OA
ATOM     16  C   LIG    1        2.387   1.344  -1.082  0.00  0.00    +0.530 A 
ENDBRANCH   3   5
BRANCH   1  20
ATOM     17  C   LIG    1       -4.687  -0.296   0.335  0.00  0.00    +0.330 A 
ATOM     18  C   LIG    1       -4.780   1.076   0.137  0.00  0.00    -0.010 A 
ATOM     19  C   LIG    1       -3.619   1.823   0.034  0.00  0.00    +0.080 A 
ATOM     20  C   LIG    1       -2.396   1.162   0.122  0.00  0.00    +0.090 A 
ATOM     21  C   LIG    1       -2.381  -0.212   0.320  0.00  0.00    +0.320 A 
ATOM     22  N   LIG    1       -3.508  -0.890   0.419  0.00  0.00    -0.470 NA
BRANCH  17  28
ATOM     23  C   LIG    1       -4.752  -3.336   0.773  0.00  0.00    +0.190 C 
ATOM     24  C   LIG    1       -5.927  -2.402   0.640  0.00  0.00    +0.250 A 
ATOM     25  N   LIG    1       -7.184  -2.748   0.691  0.00  0.00    -0.490 NA
ATOM     26  C   LIG    1       -7.951  -1.658   0.535  0.00  0.00    +0.170 A 
ATOM     27  C   LIG    1       -7.143  -0.592   0.386  0.00  0.00    +0.120 A 
ATOM     28  N   LIG    1       -5.855  -1.059   0.446  0.00  0.00    -0.410 N 
ENDBRANCH  17  28
ENDBRANCH   1  20
TORSDOF 3
