REMARK  Name = ZINCpe00000FUiIb.0
REMARK                            x       y       z     vdW  Elec       q    Type
REMARK                         _______ _______ _______ _____ _____    ______ ____
ROOT
ATOM      1  C   LIG    1        5.513   4.274   2.675  0.00  0.00    +0.590 C 
ATOM      2  N   LIG    1        4.223   4.119   2.316  0.00  0.00    -0.720 N 
ATOM      3  H   LIG    1        3.689   4.893   2.078  0.00  0.00    +0.410 HD
ATOM      4  O   LIG    1        6.158   3.316   3.056  0.00  0.00    -0.540 OA
ENDROOT
BRANCH   1   8
ATOM      5  C   LIG    1        6.494   7.778   2.269  0.00  0.00    -0.750 A 
ATOM      6  C   LIG    1        7.633   7.232   2.757  0.00  0.00    +0.330 A 
ATOM      7  N   LIG    1        7.429   5.909   2.970  0.00  0.00    -0.400 N 
ATOM      8  C   LIG    1        6.139   5.599   2.605  0.00  0.00    -0.060 A 
ATOM      9  C   LIG    1        8.417   4.966   3.500  0.00  0.00    +0.350 C 
ATOM     10  C   LIG    1        5.540   6.761   2.166  0.00  0.00    +0.110 A 
BRANCH   5  11
ATOM     11  S   LIG    1        6.257   9.470   1.838  0.00  0.00    +2.720 S 
ATOM     12  O   LIG    1        5.192   9.499   0.898  0.00  0.00    -0.960 OA
ATOM     13  O   LIG    1        7.548  10.000   1.568  0.00  0.00    -0.960 OA
BRANCH  11  15
ATOM     14  C   LIG    1        6.566  10.361   4.373  0.00  0.00    +0.290 C 
ATOM     15  N   LIG    1        5.706  10.248   3.193  0.00  0.00    -1.120 NA
ATOM     16  H   LIG    1        4.814  10.628   3.204  0.00  0.00    +0.420 HD
ENDBRANCH  11  15
ENDBRANCH   5  11
ENDBRANCH   1   8
BRANCH   2  17
ATOM     17  C   LIG    1        3.627   2.781   2.285  0.00  0.00    +0.290 C 
BRANCH  17  18
ATOM     18  C   LIG    1        2.164   2.884   1.848  0.00  0.00    -0.030 C 
ATOM     19  C   LIG    1        2.097   3.390   0.406  0.00  0.00    +0.040 C 
BRANCH  18  20
ATOM     20  C   LIG    1        1.508   1.504   1.935  0.00  0.00    +0.340 C 
BRANCH  20  21
ATOM     21  N   LIG    1        0.080   1.623   1.633  0.00  0.00    -0.370 N 
ATOM     22  N   LIG    1       -0.942   1.863   2.561  0.00  0.00    -0.300 NA
ATOM     23  C   LIG    1       -2.080   1.903   1.915  0.00  0.00    +0.070 A 
ATOM     24  C   LIG    1       -1.819   1.695   0.557  0.00  0.00    -0.120 A 
ATOM     25  C   LIG    1       -3.436   2.137   2.529  0.00  0.00    +0.160 C 
ATOM     26  C   LIG    1       -0.485   1.521   0.411  0.00  0.00    +0.090 A 
ATOM     27  C   LIG    1        0.242   1.265  -0.884  0.00  0.00    +0.140 C 
ENDBRANCH  20  21
ENDBRANCH  18  20
ENDBRANCH  17  18
ENDBRANCH   2  17
TORSDOF 7
