REMARK  Name = ZINCvU00000005nw.0
REMARK                            x       y       z     vdW  Elec       q    Type
REMARK                         _______ _______ _______ _____ _____    ______ ____
ROOT
ATOM      1  C   LIG    1       -3.490   2.967   1.781  0.00  0.00    +0.480 A 
ATOM      2  C   LIG    1       -3.594   2.240   0.570  0.00  0.00    -0.220 A 
ATOM      3  C   LIG    1       -2.567   1.567  -0.217  0.00  0.00    -0.000 A 
ATOM      4  C   LIG    1       -3.020   0.978  -1.324  0.00  0.00    -0.010 A 
ATOM      5  S   LIG    1       -4.749   1.205  -1.504  0.00  0.00    +0.200 S 
ATOM      6  C   LIG    1       -4.856   2.135  -0.016  0.00  0.00    +0.120 A 
ATOM      7  N   LIG    1       -5.904   2.709   0.589  0.00  0.00    -0.520 NA
ATOM      8  C   LIG    1       -5.759   3.368   1.715  0.00  0.00    +0.390 A 
ATOM      9  N   LIG    1       -4.585   3.501   2.305  0.00  0.00    -0.550 NA
ENDROOT
BRANCH   3  10
ATOM     10  C   LIG    1       -1.145   1.534   0.183  0.00  0.00    -0.160 A 
ATOM     11  C   LIG    1       -0.416   0.416   0.378  0.00  0.00    +0.050 A 
ATOM     12  C   LIG    1        0.897   0.640   0.743  0.00  0.00    +0.020 A 
ATOM     13  C   LIG    1        1.242   1.925   0.852  0.00  0.00    -0.040 A 
ATOM     14  S   LIG    1       -0.141   2.947   0.481  0.00  0.00    +0.120 S 
ENDBRANCH   3  10
BRANCH   1  15
ATOM     15  N   LIG    1       -2.266   3.114   2.411  0.00  0.00    -0.640 N 
ATOM     16  H   LIG    1       -1.480   2.676   2.050  0.00  0.00    +0.420 HD
BRANCH  15  20
ATOM     17  C   LIG    1       -1.962   5.435   5.855  0.00  0.00    -0.110 A 
ATOM     18  C   LIG    1       -0.936   5.439   4.928  0.00  0.00    +0.040 A 
ATOM     19  C   LIG    1       -1.034   4.670   3.784  0.00  0.00    -0.020 A 
ATOM     20  C   LIG    1       -2.164   3.893   3.567  0.00  0.00    +0.150 A 
ATOM     21  C   LIG    1       -3.194   3.895   4.498  0.00  0.00    +0.040 A 
ATOM     22  C   LIG    1       -3.088   4.661   5.642  0.00  0.00    +0.040 A 
BRANCH  17  23
ATOM     23  C   LIG    1       -1.851   6.276   7.101  0.00  0.00    +0.260 C 
BRANCH  23  25
ATOM     24  N   LIG    1       -2.856   8.639   6.647  0.00  0.00    -0.430 NA
ATOM     25  C   LIG    1       -2.418   7.609   6.845  0.00  0.00    +0.210 C 
ENDBRANCH  23  25
ENDBRANCH  17  23
ENDBRANCH  15  20
ENDBRANCH   1  15
BRANCH   8  26
ATOM     26  C   LIG    1       -6.971   3.995   2.354  0.00  0.00    +0.300 C 
BRANCH  26  27
ATOM     27  N   LIG    1       -7.592   3.033   3.274  0.00  0.00    -0.530 NA
ATOM     28  C   LIG    1       -8.146   1.886   2.541  0.00  0.00    +0.160 C 
ATOM     29  C   LIG    1       -8.729   0.882   3.540  0.00  0.00    +0.220 C 
ATOM     30  O   LIG    1       -9.713   1.536   4.346  0.00  0.00    -0.380 OA
ATOM     31  C   LIG    1       -9.208   2.658   5.074  0.00  0.00    +0.220 C 
ATOM     32  C   LIG    1       -8.630   3.680   4.091  0.00  0.00    +0.160 C 
ENDBRANCH  26  27
ENDBRANCH   8  26
TORSDOF 7
