REMARK  Name = ZINCqH00000m6qHa.1
REMARK                            x       y       z     vdW  Elec       q    Type
REMARK                         _______ _______ _______ _____ _____    ______ ____
ROOT
ATOM      1  N   LIG    1       -2.989   6.329  -2.752  0.00  0.00    -0.740 N 
ATOM      2  H   LIG    1       -2.559   5.873  -3.493  0.00  0.00    +0.390 HD
ATOM      3  C   LIG    1       -3.785   7.391  -2.985  0.00  0.00    +0.660 C 
ATOM      4  O   LIG    1       -4.324   7.964  -2.055  0.00  0.00    -0.610 OA
ENDROOT
BRANCH   3   5
ATOM      5  N   LIG    1       -3.982   7.817  -4.236  0.00  0.00    -0.680 NA
ATOM      6  C   LIG    1       -4.768   8.867  -4.466  0.00  0.00    +0.350 A 
ATOM      7  N   LIG    1       -5.436   9.599  -3.554  0.00  0.00    -0.400 NA
ATOM      8  N   LIG    1       -6.188  10.649  -4.036  0.00  0.00    -0.230 NA
ATOM      9  C   LIG    1       -6.194  10.832  -5.324  0.00  0.00    -0.010 A 
ATOM     10  S   LIG    1       -5.148   9.568  -5.992  0.00  0.00    -0.030 S 
BRANCH   9  11
ATOM     11  C   LIG    1       -6.923  11.877  -6.074  0.00  0.00    -0.000 A 
ATOM     12  C   LIG    1       -6.825  11.939  -7.464  0.00  0.00    +0.070 A 
ATOM     13  C   LIG    1       -7.508  12.916  -8.159  0.00  0.00    +0.020 A 
ATOM     14  C   LIG    1       -8.290  13.835  -7.480  0.00  0.00    -0.010 A 
ATOM     15  C   LIG    1       -8.392  13.781  -6.100  0.00  0.00    +0.000 A 
ATOM     16 CL   LIG    1       -9.145  15.061  -8.363  0.00  0.00    -0.060 Cl
ATOM     17  C   LIG    1       -7.717  12.804  -5.393  0.00  0.00    +0.140 A 
ATOM     18  F   LIG    1       -7.822  12.748  -4.048  0.00  0.00    -0.110 F 
ENDBRANCH   9  11
ENDBRANCH   3   5
BRANCH   1  19
ATOM     19  C   LIG    1       -2.773   5.862  -1.381  0.00  0.00    +0.270 C 
BRANCH  19  20
ATOM     20  C   LIG    1       -1.837   4.652  -1.395  0.00  0.00    +0.010 C 
BRANCH  20  21
ATOM     21  C   LIG    1       -1.611   4.165   0.038  0.00  0.00    +0.350 C 
BRANCH  21  28
ATOM     22  C   LIG    1        1.523   4.267   0.009  0.00  0.00    +0.200 C 
ATOM     23  C   LIG    1        0.653   3.037   0.011  0.00  0.00    +0.060 C 
ATOM     24  C   LIG    1        1.072   1.757   0.001  0.00  0.00    +0.210 C 
ATOM     25  N   LIG    1       -0.011   0.966   0.007  0.00  0.00    -0.480 N 
ATOM     26  C   LIG    1       -1.085   1.707   0.016  0.00  0.00    +0.550 C 
ATOM     27  H   LIG    1        0.002  -0.004   0.002  0.00  0.00    +0.460 HD
ATOM     28  N   LIG    1       -0.716   3.006   0.024  0.00  0.00    -0.400 N 
ENDBRANCH  21  28
ENDBRANCH  20  21
ENDBRANCH  19  20
ENDBRANCH   1  19
TORSDOF 6
