REMARK  Name = ZINCc70000001Zr9.0
REMARK                            x       y       z     vdW  Elec       q    Type
REMARK                         _______ _______ _______ _____ _____    ______ ____
ROOT
ATOM      1  C   LIG    1       -2.369   0.796   0.787  0.00  0.00    +0.250 C 
ATOM      2  F   LIG    1       -2.059  -0.385   1.472  0.00  0.00    -0.180 F 
ATOM      3  F   LIG    1       -2.710   0.493  -0.535  0.00  0.00    -0.180 F 
ENDROOT
BRANCH   1   7
ATOM      4  C   LIG    1       -5.643   1.404   2.676  0.00  0.00    +0.300 C 
ATOM      5  N   LIG    1       -4.513   0.742   2.020  0.00  0.00    -0.720 N 
ATOM      6  H   LIG    1       -4.471  -0.227   1.987  0.00  0.00    +0.410 HD
ATOM      7  C   LIG    1       -3.531   1.478   1.462  0.00  0.00    +0.480 C 
ATOM      8  O   LIG    1       -3.583   2.689   1.503  0.00  0.00    -0.470 OA
ENDBRANCH   1   7
BRANCH   1   9
ATOM      9  C   LIG    1       -1.154   1.726   0.801  0.00  0.00    +0.250 C 
BRANCH   9  10
ATOM     10  C   LIG    1       -0.013   1.086   0.008  0.00  0.00    -0.090 C 
ATOM     11  C   LIG    1        0.460   1.806  -1.256  0.00  0.00    +0.030 C 
ATOM     12  C   LIG    1        1.335   1.811  -0.001  0.00  0.00    +0.040 C 
ENDBRANCH   9  10
BRANCH   9  13
ATOM     13  O   LIG    1       -1.505   2.977   0.205  0.00  0.00    -0.520 OA
ATOM     14  H   LIG    1       -1.800   2.906  -0.713  0.00  0.00    +0.380 HD
ENDBRANCH   9  13
ENDBRANCH   1   9
TORSDOF 4
