REMARK  Name = ZINCrD000000BWhl.0
REMARK                            x       y       z     vdW  Elec       q    Type
REMARK                         _______ _______ _______ _____ _____    ______ ____
ROOT
ATOM      1  O   LIG    1       -3.655   3.141   2.597  0.00  0.00    -0.480 OA
ATOM      2  C   LIG    1       -3.084   3.975   1.928  0.00  0.00    +0.500 C 
ATOM      3  N   LIG    1       -2.575   5.077   2.514  0.00  0.00    -0.660 N 
ATOM      4  H   LIG    1       -2.062   5.713   1.991  0.00  0.00    +0.420 HD
ENDROOT
BRANCH   3   5
ATOM      5  C   LIG    1       -2.788   5.305   3.881  0.00  0.00    +0.140 A 
ATOM      6  C   LIG    1       -2.837   4.237   4.764  0.00  0.00    +0.150 A 
ATOM      7  C   LIG    1       -3.047   4.464   6.111  0.00  0.00    -0.050 A 
ATOM      8  C   LIG    1       -3.207   5.754   6.582  0.00  0.00    +0.140 A 
ATOM      9  C   LIG    1       -3.158   6.824   5.707  0.00  0.00    -0.010 A 
ATOM     10  C   LIG    1       -2.944   6.605   4.356  0.00  0.00    +0.140 A 
BRANCH   7  11
ATOM     11  N   LIG    1       -3.100   3.324   7.053  0.00  0.00    +0.030 N 
ATOM     12  O   LIG    1       -3.284   3.522   8.241  0.00  0.00    -0.150 OA
ATOM     13  O   LIG    1       -2.960   2.186   6.640  0.00  0.00    -0.150 OA
ENDBRANCH   7  11
BRANCH  10  14
ATOM     14  O   LIG    1       -2.890   7.657   3.495  0.00  0.00    -0.310 OA
BRANCH  14  15
ATOM     15  C   LIG    1       -3.058   8.961   4.053  0.00  0.00    +0.600 C 
ATOM     16  F   LIG    1       -2.054   9.197   4.998  0.00  0.00    -0.190 F 
ATOM     17  F   LIG    1       -4.310   9.046   4.673  0.00  0.00    -0.190 F 
ENDBRANCH  14  15
ENDBRANCH  10  14
ENDBRANCH   3   5
BRANCH   2  18
ATOM     18  C   LIG    1       -2.942   3.780   0.440  0.00  0.00    +0.180 C 
ATOM     19  C   LIG    1       -1.455   3.614   0.043  0.00  0.00    +0.100 C 
ATOM     20  C   LIG    1       -1.281   2.107   0.042  0.00  0.00    +0.130 C 
ATOM     21  N   LIG    1       -2.452   1.564   0.034  0.00  0.00    -0.270 NA
ATOM     22  O   LIG    1       -3.498   2.515   0.030  0.00  0.00    -0.160 OA
BRANCH  20  23
ATOM     23  C   LIG    1        0.007   1.385   0.044  0.00  0.00    -0.050 A 
ATOM     24  C   LIG    1        1.209   2.096   0.041  0.00  0.00    +0.040 A 
ATOM     25  C   LIG    1        2.409   1.415   0.037  0.00  0.00    +0.010 A 
ATOM     26  C   LIG    1        2.423   0.032   0.036  0.00  0.00    +0.030 A 
ATOM     27  C   LIG    1        1.236  -0.678   0.039  0.00  0.00    +0.010 A 
ATOM     28  C   LIG    1        0.029  -0.010   0.043  0.00  0.00    +0.050 A 
ENDBRANCH  20  23
ENDBRANCH   2  18
TORSDOF 6
