REMARK  Name = ZINCnE000007MrMe.0
REMARK                            x       y       z     vdW  Elec       q    Type
REMARK                         _______ _______ _______ _____ _____    ______ ____
ROOT
ATOM      1  C   LIG    1        2.147   4.512   5.123  0.00  0.00    +0.010 C 
ATOM      2  C   LIG    1        0.728   3.981   5.307  0.00  0.00    +0.010 C 
ATOM      3  C   LIG    1        0.727   2.483   5.125  0.00  0.00    +0.010 C 
ATOM      4  C   LIG    1        0.430   2.133   3.659  0.00  0.00    +0.240 C 
ATOM      5  N   LIG    1        1.124   3.033   2.716  0.00  0.00    -0.590 N 
ATOM      6  C   LIG    1        2.492   3.459   2.906  0.00  0.00    +0.270 C 
ATOM      7  C   LIG    1        0.452   3.481   1.637  0.00  0.00    +0.510 C 
ATOM      8  O   LIG    1        0.996   4.225   0.849  0.00  0.00    -0.520 OA
ATOM      9  C   LIG    1        2.519   4.773   3.724  0.00  0.00    +0.030 C 
ENDROOT
BRANCH   7  10
ATOM     10  C   LIG    1       -0.976   3.056   1.409  0.00  0.00    -0.020 C 
ATOM     11  C   LIG    1       -1.002   1.794   0.545  0.00  0.00    +0.050 C 
ATOM     12  C   LIG    1       -0.335   2.085  -0.801  0.00  0.00    +0.000 C 
ATOM     13  C   LIG    1       -1.093   3.207  -1.514  0.00  0.00    +0.020 C 
ATOM     14  C   LIG    1       -1.068   4.468  -0.649  0.00  0.00    +0.040 C 
ATOM     15  C   LIG    1       -1.735   4.178   0.697  0.00  0.00    +0.000 C 
BRANCH  15  16
ATOM     16  C   LIG    1       -1.709   5.440   1.562  0.00  0.00    +0.440 C 
ATOM     17  F   LIG    1       -0.396   5.909   1.663  0.00  0.00    -0.160 F 
ATOM     18  F   LIG    1       -2.197   5.140   2.838  0.00  0.00    -0.190 F 
ATOM     19  F   LIG    1       -2.512   6.423   0.974  0.00  0.00    -0.190 F 
ENDBRANCH  15  16
ENDBRANCH   7  10
BRANCH   1  20
ATOM     20  C   LIG    1        2.284   5.814   5.914  0.00  0.00    -0.080 C 
BRANCH  20  22
ATOM     21  O   LIG    1        4.575   5.551   5.389  0.00  0.00    -0.690 OA
ATOM     22  C   LIG    1        3.732   6.232   5.947  0.00  0.00    +0.490 C 
ATOM     23  O   LIG    1        4.059   7.250   6.531  0.00  0.00    -0.710 OA
ENDBRANCH  20  22
ENDBRANCH   1  20
TORSDOF 4
