REMARK  Name = ZINCtV000002Ppbp.0
REMARK                            x       y       z     vdW  Elec       q    Type
REMARK                         _______ _______ _______ _____ _____    ______ ____
ROOT
ATOM      1  O   LIG    1        1.012   4.111   0.391  0.00  0.00    -0.520 OA
ATOM      2  C   LIG    1        2.128   4.551   0.195  0.00  0.00    +0.590 C 
ATOM      3  N   LIG    1        2.291   5.839  -0.166  0.00  0.00    -0.590 N 
ATOM      4  C   LIG    1        1.206   6.808  -0.406  0.00  0.00    +0.280 C 
ATOM      5  C   LIG    1        1.823   7.869  -1.351  0.00  0.00    +0.040 C 
ATOM      6  C   LIG    1        3.273   7.964  -0.808  0.00  0.00    +0.060 C 
ATOM      7  C   LIG    1        3.580   6.513  -0.381  0.00  0.00    +0.310 C 
ENDROOT
BRANCH   7   8
ATOM      8  C   LIG    1        4.379   6.510   0.897  0.00  0.00    +0.070 A 
ATOM      9  N   LIG    1        3.864   6.488   2.068  0.00  0.00    -0.440 NA
ATOM     10  C   LIG    1        4.700   6.485   3.123  0.00  0.00    +0.080 A 
ATOM     11  C   LIG    1        4.410   6.460   4.502  0.00  0.00    +0.070 A 
ATOM     12  C   LIG    1        5.416   6.468   5.419  0.00  0.00    +0.030 A 
ATOM     13  C   LIG    1        6.744   6.500   5.017  0.00  0.00    +0.040 A 
ATOM     14  C   LIG    1        7.058   6.524   3.676  0.00  0.00    +0.060 A 
ATOM     15  C   LIG    1        6.041   6.517   2.724  0.00  0.00    -0.170 A 
ATOM     16  S   LIG    1        6.084   6.543   0.964  0.00  0.00    +0.100 S 
ENDBRANCH   7   8
BRANCH   2  17
ATOM     17  C   LIG    1        3.307   3.673   0.353  0.00  0.00    -0.090 A 
ATOM     18  C   LIG    1        4.580   4.144   0.027  0.00  0.00    -0.010 A 
ATOM     19  C   LIG    1        5.678   3.322   0.176  0.00  0.00    +0.050 A 
ATOM     20  C   LIG    1        5.524   2.034   0.654  0.00  0.00    -0.040 A 
ATOM     21  C   LIG    1        4.261   1.555   0.977  0.00  0.00    +0.120 A 
ATOM     22  C   LIG    1        3.152   2.371   0.830  0.00  0.00    +0.060 A 
BRANCH  21  23
ATOM     23  O   LIG    1        4.114   0.286   1.441  0.00  0.00    -0.260 OA
BRANCH  23  24
ATOM     24  C   LIG    1        5.217  -0.506   1.494  0.00  0.00    +0.080 A 
ATOM     25  C   LIG    1        5.421  -1.478   0.525  0.00  0.00    +0.010 A 
ATOM     26  C   LIG    1        6.546  -2.278   0.578  0.00  0.00    +0.030 A 
ATOM     27  C   LIG    1        7.462  -2.119   1.601  0.00  0.00    +0.010 A 
ATOM     28  C   LIG    1        7.258  -1.154   2.571  0.00  0.00    +0.020 A 
ATOM     29  C   LIG    1        6.138  -0.347   2.519  0.00  0.00    +0.000 A 
ENDBRANCH  23  24
ENDBRANCH  21  23
ENDBRANCH   2  17
TORSDOF 4
