REMARK  Name = ZINCpe00000y5R7b.0
REMARK                            x       y       z     vdW  Elec       q    Type
REMARK                         _______ _______ _______ _____ _____    ______ ____
ROOT
ATOM      1  S   LIG    1        0.395   0.532  -3.725  0.00  0.00    +2.720 S 
ATOM      2  O   LIG    1       -0.342   0.030  -4.831  0.00  0.00    -0.960 OA
ATOM      3  O   LIG    1        1.815   0.570  -3.690  0.00  0.00    -0.950 OA
ENDROOT
BRANCH   1   7
ATOM      4  C   LIG    1       -0.019   1.528   0.010  0.00  0.00    +0.020 C 
ATOM      5  C   LIG    1        0.002  -0.004   0.002  0.00  0.00    +0.110 C 
ATOM      6  C   LIG    1        0.781  -0.489  -1.225  0.00  0.00    +0.290 C 
ATOM      7  N   LIG    1       -0.081  -0.350  -2.408  0.00  0.00    -1.000 NA
ATOM      8  C   LIG    1       -1.383  -1.030  -2.367  0.00  0.00    +0.290 C 
ATOM      9  C   LIG    1       -2.129  -0.592  -1.109  0.00  0.00    +0.090 C 
ATOM     10  C   LIG    1       -2.848   0.746  -1.369  0.00  0.00    -0.020 C 
ATOM     11  C   LIG    1       -4.349   0.368  -1.362  0.00  0.00    +0.210 C 
ATOM     12  O   LIG    1       -4.416  -0.781  -0.487  0.00  0.00    -0.360 OA
ATOM     13  C   LIG    1       -3.282  -1.595  -0.857  0.00  0.00    +0.240 C 
ATOM     14  C   LIG    1        0.753  -0.475   1.262  0.00  0.00    +0.080 C 
ATOM     15  O   LIG    1       -1.309  -0.530   0.033  0.00  0.00    -0.360 OA
ENDBRANCH   1   7
BRANCH   1  16
ATOM     16  C   LIG    1       -0.154   2.187  -3.471  0.00  0.00    -0.820 A 
ATOM     17  C   LIG    1       -1.344   2.699  -3.860  0.00  0.00    +0.370 A 
ATOM     18  N   LIG    1       -1.379   3.993  -3.478  0.00  0.00    -0.350 N 
ATOM     19  N   LIG    1       -0.167   4.287  -2.840  0.00  0.00    -0.280 NA
ATOM     20  C   LIG    1        0.566   3.204  -2.837  0.00  0.00    +0.340 A 
BRANCH  18  21
ATOM     21  C   LIG    1       -2.487   4.926  -3.696  0.00  0.00    +0.250 C 
ATOM     22  C   LIG    1       -3.558   4.763  -2.594  0.00  0.00    +0.020 C 
ATOM     23  C   LIG    1       -4.828   4.338  -3.364  0.00  0.00    +0.210 C 
ATOM     24  O   LIG    1       -4.337   3.742  -4.585  0.00  0.00    -0.370 OA
ATOM     25  C   LIG    1       -3.235   4.582  -5.004  0.00  0.00    +0.230 C 
ENDBRANCH  18  21
ENDBRANCH   1  16
TORSDOF 3
