REMARK  Name = ZINCkj00000y7Lrp.0
REMARK                            x       y       z     vdW  Elec       q    Type
REMARK                         _______ _______ _______ _____ _____    ______ ____
ROOT
ATOM      1  C   LIG    1       -2.396   1.039   0.072  0.00  0.00    +0.120 C 
ATOM      2  C   LIG    1       -3.199   0.957  -1.227  0.00  0.00    +0.080 C 
ATOM      3  C   LIG    1       -3.770   1.704  -0.021  0.00  0.00    +0.080 C 
ENDROOT
BRANCH   1   6
ATOM      4  C   LIG    1       -1.044  -1.686   2.320  0.00  0.00    +0.330 A 
ATOM      5  C   LIG    1       -1.109  -0.522   1.565  0.00  0.00    -0.050 A 
ATOM      6  C   LIG    1       -2.284  -0.214   0.902  0.00  0.00    +0.030 A 
ATOM      7  C   LIG    1       -3.359  -1.084   1.022  0.00  0.00    -0.070 A 
ATOM      8  C   LIG    1       -3.222  -2.226   1.786  0.00  0.00    +0.320 A 
ATOM      9  N   LIG    1       -2.089  -2.492   2.407  0.00  0.00    -0.540 NA
BRANCH   4  11
ATOM     10  C   LIG    1        0.106  -3.208   3.735  0.00  0.00    +0.260 C 
ATOM     11  O   LIG    1        0.102  -1.998   2.975  0.00  0.00    -0.310 OA
ENDBRANCH   4  11
ENDBRANCH   1   6
BRANCH   1  12
ATOM     12  N   LIG    1       -1.220   1.913   0.087  0.00  0.00    -0.690 N 
ATOM     13  H   LIG    1       -0.573   1.867  -0.633  0.00  0.00    +0.410 HD
ATOM     14  C   LIG    1       -1.039   2.781   1.102  0.00  0.00    +0.540 C 
ATOM     15  O   LIG    1       -1.897   2.907   1.955  0.00  0.00    -0.510 OA
BRANCH  14  16
ATOM     16  C   LIG    1        0.199   3.572   1.181  0.00  0.00    +0.010 C 
ATOM     17  C   LIG    1        0.381   4.424   2.186  0.00  0.00    +0.000 C 
BRANCH  17  18
ATOM     18  C   LIG    1        1.649   5.234   2.267  0.00  0.00    +0.310 C 
BRANCH  18  19
ATOM     19  N   LIG    1        1.313   6.662   2.351  0.00  0.00    -0.390 N 
ATOM     20  C   LIG    1        2.547   7.458   2.310  0.00  0.00    +0.320 C 
ATOM     21  C   LIG    1        0.603   6.925   3.610  0.00  0.00    +0.330 C 
ATOM     22  H   LIG    1        0.724   6.915   1.573  0.00  0.00    +0.430 HD
ENDBRANCH  18  19
ENDBRANCH  17  18
ENDBRANCH  14  16
ENDBRANCH   1  12
TORSDOF 6
