REMARK  Name = ZINCtV000002sFKl.0
REMARK                            x       y       z     vdW  Elec       q    Type
REMARK                         _______ _______ _______ _____ _____    ______ ____
ROOT
ATOM      1  N   LIG    1        5.311   3.050  -0.034  0.00  0.00    -0.470 N 
ATOM      2  C   LIG    1        5.561   4.371  -0.131  0.00  0.00    +0.520 C 
ATOM      3  O   LIG    1        4.644   5.164  -0.117  0.00  0.00    -0.480 OA
ENDROOT
BRANCH   1   4
ATOM      4  C   LIG    1        6.363   2.149   0.041  0.00  0.00    +0.330 A 
ATOM      5  N   LIG    1        6.234   0.868   0.048  0.00  0.00    -0.480 NA
ATOM      6  C   LIG    1        7.354   0.121   0.121  0.00  0.00    +0.110 A 
ATOM      7  C   LIG    1        7.479  -1.284   0.140  0.00  0.00    +0.060 A 
ATOM      8  C   LIG    1        8.716  -1.870   0.224  0.00  0.00    +0.040 A 
ATOM      9  C   LIG    1        9.863  -1.093   0.292  0.00  0.00    +0.030 A 
ATOM     10  C   LIG    1        9.765   0.281   0.276  0.00  0.00    +0.060 A 
ATOM     11  C   LIG    1        8.518   0.893   0.190  0.00  0.00    -0.210 A 
ATOM     12  S   LIG    1        8.060   2.594   0.147  0.00  0.00    +0.100 S 
ENDBRANCH   1   4
BRANCH   1  16
ATOM     13  C   LIG    1        1.379   1.672   0.043  0.00  0.00    -0.060 A 
ATOM     14  C   LIG    1        2.205   1.342  -1.016  0.00  0.00    +0.020 A 
ATOM     15  C   LIG    1        3.507   1.803  -1.047  0.00  0.00    +0.030 A 
ATOM     16  C   LIG    1        3.989   2.587  -0.008  0.00  0.00    +0.120 A 
ATOM     17  C   LIG    1        3.159   2.912   1.056  0.00  0.00    +0.030 A 
ATOM     18  C   LIG    1        1.856   2.453   1.079  0.00  0.00    +0.020 A 
BRANCH  13  20
ATOM     19  C   LIG    1       -0.048  -0.357   0.052  0.00  0.00    +0.030 C 
ATOM     20  C   LIG    1       -0.043   1.173   0.070  0.00  0.00    +0.020 C 
ATOM     21  C   LIG    1       -0.792   1.700  -1.155  0.00  0.00    +0.030 C 
ENDBRANCH  13  20
ENDBRANCH   1  16
BRANCH   2  22
ATOM     22  C   LIG    1        6.980   4.862  -0.255  0.00  0.00    +0.080 C 
BRANCH  22  23
ATOM     23  C   LIG    1        6.985   6.389  -0.348  0.00  0.00    +0.120 C 
BRANCH  23  24
ATOM     24  C   LIG    1        8.404   6.881  -0.473  0.00  0.00    -0.090 A 
ATOM     25  C   LIG    1        9.133   7.184   0.662  0.00  0.00    +0.010 A 
ATOM     26  C   LIG    1       10.436   7.630   0.548  0.00  0.00    +0.000 A 
ATOM     27  C   LIG    1       11.007   7.783  -0.702  0.00  0.00    +0.000 A 
ATOM     28  C   LIG    1       10.277   7.485  -1.837  0.00  0.00    +0.000 A 
ATOM     29  C   LIG    1        8.975   7.034  -1.723  0.00  0.00    +0.010 A 
ENDBRANCH  23  24
ENDBRANCH  22  23
ENDBRANCH   2  22
TORSDOF 6
