REMARK  Name = ZINCpk00000e9Vle.0
REMARK                            x       y       z     vdW  Elec       q    Type
REMARK                         _______ _______ _______ _____ _____    ______ ____
ROOT
ATOM      1  C   LIG    1       -6.057   1.619   0.041  0.00  0.00    +0.520 C 
ATOM      2  N   LIG    1       -4.883   0.957   0.031  0.00  0.00    -0.520 N 
ATOM      3  H   LIG    1       -4.873  -0.013   0.026  0.00  0.00    +0.440 HD
ATOM      4  O   LIG    1       -6.069   2.832   0.047  0.00  0.00    -0.510 OA
ENDROOT
BRANCH   2   5
ATOM      5  N   LIG    1       -3.677   1.669   0.029  0.00  0.00    -0.520 N 
ATOM      6  H   LIG    1       -3.686   2.639   0.034  0.00  0.00    +0.430 HD
ATOM      7  C   LIG    1       -2.503   1.007   0.020  0.00  0.00    +0.570 C 
ATOM      8  O   LIG    1       -2.491  -0.208   0.014  0.00  0.00    -0.530 OA
BRANCH   7   9
ATOM      9  C   LIG    1       -1.230   1.759   0.017  0.00  0.00    -0.140 A 
ATOM     10  C   LIG    1       -0.013   1.076   0.008  0.00  0.00    +0.090 A 
ATOM     11  C   LIG    1        1.172   1.783   0.000  0.00  0.00    +0.000 A 
ATOM     12  C   LIG    1        1.155   3.167   0.007  0.00  0.00    -0.050 A 
ATOM     13  C   LIG    1       -0.048   3.850   0.022  0.00  0.00    +0.000 A 
ATOM     14  C   LIG    1        2.452   3.933  -0.001  0.00  0.00    +0.100 C 
ATOM     15  C   LIG    1       -1.240   3.154   0.030  0.00  0.00    +0.050 A 
ENDBRANCH   7   9
ENDBRANCH   2   5
BRANCH   1  16
ATOM     16  C   LIG    1       -7.354   0.853   0.043  0.00  0.00    +0.280 C 
BRANCH  16  17
ATOM     17  O   LIG    1       -8.467   1.786   0.053  0.00  0.00    -0.320 OA
BRANCH  17  18
ATOM     18  C   LIG    1       -9.708   1.258   0.057  0.00  0.00    +0.560 C 
ATOM     19  O   LIG    1       -9.856   0.051   0.051  0.00  0.00    -0.490 OA
BRANCH  18  21
ATOM     20  C   LIG    1      -11.483   2.593   1.236  0.00  0.00    +0.160 A 
ATOM     21  C   LIG    1      -10.879   2.140   0.067  0.00  0.00    -0.320 A 
ATOM     22  C   LIG    1      -11.492   2.610  -1.094  0.00  0.00    +0.200 A 
ATOM     23  N   LIG    1      -12.522   3.379  -0.945  0.00  0.00    -0.480 NA
ATOM     24  C   LIG    1      -10.981   2.236  -2.462  0.00  0.00    +0.170 C 
ATOM     25  S   LIG    1      -12.793   3.580   0.716  0.00  0.00    +0.280 S 
BRANCH  20  27
ATOM     26  C   LIG    1      -11.868   2.879   3.653  0.00  0.00    +0.300 C 
ATOM     27  N   LIG    1      -11.111   2.311   2.534  0.00  0.00    -0.680 N 
ATOM     28  H   LIG    1      -10.349   1.737   2.707  0.00  0.00    +0.410 HD
ENDBRANCH  20  27
ENDBRANCH  18  21
ENDBRANCH  17  18
ENDBRANCH  16  17
ENDBRANCH   1  16
TORSDOF 7
