REMARK  Name = ZINCvU0000000FXJ.0
REMARK                            x       y       z     vdW  Elec       q    Type
REMARK                         _______ _______ _______ _____ _____    ______ ____
ROOT
ATOM      1  S   LIG    1        3.288   9.398  -0.439  0.00  0.00    +0.080 S 
ENDROOT
BRANCH   1   5
ATOM      2  C   LIG    1        2.333   5.275  -0.096  0.00  0.00    +0.300 A 
ATOM      3  N   LIG    1        1.267   6.013  -0.093  0.00  0.00    -0.330 NA
ATOM      4  N   LIG    1        1.481   7.369  -0.200  0.00  0.00    -0.260 NA
ATOM      5  C   LIG    1        2.722   7.735  -0.291  0.00  0.00    +0.000 A 
ATOM      6  S   LIG    1        3.752   6.309  -0.236  0.00  0.00    +0.090 S 
BRANCH   2   7
ATOM      7  N   LIG    1        2.353   3.888   0.001  0.00  0.00    -0.620 N 
ATOM      8  H   LIG    1        3.199   3.420   0.076  0.00  0.00    +0.430 HD
BRANCH   7  12
ATOM      9  C   LIG    1       -1.219   1.749  -0.027  0.00  0.00    -0.090 A 
ATOM     10  C   LIG    1       -1.129   2.950  -0.706  0.00  0.00    +0.040 A 
ATOM     11  C   LIG    1        0.053   3.663  -0.697  0.00  0.00    +0.020 A 
ATOM     12  C   LIG    1        1.155   3.170  -0.010  0.00  0.00    +0.150 A 
ATOM     13  C   LIG    1        1.063   1.960   0.666  0.00  0.00    -0.010 A 
ATOM     14  C   LIG    1       -0.122   1.252   0.653  0.00  0.00    +0.040 A 
BRANCH   9  16
ATOM     15  C   LIG    1       -2.281  -0.403  -0.653  0.00  0.00    +0.040 C 
ATOM     16  C   LIG    1       -2.513   0.977  -0.033  0.00  0.00    +0.020 C 
ATOM     17  C   LIG    1       -3.017   0.813   1.402  0.00  0.00    +0.030 C 
ENDBRANCH   9  16
ENDBRANCH   7  12
ENDBRANCH   2   7
ENDBRANCH   1   5
BRANCH   1  18
ATOM     18  C   LIG    1        1.747  10.355  -0.427  0.00  0.00    +0.100 C 
BRANCH  18  19
ATOM     19  C   LIG    1        2.067  11.823  -0.548  0.00  0.00    +0.450 C 
ATOM     20  O   LIG    1        3.224  12.188  -0.634  0.00  0.00    -0.510 OA
BRANCH  19  21
ATOM     21  C   LIG    1        1.029  12.770  -0.561  0.00  0.00    -0.350 C 
ATOM     22  C   LIG    1        1.328  14.140  -0.674  0.00  0.00    +0.540 A 
ATOM     23  N   LIG    1        2.576  14.667  -0.770  0.00  0.00    -0.570 N 
ATOM     24  H   LIG    1        3.406  14.165  -0.773  0.00  0.00    +0.460 HD
ATOM     25  C   LIG    1        2.459  16.049  -0.867  0.00  0.00    +0.080 A 
ATOM     26  C   LIG    1        3.389  17.072  -0.987  0.00  0.00    +0.050 A 
ATOM     27  C   LIG    1        2.962  18.384  -1.057  0.00  0.00    +0.040 A 
ATOM     28  C   LIG    1        1.611  18.682  -1.008  0.00  0.00    +0.040 A 
ATOM     29  C   LIG    1        0.678  17.672  -0.890  0.00  0.00    +0.040 A 
ATOM     30  C   LIG    1        1.096  16.350  -0.819  0.00  0.00    +0.080 A 
ATOM     31  N   LIG    1        0.415  15.144  -0.698  0.00  0.00    -0.600 N 
ATOM     32  H   LIG    1       -0.548  15.039  -0.641  0.00  0.00    +0.450 HD
BRANCH  21  33
ATOM     33  C   LIG    1       -0.333  12.340  -0.460  0.00  0.00    +0.270 C 
ATOM     34  N   LIG    1       -1.414  11.999  -0.380  0.00  0.00    -0.440 NA
ENDBRANCH  21  33
ENDBRANCH  19  21
ENDBRANCH  18  19
ENDBRANCH   1  18
TORSDOF 8
