REMARK  Name = ZINCrD000000fGE4.0
REMARK                            x       y       z     vdW  Elec       q    Type
REMARK                         _______ _______ _______ _____ _____    ______ ____
ROOT
ATOM      1  C   LIG    1        0.773   1.941  -0.155  0.00  0.00    +0.520 C 
ATOM      2  N   LIG    1        1.904   2.672  -0.210  0.00  0.00    -0.720 N 
ATOM      3  H   LIG    1        1.865   3.635  -0.102  0.00  0.00    +0.410 HD
ATOM      4  O   LIG    1        0.822   0.736  -0.289  0.00  0.00    -0.520 OA
ENDROOT
BRANCH   1   5
ATOM      5  C   LIG    1       -0.553   2.621   0.068  0.00  0.00    +0.070 C 
BRANCH   5   6
ATOM      6  C   LIG    1       -1.667   1.573   0.081  0.00  0.00    +0.310 C 
BRANCH   6   7
ATOM      7  C   LIG    1       -3.004   2.262   0.180  0.00  0.00    -0.100 A 
ATOM      8  C   LIG    1       -3.503   2.627   1.417  0.00  0.00    +0.010 A 
ATOM      9  C   LIG    1       -4.728   3.263   1.507  0.00  0.00    +0.000 A 
ATOM     10  C   LIG    1       -5.456   3.526   0.362  0.00  0.00    +0.000 A 
ATOM     11  C   LIG    1       -4.959   3.156  -0.874  0.00  0.00    +0.000 A 
ATOM     12  C   LIG    1       -3.733   2.523  -0.964  0.00  0.00    +0.020 A 
ENDBRANCH   6   7
BRANCH   6  15
ATOM     13  C   LIG    1       -1.831  -1.474   2.391  0.00  0.00    +0.100 C 
ATOM     14  C   LIG    1       -1.911  -0.593   1.171  0.00  0.00    +0.520 C 
ATOM     15  N   LIG    1       -1.489   0.685   1.233  0.00  0.00    -0.720 N 
ATOM     16  H   LIG    1       -1.067   1.018   2.041  0.00  0.00    +0.400 HD
ATOM     17  O   LIG    1       -2.355  -1.035   0.132  0.00  0.00    -0.540 OA
ENDBRANCH   6  15
ENDBRANCH   5   6
ENDBRANCH   1   5
BRANCH   2  18
ATOM     18  C   LIG    1        3.193   2.011  -0.432  0.00  0.00    +0.320 C 
BRANCH  18  19
ATOM     19  C   LIG    1        4.290   3.044  -0.451  0.00  0.00    +0.510 C 
ATOM     20  N   LIG    1        5.569   2.665  -0.642  0.00  0.00    -0.660 N 
ATOM     21  H   LIG    1        5.792   1.723  -0.707  0.00  0.00    +0.420 HD
ATOM     22  O   LIG    1        4.022   4.217  -0.294  0.00  0.00    -0.510 OA
BRANCH  20  23
ATOM     23  C   LIG    1        6.577   3.631  -0.747  0.00  0.00    +0.170 A 
ATOM     24  C   LIG    1        6.498   4.802  -0.006  0.00  0.00    +0.060 A 
ATOM     25  C   LIG    1        7.497   5.752  -0.108  0.00  0.00    -0.010 A 
ATOM     26  C   LIG    1        8.571   5.541  -0.955  0.00  0.00    +0.040 A 
ATOM     27  C   LIG    1        8.650   4.377  -1.698  0.00  0.00    +0.070 A 
ATOM     28 CL   LIG    1        7.401   7.215   0.822  0.00  0.00    -0.050 Cl
ATOM     29  C   LIG    1        7.657   3.422  -1.597  0.00  0.00    -0.060 A 
ATOM     30 CL   LIG    1        7.757   1.962  -2.530  0.00  0.00    -0.050 Cl
ENDBRANCH  20  23
ENDBRANCH  18  19
ENDBRANCH   2  18
TORSDOF 7
