REMARK  Name = ZINCrg000000sEoh.0
REMARK                            x       y       z     vdW  Elec       q    Type
REMARK                         _______ _______ _______ _____ _____    ______ ____
ROOT
ATOM      1  N   LIG    1       -4.432  -1.373  -0.944  0.00  0.00    -0.560 N 
ATOM      2  C   LIG    1       -4.244  -1.081  -2.246  0.00  0.00    +0.520 C 
ATOM      3  C   LIG    1       -5.631  -0.945  -2.841  0.00  0.00    +0.310 C 
ATOM      4  N   LIG    1       -6.524  -1.192  -1.695  0.00  0.00    -0.620 N 
ATOM      5  O   LIG    1       -3.184  -0.956  -2.823  0.00  0.00    -0.460 OA
ATOM      6  C   LIG    1       -5.732  -1.432  -0.635  0.00  0.00    +0.700 C 
ATOM      7  O   LIG    1       -6.151  -1.676   0.480  0.00  0.00    -0.530 OA
ENDROOT
BRANCH   1  11
ATOM      8  N   LIG    1       -1.124  -0.848   0.008  0.00  0.00    -0.520 N 
ATOM      9  C   LIG    1       -1.060  -2.315  -0.000  0.00  0.00    +0.280 C 
ATOM     10  C   LIG    1       -2.468  -2.786  -0.425  0.00  0.00    +0.070 C 
ATOM     11  C   LIG    1       -3.347  -1.593   0.015  0.00  0.00    +0.270 C 
ATOM     12  C   LIG    1       -2.397  -0.415   0.029  0.00  0.00    +0.510 C 
ATOM     13  O   LIG    1       -2.734   0.750   0.051  0.00  0.00    -0.510 OA
BRANCH   8  17
ATOM     14  C   LIG    1        1.718   3.176   0.002  0.00  0.00    +0.360 C 
ATOM     15  N   LIG    1        1.273   1.781  -0.001  0.00  0.00    -0.370 N 
ATOM     16  C   LIG    1       -0.016   1.353   0.009  0.00  0.00    +0.240 A 
ATOM     17  C   LIG    1        0.002  -0.004   0.002  0.00  0.00    +0.000 A 
ATOM     18  C   LIG    1        1.343  -0.415  -0.013  0.00  0.00    +0.230 A 
ATOM     19  N   LIG    1        2.101   0.651  -0.015  0.00  0.00    -0.280 NA
ENDBRANCH   8  17
ENDBRANCH   1  11
BRANCH   4  20
ATOM     20  C   LIG    1       -7.989  -1.179  -1.708  0.00  0.00    +0.340 C 
BRANCH  20  21
ATOM     21  C   LIG    1       -8.489   0.234  -1.402  0.00  0.00    +0.060 C 
BRANCH  21  22
ATOM     22  C   LIG    1       -9.996   0.248  -1.415  0.00  0.00    -0.090 A 
ATOM     23  C   LIG    1      -10.675   0.518  -2.589  0.00  0.00    +0.000 A 
ATOM     24  C   LIG    1      -12.057   0.526  -2.603  0.00  0.00    +0.000 A 
ATOM     25  C   LIG    1      -12.761   0.273  -1.440  0.00  0.00    +0.000 A 
ATOM     26  C   LIG    1      -12.083   0.008  -0.265  0.00  0.00    +0.000 A 
ATOM     27  C   LIG    1      -10.700  -0.005  -0.253  0.00  0.00    +0.010 A 
ENDBRANCH  21  22
ENDBRANCH  20  21
ENDBRANCH   4  20
TORSDOF 5
