REMARK  Name = ZINCkj000005hxNG.0
REMARK                            x       y       z     vdW  Elec       q    Type
REMARK                         _______ _______ _______ _____ _____    ______ ____
ROOT
ATOM      1  C   LIG    1       -1.754   6.571  -4.306  0.00  0.00    -0.030 C 
ATOM      2  C   LIG    1       -1.074   7.083  -3.008  0.00  0.00    +0.040 C 
ATOM      3  C   LIG    1       -0.683   5.778  -2.283  0.00  0.00    +0.260 C 
ATOM      4  N   LIG    1       -1.545   4.710  -2.811  0.00  0.00    -0.630 N 
ATOM      5  C   LIG    1       -1.500   3.413  -2.448  0.00  0.00    +0.550 C 
ATOM      6  O   LIG    1       -2.194   2.599  -3.020  0.00  0.00    -0.490 OA
ATOM      7  C   LIG    1       -2.469   5.294  -3.800  0.00  0.00    +0.290 C 
ENDROOT
BRANCH   5   8
ATOM      8  C   LIG    1       -0.588   2.974  -1.332  0.00  0.00    +0.220 C 
ATOM      9  O   LIG    1       -0.191   1.620  -1.550  0.00  0.00    -0.350 OA
ATOM     10  C   LIG    1        0.527   1.059  -0.446  0.00  0.00    +0.230 C 
ATOM     11  C   LIG    1       -0.447   0.850   0.715  0.00  0.00    +0.060 C 
ATOM     12  C   LIG    1       -1.248   2.108   0.940  0.00  0.00    -0.060 A 
ATOM     13  C   LIG    1       -1.926   2.260   2.138  0.00  0.00    +0.020 A 
ATOM     14  C   LIG    1       -2.673   3.397   2.377  0.00  0.00    +0.030 A 
ATOM     15  C   LIG    1       -2.744   4.388   1.415  0.00  0.00    +0.010 A 
ATOM     16  C   LIG    1       -2.067   4.238   0.221  0.00  0.00    +0.000 A 
ATOM     17  C   LIG    1       -1.316   3.098  -0.019  0.00  0.00    -0.120 A 
ENDBRANCH   5   8
BRANCH   1  18
ATOM     18  C   LIG    1       -2.763   7.592  -4.835  0.00  0.00    +0.280 C 
BRANCH  18  20
ATOM     19  C   LIG    1       -3.014   9.716  -5.923  0.00  0.00    +0.330 C 
ATOM     20  N   LIG    1       -2.045   8.736  -5.414  0.00  0.00    -0.510 N 
ATOM     21  H   LIG    1       -1.460   8.417  -6.172  0.00  0.00    +0.430 HD
ATOM     22  H   LIG    1       -1.471   9.167  -4.705  0.00  0.00    +0.430 HD
ENDBRANCH  18  20
ENDBRANCH   1  18
TORSDOF 3
