REMARK  Name = ZINCrg00000SjSnm.0
REMARK                            x       y       z     vdW  Elec       q    Type
REMARK                         _______ _______ _______ _____ _____    ______ ____
ROOT
ATOM      1  C   LIG    1       -0.198   1.216   2.578  0.00  0.00    -0.110 A 
ATOM      2  C   LIG    1        0.948   0.422   2.695  0.00  0.00    +0.060 A 
ATOM      3  C   LIG    1        1.432   0.098   3.945  0.00  0.00    +0.120 A 
ATOM      4  C   LIG    1        0.781   0.546   5.081  0.00  0.00    -0.650 A 
ATOM      5  C   LIG    1       -0.356   1.327   4.973  0.00  0.00    +0.120 A 
ATOM      6  C   LIG    1       -0.850   1.665   3.731  0.00  0.00    +0.070 A 
ENDROOT
BRANCH   4   7
ATOM      7  S   LIG    1        1.404   0.120   6.673  0.00  0.00    +2.690 S 
ATOM      8  O   LIG    1        0.924   1.112   7.570  0.00  0.00    -0.940 OA
ATOM      9  O   LIG    1        2.785  -0.169   6.500  0.00  0.00    -0.940 OA
BRANCH   7  10
ATOM     10  N   LIG    1        0.682  -1.302   7.118  0.00  0.00    -1.000 NA
ATOM     11  C   LIG    1       -0.585  -1.306   7.867  0.00  0.00    +0.270 C 
ATOM     12  C   LIG    1       -1.564  -2.247   7.147  0.00  0.00    +0.220 C 
ATOM     13  O   LIG    1       -0.938  -3.517   6.954  0.00  0.00    -0.370 OA
ATOM     14  C   LIG    1        0.222  -3.477   6.119  0.00  0.00    +0.220 C 
ATOM     15  C   LIG    1        1.290  -2.599   6.781  0.00  0.00    +0.270 C 
ENDBRANCH   7  10
ENDBRANCH   4   7
BRANCH   1  17
ATOM     16  O   LIG    1       -1.714   2.256   1.150  0.00  0.00    -0.420 OA
ATOM     17  C   LIG    1       -0.718   1.572   1.248  0.00  0.00    +0.410 C 
BRANCH  17  18
ATOM     18  C   LIG    1       -0.013   1.086   0.008  0.00  0.00    +0.100 C 
BRANCH  18  19
ATOM     19  S   LIG    1       -0.888   1.685  -1.458  0.00  0.00    +0.100 S 
BRANCH  19  20
ATOM     20  C   LIG    1        0.122   0.990  -2.724  0.00  0.00    +0.200 A 
ATOM     21  N   LIG    1        1.196   0.252  -2.548  0.00  0.00    -0.340 NA
ATOM     22  N   LIG    1        1.696  -0.092  -3.680  0.00  0.00    -0.030 NA
ATOM     23  N   LIG    1        0.991   0.391  -4.646  0.00  0.00    -0.080 NA
ATOM     24  N   LIG    1       -0.065   1.110  -4.059  0.00  0.00    -0.330 N 
BRANCH  24  25
ATOM     25  C   LIG    1       -1.136   1.836  -4.746  0.00  0.00    +0.210 C 
ATOM     26  C   LIG    1       -1.250   1.660  -6.261  0.00  0.00    +0.090 C 
ATOM     27  C   LIG    1       -0.730   2.976  -5.681  0.00  0.00    +0.070 C 
ENDBRANCH  24  25
ENDBRANCH  19  20
ENDBRANCH  18  19
ENDBRANCH  17  18
ENDBRANCH   1  17
TORSDOF 7
