REMARK  Name = ZINCrH000004lNtn.0
REMARK                            x       y       z     vdW  Elec       q    Type
REMARK                         _______ _______ _______ _____ _____    ______ ____
ROOT
ATOM      1  N   LIG    1       -0.996   2.445  -7.278  0.00  0.00    -0.740 N 
ATOM      2  H   LIG    1       -0.102   2.375  -6.908  0.00  0.00    +0.390 HD
ATOM      3  C   LIG    1       -2.038   1.887  -6.633  0.00  0.00    +0.710 C 
ATOM      4  N   LIG    1       -1.839   1.230  -5.473  0.00  0.00    -0.690 N 
ATOM      5  H   LIG    1       -0.959   1.223  -5.064  0.00  0.00    +0.410 HD
ATOM      6  O   LIG    1       -3.159   1.975  -7.096  0.00  0.00    -0.570 OA
ENDROOT
BRANCH   4   7
ATOM      7  C   LIG    1       -2.902   0.555  -4.858  0.00  0.00    +0.150 A 
ATOM      8  C   LIG    1       -3.876  -0.059  -5.633  0.00  0.00    +0.050 A 
ATOM      9  C   LIG    1       -4.924  -0.723  -5.028  0.00  0.00    +0.000 A 
ATOM     10  C   LIG    1       -5.004  -0.776  -3.643  0.00  0.00    +0.150 A 
ATOM     11  C   LIG    1       -4.030  -0.162  -2.867  0.00  0.00    -0.100 A 
ATOM     12  C   LIG    1       -4.120  -0.221  -1.364  0.00  0.00    +0.090 C 
ATOM     13  C   LIG    1       -5.589  -0.197  -0.939  0.00  0.00    +0.070 C 
ATOM     14  C   LIG    1       -6.370  -1.205  -1.737  0.00  0.00    +0.520 C 
ATOM     15  O   LIG    1       -7.285  -1.805  -1.213  0.00  0.00    -0.530 OA
ATOM     16  N   LIG    1       -6.066  -1.448  -3.025  0.00  0.00    -0.550 N 
ATOM     17  C   LIG    1       -6.852  -2.422  -3.787  0.00  0.00    +0.310 C 
ATOM     18  C   LIG    1       -2.982   0.502  -3.472  0.00  0.00    +0.020 A 
ENDBRANCH   4   7
BRANCH   1  19
ATOM     19  C   LIG    1       -1.212   3.159  -8.539  0.00  0.00    +0.290 C 
BRANCH  19  20
ATOM     20  C   LIG    1        0.136   3.594  -9.117  0.00  0.00    +0.210 C 
BRANCH  20  21
ATOM     21  C   LIG    1       -0.093   4.445 -10.340  0.00  0.00    -0.090 A 
ATOM     22  C   LIG    1       -0.073   3.869 -11.596  0.00  0.00    +0.060 A 
ATOM     23  C   LIG    1       -0.282   4.649 -12.718  0.00  0.00    +0.010 A 
ATOM     24  C   LIG    1       -0.512   6.006 -12.584  0.00  0.00    +0.030 A 
ATOM     25  C   LIG    1       -0.532   6.583 -11.328  0.00  0.00    +0.030 A 
ATOM     26  C   LIG    1       -0.329   5.802 -10.205  0.00  0.00    -0.030 A 
ATOM     27 CL   LIG    1       -0.362   6.524  -8.627  0.00  0.00    -0.070 Cl
ENDBRANCH  20  21
BRANCH  20  29
ATOM     28  C   LIG    1        2.035   2.211  -8.645  0.00  0.00    +0.210 C 
ATOM     29  O   LIG    1        0.895   2.438  -9.476  0.00  0.00    -0.370 OA
ENDBRANCH  20  29
ENDBRANCH  19  20
ENDBRANCH   1  19
TORSDOF 5
