REMARK  Name = ZINCnE000001QD3m.1
REMARK                            x       y       z     vdW  Elec       q    Type
REMARK                         _______ _______ _______ _____ _____    ______ ____
ROOT
ATOM      1  C   LIG    1       -1.794  -4.483  -0.006  0.00  0.00    +0.130 A 
ATOM      2  C   LIG    1       -2.198  -5.360   0.916  0.00  0.00    -0.140 A 
ATOM      3  S   LIG    1       -1.483  -6.924   0.533  0.00  0.00    +0.210 S 
ATOM      4  C   LIG    1       -0.701  -6.245  -0.827  0.00  0.00    +0.230 A 
ATOM      5  N   LIG    1       -0.991  -4.985  -0.925  0.00  0.00    -0.470 NA
ENDROOT
BRANCH   4   6
ATOM      6  N   LIG    1        0.125  -6.941  -1.700  0.00  0.00    -0.620 N 
ATOM      7  H   LIG    1        0.533  -6.483  -2.451  0.00  0.00    +0.420 HD
ATOM      8  C   LIG    1        0.359  -8.254  -1.503  0.00  0.00    +0.590 C 
ATOM      9  O   LIG    1       -0.154  -8.829  -0.561  0.00  0.00    -0.500 OA
BRANCH   8  10
ATOM     10  C   LIG    1        1.230  -8.989  -2.424  0.00  0.00    -0.270 A 
ATOM     11  C   LIG    1        1.542 -10.316  -2.331  0.00  0.00    +0.120 A 
ATOM     12  C   LIG    1        2.383 -10.749  -3.329  0.00  0.00    +0.000 A 
ATOM     13  C   LIG    1        2.747  -9.810  -4.210  0.00  0.00    -0.050 A 
ATOM     14  S   LIG    1        2.035  -8.307  -3.830  0.00  0.00    +0.220 S 
ENDBRANCH   8  10
ENDBRANCH   4   6
BRANCH   1  15
ATOM     15  C   LIG    1       -2.215  -3.037   0.006  0.00  0.00    +0.160 C 
BRANCH  15  17
ATOM     16  N   LIG    1       -1.126  -0.816   0.008  0.00  0.00    -0.670 NA
ATOM     17  C   LIG    1       -0.992  -2.157  -0.000  0.00  0.00    +0.460 C 
ATOM     18  O   LIG    1        0.114  -2.655  -0.013  0.00  0.00    -0.590 OA
BRANCH  16  23
ATOM     19  C   LIG    1        1.285   3.407   0.007  0.00  0.00    +0.110 C 
ATOM     20  C   LIG    1        1.153   1.905   0.001  0.00  0.00    +0.100 A 
ATOM     21  C   LIG    1        2.208   1.089  -0.013  0.00  0.00    -0.240 A 
ATOM     22  S   LIG    1        1.615  -0.570  -0.016  0.00  0.00    +0.020 S 
ATOM     23  C   LIG    1        0.002  -0.004   0.002  0.00  0.00    +0.350 A 
ATOM     24  N   LIG    1       -0.015   1.292   0.009  0.00  0.00    -0.570 NA
ENDBRANCH  16  23
ENDBRANCH  15  17
ENDBRANCH   1  15
TORSDOF 5
