REMARK  Name = ZINCpk00000xIh3x.0
REMARK                            x       y       z     vdW  Elec       q    Type
REMARK                         _______ _______ _______ _____ _____    ______ ____
ROOT
ATOM      1  C   LIG    1        0.002  -0.004   0.002  0.00  0.00    +0.040 C 
ENDROOT
BRANCH   1   2
ATOM      2  C   LIG    1       -0.019   1.526   0.010  0.00  0.00    +0.060 C 
BRANCH   2   5
ATOM      3  N   LIG    1       -0.863   3.334   1.472  0.00  0.00    -0.720 N 
ATOM      4  H   LIG    1       -0.509   3.973   0.834  0.00  0.00    +0.410 HD
ATOM      5  C   LIG    1       -0.724   2.012   1.250  0.00  0.00    +0.520 C 
ATOM      6  O   LIG    1       -1.167   1.213   2.049  0.00  0.00    -0.530 OA
BRANCH   3   7
ATOM      7  C   LIG    1       -1.549   3.806   2.677  0.00  0.00    +0.190 C 
ATOM      8  C   LIG    1       -0.809   3.300   3.917  0.00  0.00    +0.070 C 
ATOM      9  C   LIG    1       -2.984   3.277   2.688  0.00  0.00    +0.080 C 
BRANCH   7  10
ATOM     10  C   LIG    1       -1.569   5.313   2.686  0.00  0.00    +0.460 C 
ATOM     11  O   LIG    1       -2.521   5.902   3.140  0.00  0.00    -0.490 OA
BRANCH  10  13
ATOM     12  C   LIG    1       -0.618   7.450   2.229  0.00  0.00    +0.280 C 
ATOM     13  O   LIG    1       -0.530   6.001   2.188  0.00  0.00    -0.360 OA
ENDBRANCH  10  13
ENDBRANCH   7  10
ENDBRANCH   3   7
ENDBRANCH   2   5
ENDBRANCH   1   2
BRANCH   1  14
ATOM     14  C   LIG    1        0.718  -0.497  -1.257  0.00  0.00    +0.310 C 
BRANCH  14  15
ATOM     15  N   LIG    1        0.738  -1.962  -1.265  0.00  0.00    -0.580 N 
ATOM     16  C   LIG    1        1.717  -2.713  -0.729  0.00  0.00    +0.580 C 
ATOM     17  C   LIG    1        1.381  -4.138  -0.930  0.00  0.00    -0.150 A 
ATOM     18  C   LIG    1        1.998  -5.334  -0.599  0.00  0.00    +0.100 A 
ATOM     19  C   LIG    1        1.402  -6.535  -0.951  0.00  0.00    +0.040 A 
ATOM     20  C   LIG    1        0.199  -6.548  -1.631  0.00  0.00    -0.060 A 
ATOM     21  C   LIG    1       -0.429  -5.359  -1.970  0.00  0.00    +0.090 A 
ATOM     22  C   LIG    1       -0.434  -7.863  -2.006  0.00  0.00    +0.120 C 
ATOM     23  C   LIG    1        0.154  -4.151  -1.623  0.00  0.00    -0.140 A 
ATOM     24  O   LIG    1        2.709  -2.291  -0.170  0.00  0.00    -0.460 OA
ATOM     25  C   LIG    1       -0.217  -2.733  -1.815  0.00  0.00    +0.580 C 
ATOM     26  O   LIG    1       -1.218  -2.332  -2.374  0.00  0.00    -0.460 OA
ENDBRANCH  14  15
ENDBRANCH   1  14
TORSDOF 7
