REMARK  Name = ZINCrH00000No4tO.0
REMARK                            x       y       z     vdW  Elec       q    Type
REMARK                         _______ _______ _______ _____ _____    ______ ____
ROOT
ATOM      1  C   LIG    1       -1.233  -2.267  -0.002  0.00  0.00    -0.030 C 
ATOM      2  C   LIG    1       -1.108  -2.771  -1.442  0.00  0.00    +0.050 C 
ATOM      3  C   LIG    1       -1.051  -4.302  -1.439  0.00  0.00    +0.280 C 
ATOM      4  N   LIG    1       -2.223  -4.818  -0.719  0.00  0.00    -0.610 N 
ATOM      5  C   LIG    1       -2.488  -4.329   0.641  0.00  0.00    +0.280 C 
ATOM      6  C   LIG    1       -3.039  -5.722  -1.295  0.00  0.00    +0.550 C 
ATOM      7  O   LIG    1       -2.865  -6.048  -2.454  0.00  0.00    -0.540 OA
ATOM      8  C   LIG    1       -2.529  -2.798   0.615  0.00  0.00    +0.040 C 
ENDROOT
BRANCH   1  10
ATOM      9  O   LIG    1       -2.315  -0.170   0.011  0.00  0.00    -0.450 OA
ATOM     10  C   LIG    1       -1.256  -0.760   0.002  0.00  0.00    +0.400 C 
BRANCH  10  11
ATOM     11  C   LIG    1        0.007  -0.005  -0.005  0.00  0.00    -0.170 A 
ATOM     12  C   LIG    1       -0.009   1.393  -0.001  0.00  0.00    +0.070 A 
ATOM     13  C   LIG    1        1.179   2.093  -0.007  0.00  0.00    +0.000 A 
ATOM     14  C   LIG    1        2.385   1.415  -0.017  0.00  0.00    +0.040 A 
ATOM     15  C   LIG    1        2.410   0.032  -0.021  0.00  0.00    +0.000 A 
ATOM     16  C   LIG    1        1.231  -0.683  -0.015  0.00  0.00    +0.060 A 
ENDBRANCH  10  11
ENDBRANCH   1  10
BRANCH   6  17
ATOM     17  C   LIG    1       -4.136  -6.313  -0.525  0.00  0.00    -0.070 C 
ATOM     18  C   LIG    1       -4.891  -7.290  -1.067  0.00  0.00    +0.130 C 
BRANCH  18  19
ATOM     19  C   LIG    1       -5.994  -7.883  -0.294  0.00  0.00    -0.070 A 
ATOM     20  C   LIG    1       -6.258  -7.441   1.006  0.00  0.00    +0.090 A 
ATOM     21  C   LIG    1       -7.297  -7.998   1.722  0.00  0.00    +0.040 A 
ATOM     22  C   LIG    1       -8.069  -9.001   1.162  0.00  0.00    +0.110 A 
ATOM     23  C   LIG    1       -7.809  -9.448  -0.122  0.00  0.00    -0.040 A 
ATOM     24  C   LIG    1       -6.778  -8.897  -0.853  0.00  0.00    +0.130 A 
BRANCH  23  25
ATOM     25  N   LIG    1       -8.641 -10.521  -0.712  0.00  0.00    +0.020 N 
ATOM     26  O   LIG    1       -9.553 -11.008  -0.068  0.00  0.00    -0.150 OA
ATOM     27  O   LIG    1       -8.415 -10.916  -1.841  0.00  0.00    -0.150 OA
ENDBRANCH  23  25
ENDBRANCH  18  19
ENDBRANCH   6  17
TORSDOF 5
