REMARK  Name = ZINCvU00000005gy.0
REMARK                            x       y       z     vdW  Elec       q    Type
REMARK                         _______ _______ _______ _____ _____    ______ ____
ROOT
ATOM      1  C   LIG    1        2.160   9.898   0.037  0.00  0.00    -0.070 A 
ATOM      2  C   LIG    1        0.969  10.604  -0.057  0.00  0.00    +0.020 A 
ATOM      3  C   LIG    1        0.997  12.007  -0.038  0.00  0.00    +0.190 A 
ATOM      4  N   LIG    1        2.120  12.687   0.053  0.00  0.00    -0.420 NA
ATOM      5  C   LIG    1        3.310  12.091   0.142  0.00  0.00    +0.130 A 
ATOM      6  C   LIG    1        4.494  12.844   0.239  0.00  0.00    +0.050 A 
ATOM      7  C   LIG    1        5.694  12.207   0.329  0.00  0.00    +0.030 A 
ATOM      8  C   LIG    1        5.772  10.816   0.325  0.00  0.00    +0.030 A 
ATOM      9  C   LIG    1        4.645  10.053   0.232  0.00  0.00    +0.060 A 
ATOM     10  C   LIG    1        3.396  10.675   0.139  0.00  0.00    -0.060 A 
ENDROOT
BRANCH   3  11
ATOM     11  C   LIG    1       -0.283  12.749  -0.133  0.00  0.00    -0.050 A 
ATOM     12  C   LIG    1       -1.488  12.056  -0.237  0.00  0.00    +0.040 A 
ATOM     13  C   LIG    1       -2.677  12.752  -0.319  0.00  0.00    +0.020 A 
ATOM     14  C   LIG    1       -2.674  14.136  -0.310  0.00  0.00    +0.050 A 
ATOM     15  C   LIG    1       -1.482  14.830  -0.213  0.00  0.00    +0.020 A 
ATOM     16  C   LIG    1       -0.286  14.145  -0.124  0.00  0.00    -0.000 A 
ATOM     17 CL   LIG    1        1.210  15.017  -0.002  0.00  0.00    -0.030 Cl
ENDBRANCH   3  11
BRANCH   1  20
ATOM     18  N   LIG    1        1.022   7.730   0.043  0.00  0.00    -0.580 N 
ATOM     19  H   LIG    1        0.176   8.204   0.060  0.00  0.00    +0.390 HD
ATOM     20  C   LIG    1        2.180   8.420   0.028  0.00  0.00    +0.580 C 
ATOM     21  O   LIG    1        3.241   7.826   0.008  0.00  0.00    -0.480 OA
BRANCH  18  24
ATOM     22  C   LIG    1       -1.390   6.400   0.075  0.00  0.00    +0.100 C 
ATOM     23  C   LIG    1       -0.075   5.665   0.050  0.00  0.00    +0.130 C 
ATOM     24  N   LIG    1        1.041   6.329   0.035  0.00  0.00    -0.220 NA
BRANCH  23  25
ATOM     25  C   LIG    1       -0.055   4.192   0.041  0.00  0.00    -0.020 A 
ATOM     26  C   LIG    1        1.166   3.509   0.017  0.00  0.00    +0.070 A 
ATOM     27  C   LIG    1        1.184   2.143   0.010  0.00  0.00    +0.070 A 
ATOM     28  C   LIG    1       -0.017   1.428   0.026  0.00  0.00    -0.010 A 
ATOM     29  C   LIG    1       -1.238   2.110   0.044  0.00  0.00    +0.070 A 
ATOM     30  C   LIG    1       -1.256   3.476   0.057  0.00  0.00    +0.050 A 
BRANCH  28  31
ATOM     31  C   LIG    1        0.002  -0.004   0.018  0.00  0.00    +0.250 C 
ATOM     32  N   LIG    1        0.018  -1.140   0.012  0.00  0.00    -0.410 NA
ENDBRANCH  28  31
ENDBRANCH  23  25
ENDBRANCH  18  24
ENDBRANCH   1  20
TORSDOF 5
