REMARK  Name = ZINCvU0000000FdR.0
REMARK                            x       y       z     vdW  Elec       q    Type
REMARK                         _______ _______ _______ _____ _____    ______ ____
ROOT
ATOM      1  C   LIG    1        5.616   5.135  -0.050  0.00  0.00    +0.550 C 
ATOM      2  O   LIG    1        6.823   5.276  -0.068  0.00  0.00    -0.490 OA
ENDROOT
BRANCH   1   3
ATOM      3  C   LIG    1        5.033   3.785  -0.053  0.00  0.00    -0.270 A 
ATOM      4  C   LIG    1        3.690   3.464  -0.040  0.00  0.00    +0.340 A 
ATOM      5  N   LIG    1        3.587   2.124  -0.046  0.00  0.00    -0.300 N 
ATOM      6  N   LIG    1        4.862   1.553  -0.072  0.00  0.00    -0.270 NA
ATOM      7  C   LIG    1        5.763   2.512  -0.078  0.00  0.00    +0.220 A 
BRANCH   5   8
ATOM      8  C   LIG    1        2.382   1.409  -0.034  0.00  0.00    +0.140 A 
ATOM      9  C   LIG    1        1.171   2.086  -0.008  0.00  0.00    +0.000 A 
ATOM     10  C   LIG    1       -0.015   1.378   0.004  0.00  0.00    +0.050 A 
ATOM     11  C   LIG    1        0.004  -0.005  -0.009  0.00  0.00    +0.010 A 
ATOM     12  C   LIG    1        1.209  -0.683  -0.036  0.00  0.00    +0.040 A 
ATOM     13  C   LIG    1        2.398   0.020  -0.048  0.00  0.00    +0.030 A 
ENDBRANCH   5   8
BRANCH   7  14
ATOM     14  C   LIG    1        7.229   2.340  -0.103  0.00  0.00    -0.150 A 
ATOM     15  C   LIG    1        7.908   1.347   0.507  0.00  0.00    +0.050 A 
ATOM     16  C   LIG    1        9.276   1.396   0.340  0.00  0.00    -0.010 A 
ATOM     17  C   LIG    1        9.720   2.417  -0.399  0.00  0.00    -0.060 A 
ATOM     18  S   LIG    1        8.361   3.394  -0.941  0.00  0.00    +0.230 S 
ENDBRANCH   7  14
ENDBRANCH   1   3
BRANCH   1  19
ATOM     19  O   LIG    1        4.811   6.217  -0.026  0.00  0.00    -0.330 OA
BRANCH  19  20
ATOM     20  C   LIG    1        5.456   7.518  -0.024  0.00  0.00    +0.270 C 
BRANCH  20  23
ATOM     21  N   LIG    1        4.773   9.895   0.011  0.00  0.00    -0.660 N 
ATOM     22  H   LIG    1        5.711  10.133   0.079  0.00  0.00    +0.410 HD
ATOM     23  C   LIG    1        4.406   8.599   0.004  0.00  0.00    +0.510 C 
ATOM     24  O   LIG    1        3.230   8.302   0.020  0.00  0.00    -0.490 OA
BRANCH  21  29
ATOM     25  C   LIG    1        0.835  13.962  -0.358  0.00  0.00    +0.100 C 
ATOM     26  C   LIG    1        1.881  12.882  -0.260  0.00  0.00    -0.100 A 
ATOM     27  C   LIG    1        1.618  11.619  -0.758  0.00  0.00    +0.030 A 
ATOM     28  C   LIG    1        2.577  10.629  -0.676  0.00  0.00    +0.030 A 
ATOM     29  C   LIG    1        3.802  10.898  -0.080  0.00  0.00    +0.140 A 
ATOM     30  C   LIG    1        4.063  12.167   0.420  0.00  0.00    -0.110 A 
ATOM     31  C   LIG    1        5.394  12.466   1.062  0.00  0.00    +0.080 C 
ATOM     32  C   LIG    1        3.102  13.155   0.329  0.00  0.00    +0.030 A 
ENDBRANCH  21  29
ENDBRANCH  20  23
ENDBRANCH  19  20
ENDBRANCH   1  19
TORSDOF 7
