REMARK  Name = ZINCrH00000tj1oL.0
REMARK                            x       y       z     vdW  Elec       q    Type
REMARK                         _______ _______ _______ _____ _____    ______ ____
ROOT
ATOM      1  S   LIG    1       -1.441  -1.019  -0.049  0.00  0.00    +2.700 S 
ATOM      2  O   LIG    1       -2.504  -0.121  -0.333  0.00  0.00    -0.960 OA
ATOM      3  O   LIG    1       -1.403  -1.837   1.112  0.00  0.00    -0.940 OA
ENDROOT
BRANCH   1  10
ATOM      4  C   LIG    1        1.259  -0.663   0.200  0.00  0.00    +0.220 A 
ATOM      5  C   LIG    1        2.417   0.099   0.218  0.00  0.00    -0.090 A 
ATOM      6  C   LIG    1        2.348   1.464   0.013  0.00  0.00    +0.010 A 
ATOM      7  C   LIG    1        1.125   2.069  -0.211  0.00  0.00    -0.130 A 
ATOM      8  C   LIG    1       -0.031   1.311  -0.230  0.00  0.00    +0.170 A 
ATOM      9  C   LIG    1        3.606   2.293   0.033  0.00  0.00    +0.100 C 
ATOM     10  C   LIG    1        0.033  -0.054  -0.025  0.00  0.00    -0.710 A 
BRANCH   7  11
ATOM     11  C   LIG    1        1.052   3.558  -0.435  0.00  0.00    +0.030 C 
ATOM     12  C   LIG    1        0.296   4.211   0.724  0.00  0.00    +0.030 C 
ATOM     13  C   LIG    1        0.319   3.841  -1.747  0.00  0.00    +0.030 C 
ENDBRANCH   7  11
BRANCH   4  14
ATOM     14  O   LIG    1        1.325  -2.006   0.402  0.00  0.00    -0.310 OA
BRANCH  14  16
ATOM     15  C   LIG    1        2.494  -4.076   0.833  0.00  0.00    +0.060 C 
ATOM     16  C   LIG    1        2.620  -2.565   0.627  0.00  0.00    +0.190 C 
ENDBRANCH  14  16
ENDBRANCH   4  14
ENDBRANCH   1  10
BRANCH   1  17
ATOM     17  N   LIG    1       -1.335  -2.043  -1.347  0.00  0.00    -1.110 NA
ATOM     18  H   LIG    1       -1.957  -1.956  -2.085  0.00  0.00    +0.420 HD
BRANCH  17  19
ATOM     19  C   LIG    1       -0.301  -3.081  -1.378  0.00  0.00    +0.350 C 
BRANCH  19  20
ATOM     20  C   LIG    1       -0.635  -4.089  -2.447  0.00  0.00    -0.090 A 
ATOM     21  C   LIG    1       -1.403  -5.196  -2.136  0.00  0.00    +0.050 A 
ATOM     22  C   LIG    1       -1.716  -6.121  -3.115  0.00  0.00    +0.040 A 
ATOM     23  C   LIG    1       -1.250  -5.947  -4.408  0.00  0.00    +0.040 A 
ATOM     24  O   LIG    1       -1.408  -6.699  -5.536  0.00  0.00    -0.310 OA
ATOM     25  C   LIG    1       -0.381  -6.254  -6.442  0.00  0.00    +0.430 C 
ATOM     26  O   LIG    1       -0.141  -4.891  -6.043  0.00  0.00    -0.310 OA
ATOM     27  C   LIG    1       -0.472  -4.835  -4.720  0.00  0.00    +0.030 A 
ATOM     28  C   LIG    1       -0.167  -3.909  -3.736  0.00  0.00    +0.060 A 
ENDBRANCH  19  20
ENDBRANCH  17  19
ENDBRANCH   1  17
TORSDOF 7
