REMARK  Name = ZINCrH000004sMpn.0
REMARK                            x       y       z     vdW  Elec       q    Type
REMARK                         _______ _______ _______ _____ _____    ______ ____
ROOT
ATOM      1  S   LIG    1        6.390   2.123  -2.086  0.00  0.00    +0.030 S 
ENDROOT
BRANCH   1   6
ATOM      2  C   LIG    1        8.962   2.748  -6.694  0.00  0.00    +0.200 C 
ATOM      3  C   LIG    1        8.198   3.021  -5.425  0.00  0.00    +0.190 A 
ATOM      4  N   LIG    1        7.804   4.186  -4.995  0.00  0.00    -0.280 NA
ATOM      5  N   LIG    1        7.179   4.057  -3.880  0.00  0.00    -0.290 NA
ATOM      6  C   LIG    1        7.139   2.791  -3.534  0.00  0.00    +0.150 A 
ATOM      7  N   LIG    1        7.793   2.091  -4.507  0.00  0.00    -0.460 N 
BRANCH   7   8
ATOM      8  C   LIG    1        8.014   0.644  -4.558  0.00  0.00    +0.370 C 
BRANCH   8   9
ATOM      9  C   LIG    1        6.868  -0.014  -5.282  0.00  0.00    -0.120 A 
ATOM     10  C   LIG    1        5.760  -0.446  -4.576  0.00  0.00    +0.040 A 
ATOM     11  C   LIG    1        4.707  -1.044  -5.242  0.00  0.00    +0.010 A 
ATOM     12  C   LIG    1        4.765  -1.220  -6.612  0.00  0.00    +0.030 A 
ATOM     13  C   LIG    1        5.874  -0.793  -7.317  0.00  0.00    +0.010 A 
ATOM     14  C   LIG    1        6.926  -0.190  -6.652  0.00  0.00    +0.020 A 
ENDBRANCH   8   9
ENDBRANCH   7   8
ENDBRANCH   1   6
BRANCH   1  15
ATOM     15  C   LIG    1        5.762   3.642  -1.328  0.00  0.00    +0.160 C 
BRANCH  15  16
ATOM     16  C   LIG    1        5.061   3.307  -0.037  0.00  0.00    +0.030 A 
ATOM     17  C   LIG    1        5.646   3.566   1.162  0.00  0.00    -0.050 A 
ATOM     18  C   LIG    1        4.970   3.242   2.356  0.00  0.00    +0.510 A 
ATOM     19  O   LIG    1        3.751   2.679   2.347  0.00  0.00    -0.270 OA
ATOM     20  C   LIG    1        3.115   2.395   1.190  0.00  0.00    +0.170 A 
ATOM     21  C   LIG    1        1.854   1.819   1.197  0.00  0.00    -0.010 A 
ATOM     22  C   LIG    1        1.221   1.532  -0.001  0.00  0.00    +0.170 A 
ATOM     23  C   LIG    1        1.837   1.828  -1.216  0.00  0.00    -0.020 A 
ATOM     24  C   LIG    1        3.076   2.400  -1.241  0.00  0.00    +0.110 A 
ATOM     25  O   LIG    1        5.505   3.480   3.424  0.00  0.00    -0.450 OA
ATOM     26  C   LIG    1        3.732   2.692  -0.040  0.00  0.00    -0.160 A 
BRANCH  22  27
ATOM     27  O   LIG    1       -0.011   0.963   0.007  0.00  0.00    -0.490 OA
ATOM     28  H   LIG    1        0.002  -0.004   0.002  0.00  0.00    +0.400 HD
ENDBRANCH  22  27
ENDBRANCH  15  16
ENDBRANCH   1  15
TORSDOF 6
