REMARK  Name = ZINCpk00000y5M9p.1
REMARK                            x       y       z     vdW  Elec       q    Type
REMARK                         _______ _______ _______ _____ _____    ______ ____
ROOT
ATOM      1  C   LIG    1        0.678   5.435   0.022  0.00  0.00    +0.480 A 
ATOM      2  N   LIG    1       -0.648   5.486   0.034  0.00  0.00    -0.460 NA
ATOM      3  C   LIG    1       -1.377   4.381   0.036  0.00  0.00    +0.150 A 
ATOM      4  C   LIG    1       -0.730   3.155   0.025  0.00  0.00    -0.050 A 
ATOM      5  N   LIG    1       -1.132   1.834   0.017  0.00  0.00    -0.580 N 
ATOM      6  H   LIG    1       -2.047   1.511   0.019  0.00  0.00    +0.440 HD
ATOM      7  C   LIG    1       -0.013   1.076   0.008  0.00  0.00    +0.580 A 
ATOM      8  N   LIG    1        1.047   1.836   0.002  0.00  0.00    -0.480 NA
ATOM      9  C   LIG    1        0.679   3.131   0.012  0.00  0.00    +0.340 A 
ATOM     10  N   LIG    1        1.339   4.291   0.011  0.00  0.00    -0.480 NA
ENDROOT
BRANCH   1  14
ATOM     11  C   LIG    1        2.354   8.347  -1.339  0.00  0.00    +0.180 C 
ATOM     12  C   LIG    1        3.478   7.670  -0.528  0.00  0.00    +0.090 C 
ATOM     13  C   LIG    1        2.856   6.362   0.006  0.00  0.00    +0.290 C 
ATOM     14  N   LIG    1        1.393   6.622   0.021  0.00  0.00    -0.440 N 
ATOM     15  C   LIG    1        1.147   7.391  -1.226  0.00  0.00    +0.210 C 
BRANCH  13  16
ATOM     16  C   LIG    1        3.353   6.074   1.400  0.00  0.00    +0.210 A 
ATOM     17  N   LIG    1        4.597   5.915   1.760  0.00  0.00    -0.280 NA
ATOM     18  N   LIG    1        4.656   5.688   3.024  0.00  0.00    -0.290 NA
ATOM     19  C   LIG    1        3.451   5.682   3.526  0.00  0.00    +0.370 A 
ATOM     20  N   LIG    1        2.590   5.927   2.510  0.00  0.00    -0.570 N 
ATOM     21  H   LIG    1        1.623   5.985   2.565  0.00  0.00    +0.430 HD
ENDBRANCH  13  16
BRANCH  11  23
ATOM     22  C   LIG    1        2.167   9.623  -3.359  0.00  0.00    +0.210 C 
ATOM     23  O   LIG    1        2.746   8.492  -2.705  0.00  0.00    -0.380 OA
ENDBRANCH  11  23
ENDBRANCH   1  14
BRANCH   3  24
ATOM     24  C   LIG    1       -2.882   4.453   0.050  0.00  0.00    +0.520 C 
ATOM     25  F   LIG    1       -3.364   3.914   1.247  0.00  0.00    -0.160 F 
ATOM     26  F   LIG    1       -3.394   3.725  -1.029  0.00  0.00    -0.170 F 
ATOM     27  F   LIG    1       -3.285   5.789  -0.056  0.00  0.00    -0.150 F 
ENDBRANCH   3  24
TORSDOF 4
