REMARK  Name = ZINCpk00000y5M9p.0
REMARK                            x       y       z     vdW  Elec       q    Type
REMARK                         _______ _______ _______ _____ _____    ______ ____
ROOT
ATOM      1  C   LIG    1        1.152  -0.656  -0.013  0.00  0.00    +0.500 A 
ATOM      2  N   LIG    1        2.321  -0.028  -0.020  0.00  0.00    -0.460 NA
ATOM      3  C   LIG    1        2.389   1.294  -0.014  0.00  0.00    +0.150 A 
ATOM      4  C   LIG    1        1.211   2.023   0.001  0.00  0.00    -0.060 A 
ATOM      5  N   LIG    1        0.889   3.365   0.011  0.00  0.00    -0.580 N 
ATOM      6  H   LIG    1        1.514   4.107   0.008  0.00  0.00    +0.440 HD
ATOM      7  C   LIG    1       -0.461   3.453   0.024  0.00  0.00    +0.570 A 
ATOM      8  N   LIG    1       -0.989   2.260   0.018  0.00  0.00    -0.480 NA
ATOM      9  C   LIG    1       -0.016   1.330   0.009  0.00  0.00    +0.340 A 
ATOM     10  N   LIG    1        0.002  -0.004   0.002  0.00  0.00    -0.480 NA
ENDROOT
BRANCH   1  14
ATOM     11  C   LIG    1        1.154  -4.009  -1.390  0.00  0.00    +0.180 C 
ATOM     12  C   LIG    1       -0.142  -3.998  -0.554  0.00  0.00    +0.080 C 
ATOM     13  C   LIG    1       -0.257  -2.558  -0.010  0.00  0.00    +0.280 C 
ATOM     14  N   LIG    1        1.136  -2.042  -0.020  0.00  0.00    -0.410 N 
ATOM     15  C   LIG    1        1.713  -2.574  -1.281  0.00  0.00    +0.210 C 
BRANCH  13  16
ATOM     16  C   LIG    1       -0.804  -2.566   1.394  0.00  0.00    +0.240 A 
ATOM     17  N   LIG    1       -2.001  -2.173   1.745  0.00  0.00    -0.290 NA
ATOM     18  N   LIG    1       -2.094  -2.349   3.135  0.00  0.00    -0.480 N 
ATOM     19  H   LIG    1       -2.859  -2.149   3.696  0.00  0.00    +0.440 HD
ATOM     20  C   LIG    1       -0.912  -2.850   3.533  0.00  0.00    +0.470 A 
ATOM     21  N   LIG    1       -0.149  -2.980   2.478  0.00  0.00    -0.520 NA
ENDBRANCH  13  16
BRANCH  11  23
ATOM     22  C   LIG    1        1.923  -5.005  -3.431  0.00  0.00    +0.210 C 
ATOM     23  O   LIG    1        0.863  -4.326  -2.753  0.00  0.00    -0.380 OA
ENDBRANCH  11  23
ENDBRANCH   1  14
BRANCH   3  24
ATOM     24  C   LIG    1        3.724   1.993  -0.022  0.00  0.00    +0.520 C 
ATOM     25  F   LIG    1        3.889   2.697   1.175  0.00  0.00    -0.160 F 
ATOM     26  F   LIG    1        3.776   2.886  -1.099  0.00  0.00    -0.170 F 
ATOM     27  F   LIG    1        4.746   1.047  -0.152  0.00  0.00    -0.150 F 
ENDBRANCH   3  24
TORSDOF 4
