REMARK  Name = ZINCnE000001OPCu.0
REMARK                            x       y       z     vdW  Elec       q    Type
REMARK                         _______ _______ _______ _____ _____    ______ ____
ROOT
ATOM      1  S   LIG    1       -5.052   3.182   2.509  0.00  0.00    +2.690 S 
ATOM      2  O   LIG    1       -5.166   3.421   1.113  0.00  0.00    -0.960 OA
ATOM      3  O   LIG    1       -5.793   3.903   3.484  0.00  0.00    -0.940 OA
ENDROOT
BRANCH   1   9
ATOM      4  C   LIG    1        0.013   3.161   1.219  0.00  0.00    +0.090 C 
ATOM      5  C   LIG    1       -1.046   3.376   2.270  0.00  0.00    -0.120 A 
ATOM      6  C   LIG    1       -0.683   3.746   3.551  0.00  0.00    +0.070 A 
ATOM      7  C   LIG    1       -1.655   3.944   4.515  0.00  0.00    -0.120 A 
ATOM      8  C   LIG    1       -2.989   3.771   4.196  0.00  0.00    +0.030 A 
ATOM      9  C   LIG    1       -3.352   3.401   2.915  0.00  0.00    -0.680 A 
ATOM     10  C   LIG    1       -4.048   3.987   5.247  0.00  0.00    +0.110 C 
ATOM     11  C   LIG    1       -1.259   4.348   5.912  0.00  0.00    +0.100 C 
ATOM     12  C   LIG    1       -2.381   3.209   1.950  0.00  0.00    +0.020 A 
ATOM     13  C   LIG    1       -2.776   2.812   0.551  0.00  0.00    +0.110 C 
ENDBRANCH   1   9
BRANCH   1  14
ATOM     14  N   LIG    1       -5.409   1.582   2.740  0.00  0.00    -1.060 N 
ATOM     15  H   LIG    1       -5.606   1.014   1.979  0.00  0.00    +0.420 HD
BRANCH  14  16
ATOM     16  C   LIG    1       -5.426   1.050   4.032  0.00  0.00    +0.100 A 
ATOM     17  C   LIG    1       -4.231   0.789   4.693  0.00  0.00    -0.010 A 
ATOM     18  C   LIG    1       -4.243   0.267   5.973  0.00  0.00    -0.010 A 
ATOM     19  C   LIG    1       -5.440  -0.009   6.600  0.00  0.00    +0.050 A 
ATOM     20  C   LIG    1       -6.647   0.243   5.943  0.00  0.00    -0.120 A 
ATOM     21  C   LIG    1       -6.636   0.775   4.653  0.00  0.00    +0.060 A 
BRANCH  20  22
ATOM     22  C   LIG    1       -7.929  -0.052   6.611  0.00  0.00    +0.520 C 
ATOM     23  O   LIG    1       -7.937  -0.518   7.742  0.00  0.00    -0.680 OA
ATOM     24  O   LIG    1       -8.985   0.170   6.034  0.00  0.00    -0.680 OA
ENDBRANCH  20  22
ENDBRANCH  14  16
ENDBRANCH   1  14
TORSDOF 4
