REMARK  Name = ZINCqH0000004YIQ.0
REMARK                            x       y       z     vdW  Elec       q    Type
REMARK                         _______ _______ _______ _____ _____    ______ ____
ROOT
ATOM      1  C   LIG    1        0.149   0.177   2.465  0.00  0.00    +0.280 C 
ENDROOT
BRANCH   1   4
ATOM      2  C   LIG    1       -0.035   1.459  -0.059  0.00  0.00    +0.300 C 
ATOM      3  N   LIG    1        0.002  -0.004   0.002  0.00  0.00    -0.570 N 
ATOM      4  C   LIG    1        0.031  -0.628   1.196  0.00  0.00    +0.510 C 
ATOM      5  O   LIG    1       -0.039  -1.838   1.250  0.00  0.00    -0.510 OA
BRANCH   3   6
ATOM      6  C   LIG    1        0.008  -0.754  -1.179  0.00  0.00    +0.130 A 
ATOM      7  C   LIG    1        1.085  -0.669  -2.052  0.00  0.00    +0.010 A 
ATOM      8  C   LIG    1        1.090  -1.415  -3.215  0.00  0.00    +0.020 A 
ATOM      9  C   LIG    1        0.019  -2.236  -3.515  0.00  0.00    +0.010 A 
ATOM     10  C   LIG    1       -1.057  -2.319  -2.651  0.00  0.00    +0.020 A 
ATOM     11  C   LIG    1       -1.066  -1.580  -1.484  0.00  0.00    +0.020 A 
ENDBRANCH   3   6
ENDBRANCH   1   4
BRANCH   1  12
ATOM     12  N   LIG    1        0.158  -0.726   3.618  0.00  0.00    -0.700 N 
ATOM     13  H   LIG    1        0.454  -1.644   3.512  0.00  0.00    +0.410 HD
ATOM     14  C   LIG    1       -0.243  -0.282   4.825  0.00  0.00    +0.660 C 
ATOM     15  O   LIG    1       -0.613   0.868   4.957  0.00  0.00    -0.550 OA
BRANCH  14  16
ATOM     16  O   LIG    1       -0.234  -1.112   5.885  0.00  0.00    -0.360 OA
BRANCH  16  17
ATOM     17  C   LIG    1       -0.680  -0.566   7.154  0.00  0.00    +0.140 C 
ATOM     18  C   LIG    1        0.217   0.611   7.546  0.00  0.00    +0.040 C 
ATOM     19  C   LIG    1       -0.601  -1.649   8.232  0.00  0.00    +0.080 C 
ATOM     20  C   LIG    1       -2.126  -0.083   7.022  0.00  0.00    +0.040 C 
ENDBRANCH  16  17
ENDBRANCH  14  16
ENDBRANCH   1  12
BRANCH   1  21
ATOM     21  C   LIG    1        1.449   0.983   2.437  0.00  0.00    +0.080 C 
BRANCH  21  22
ATOM     22  C   LIG    1        1.509   1.881   3.647  0.00  0.00    -0.070 A 
ATOM     23  C   LIG    1        0.992   3.161   3.583  0.00  0.00    +0.010 A 
ATOM     24  C   LIG    1        1.043   3.983   4.694  0.00  0.00    +0.010 A 
ATOM     25  C   LIG    1        1.620   3.528   5.864  0.00  0.00    +0.000 A 
ATOM     26  C   LIG    1        2.143   2.249   5.926  0.00  0.00    +0.010 A 
ATOM     27  C   LIG    1        2.087   1.426   4.817  0.00  0.00    +0.000 A 
ENDBRANCH  21  22
ENDBRANCH   1  21
TORSDOF 7
