REMARK  Name = ZINCqH0000007CDx.0
REMARK                            x       y       z     vdW  Elec       q    Type
REMARK                         _______ _______ _______ _____ _____    ______ ____
ROOT
ATOM      1  C   LIG    1        0.698  -2.634  -0.283  0.00  0.00    +0.570 C 
ATOM      2  N   LIG    1        1.656  -1.686  -0.281  0.00  0.00    -0.650 N 
ATOM      3  H   LIG    1        2.586  -1.936  -0.399  0.00  0.00    +0.410 HD
ATOM      4  O   LIG    1       -0.468  -2.321  -0.134  0.00  0.00    -0.470 OA
ENDROOT
BRANCH   1   9
ATOM      5  C   LIG    1        0.429  -6.374  -0.639  0.00  0.00    +0.100 A 
ATOM      6  C   LIG    1        1.759  -6.718  -0.807  0.00  0.00    -0.030 A 
ATOM      7  C   LIG    1        2.741  -5.740  -0.805  0.00  0.00    +0.050 A 
ATOM      8  C   LIG    1        2.403  -4.415  -0.641  0.00  0.00    +0.020 A 
ATOM      9  C   LIG    1        1.064  -4.052  -0.465  0.00  0.00    -0.120 A 
ATOM     10  C   LIG    1        0.072  -5.040  -0.467  0.00  0.00    +0.130 A 
BRANCH   5  12
ATOM     11  C   LIG    1       -0.091  -8.687  -0.825  0.00  0.00    +0.250 C 
ATOM     12  O   LIG    1       -0.529  -7.339  -0.642  0.00  0.00    -0.300 OA
ENDBRANCH   5  12
BRANCH  10  13
ATOM     13  O   LIG    1       -1.231  -4.698  -0.302  0.00  0.00    -0.310 OA
ATOM     14  C   LIG    1       -1.980  -4.405  -1.483  0.00  0.00    +0.240 C 
ENDBRANCH  10  13
ENDBRANCH   1   9
BRANCH   2  15
ATOM     15  C   LIG    1        1.310  -0.347  -0.109  0.00  0.00    +0.310 A 
ATOM     16  C   LIG    1        0.047   0.158  -0.052  0.00  0.00    -0.080 A 
ATOM     17  C   LIG    1        0.146   1.540   0.128  0.00  0.00    +0.090 A 
ATOM     18  N   LIG    1        1.413   1.863   0.179  0.00  0.00    -0.280 NA
ATOM     19  C   LIG    1       -1.012   2.499   0.239  0.00  0.00    +0.160 C 
ATOM     20  N   LIG    1        2.174   0.696   0.032  0.00  0.00    -0.340 N 
BRANCH  20  21
ATOM     21  C   LIG    1        3.573   0.616   0.032  0.00  0.00    +0.140 A 
ATOM     22  C   LIG    1        4.215  -0.333   0.817  0.00  0.00    +0.000 A 
ATOM     23  C   LIG    1        5.595  -0.409   0.814  0.00  0.00    +0.020 A 
ATOM     24  C   LIG    1        6.335   0.458   0.032  0.00  0.00    +0.020 A 
ATOM     25  C   LIG    1        5.698   1.404  -0.750  0.00  0.00    +0.030 A 
ATOM     26  C   LIG    1        4.319   1.481  -0.757  0.00  0.00    -0.070 A 
ATOM     27  C   LIG    1        3.625   2.507  -1.615  0.00  0.00    +0.110 C 
ENDBRANCH  20  21
ENDBRANCH   2  15
TORSDOF 5
