REMARK  Name = ZINCkj00000hbrTi.1
REMARK                            x       y       z     vdW  Elec       q    Type
REMARK                         _______ _______ _______ _____ _____    ______ ____
ROOT
ATOM      1  C   LIG    1        2.049   1.744   1.261  0.00  0.00    +0.340 C 
ATOM      2  N   LIG    1        1.264   2.149   0.087  0.00  0.00    -0.390 N 
ATOM      3  H   LIG    1        1.500   1.559  -0.696  0.00  0.00    +0.420 HD
ENDROOT
BRANCH   2   4
ATOM      4  C   LIG    1        1.567   3.548  -0.245  0.00  0.00    +0.280 C 
BRANCH   4   5
ATOM      5  C   LIG    1        0.870   3.924  -1.554  0.00  0.00    -0.030 C 
ATOM      6  C   LIG    1        1.078   5.415  -1.833  0.00  0.00    +0.070 C 
ATOM      7  C   LIG    1        0.189   5.838  -3.009  0.00  0.00    +0.170 C 
ATOM      8  C   LIG    1        0.385   4.845  -4.130  0.00  0.00    +0.210 A 
ATOM      9  N   LIG    1        0.051   4.988  -5.380  0.00  0.00    -0.480 NA
ATOM     10  C   LIG    1        0.395   3.882  -6.059  0.00  0.00    +0.170 A 
ATOM     11  C   LIG    1        0.964   3.019  -5.192  0.00  0.00    +0.120 A 
ATOM     12  N   LIG    1        0.957   3.628  -3.972  0.00  0.00    -0.470 N 
ATOM     13  C   LIG    1        1.463   3.100  -2.703  0.00  0.00    +0.280 C 
ENDBRANCH   4   5
ENDBRANCH   2   4
BRANCH   2  14
ATOM     14  C   LIG    1       -0.168   2.016   0.386  0.00  0.00    +0.250 C 
BRANCH  14  15
ATOM     15  C   LIG    1       -0.508   0.541   0.609  0.00  0.00    +0.070 C 
BRANCH  15  16
ATOM     16  C   LIG    1       -2.000   0.403   0.920  0.00  0.00    -0.020 C 
ATOM     17  C   LIG    1       -2.341  -1.062   1.273  0.00  0.00    +0.060 C 
ATOM     18  C   LIG    1       -3.621  -1.306   0.441  0.00  0.00    +0.270 C 
ATOM     19  O   LIG    1       -3.505  -0.386  -0.684  0.00  0.00    -0.340 OA
ATOM     20  C   LIG    1       -2.825   0.708  -0.311  0.00  0.00    +0.480 C 
ATOM     21  O   LIG    1       -2.865   1.776  -0.873  0.00  0.00    -0.450 OA
ENDBRANCH  15  16
ENDBRANCH  14  15
ENDBRANCH   2  14
TORSDOF 5
