REMARK  Name = ZINCkj00000hbrTi.0
REMARK                            x       y       z     vdW  Elec       q    Type
REMARK                         _______ _______ _______ _____ _____    ______ ____
ROOT
ATOM      1  C   LIG    1        3.617   1.558   3.604  0.00  0.00    +0.330 C 
ATOM      2  N   LIG    1        4.323   1.282   2.345  0.00  0.00    -0.390 N 
ATOM      3  H   LIG    1        4.366   0.285   2.195  0.00  0.00    +0.420 HD
ENDROOT
BRANCH   2   4
ATOM      4  C   LIG    1        3.605   1.916   1.232  0.00  0.00    +0.280 C 
BRANCH   4   5
ATOM      5  C   LIG    1        2.229   1.264   1.076  0.00  0.00    -0.020 C 
ATOM      6  C   LIG    1        1.432   2.005  -0.001  0.00  0.00    +0.070 C 
ATOM      7  C   LIG    1       -0.018   1.506   0.010  0.00  0.00    +0.170 C 
ATOM      8  C   LIG    1        0.002  -0.004   0.002  0.00  0.00    +0.200 A 
ATOM      9  N   LIG    1       -0.984  -0.806  -0.277  0.00  0.00    -0.480 NA
ATOM     10  C   LIG    1       -0.562  -2.077  -0.174  0.00  0.00    +0.170 A 
ATOM     11  C   LIG    1        0.738  -2.059   0.185  0.00  0.00    +0.120 A 
ATOM     12  N   LIG    1        1.095  -0.748   0.296  0.00  0.00    -0.470 N 
ATOM     13  C   LIG    1        2.404  -0.203   0.664  0.00  0.00    +0.280 C 
ENDBRANCH   4   5
ENDBRANCH   2   4
BRANCH   2  14
ATOM     14  C   LIG    1        5.687   1.825   2.420  0.00  0.00    +0.270 C 
BRANCH  14  15
ATOM     15  C   LIG    1        6.474   1.077   3.498  0.00  0.00    +0.080 C 
BRANCH  15  16
ATOM     16  C   LIG    1        7.894   1.642   3.576  0.00  0.00    -0.020 C 
ATOM     17  C   LIG    1        8.746   0.821   4.569  0.00  0.00    +0.060 C 
ATOM     18  C   LIG    1        9.447   1.929   5.389  0.00  0.00    +0.270 C 
ATOM     19  O   LIG    1        8.539   3.068   5.312  0.00  0.00    -0.340 OA
ATOM     20  C   LIG    1        7.873   3.043   4.149  0.00  0.00    +0.480 C 
ATOM     21  O   LIG    1        7.337   3.996   3.635  0.00  0.00    -0.450 OA
ENDBRANCH  15  16
ENDBRANCH  14  15
ENDBRANCH   2  14
TORSDOF 5
