REMARK  Name = ZINCfA000000bk7v.0
REMARK                            x       y       z     vdW  Elec       q    Type
REMARK                         _______ _______ _______ _____ _____    ______ ____
ROOT
ATOM      1  N   LIG    1       -0.654   1.627   1.224  0.00  0.00    -0.500 N 
ATOM      2  H   LIG    1       -0.787   2.589   0.951  0.00  0.00    +0.430 HD
ATOM      3  H   LIG    1       -0.138   1.591   2.090  0.00  0.00    +0.420 HD
ENDROOT
BRANCH   1   7
ATOM      4  C   LIG    1       -3.515   0.597   3.289  0.00  0.00    +0.030 C 
ATOM      5  C   LIG    1       -3.146  -0.743   2.620  0.00  0.00    +0.070 C 
ATOM      6  C   LIG    1       -1.787  -0.462   1.932  0.00  0.00    +0.050 C 
ATOM      7  C   LIG    1       -1.963   0.984   1.407  0.00  0.00    +0.150 C 
ATOM      8  C   LIG    1       -2.763   1.695   2.518  0.00  0.00    +0.090 C 
BRANCH   4  10
ATOM      9  C   LIG    1       -5.985  -0.413   4.261  0.00  0.00    +0.150 C 
ATOM     10  S   LIG    1       -5.304   0.875   3.179  0.00  0.00    -0.240 S 
ENDBRANCH   4  10
ENDBRANCH   1   7
BRANCH   1  11
ATOM     11  C   LIG    1        0.096   0.920   0.177  0.00  0.00    +0.230 C 
BRANCH  11  12
ATOM     12  C   LIG    1       -0.552   1.186  -1.183  0.00  0.00    -0.030 C 
ATOM     13  C   LIG    1       -1.785   2.092  -1.213  0.00  0.00    +0.020 C 
ATOM     14  C   LIG    1       -1.937   0.586  -1.435  0.00  0.00    +0.050 C 
ENDBRANCH  11  12
BRANCH  11  15
ATOM     15  C   LIG    1        1.542   1.421   0.160  0.00  0.00    -0.070 C 
ATOM     16  C   LIG    1        2.654   0.372   0.214  0.00  0.00    +0.090 C 
ATOM     17  C   LIG    1        2.366   1.245   1.437  0.00  0.00    +0.040 C 
ENDBRANCH  11  15
ENDBRANCH   1  11
TORSDOF 5
