REMARK  Name = ZINCzw0000000h9W.0
REMARK                            x       y       z     vdW  Elec       q    Type
REMARK                         _______ _______ _______ _____ _____    ______ ____
ROOT
ATOM      1  C   LIG    1        2.227  -0.092  -0.990  0.00  0.00    +0.240 C 
ATOM      2  C   LIG    1        0.814  -0.683  -1.019  0.00  0.00    +0.330 C 
ATOM      3  N   LIG    1        0.002  -0.004   0.002  0.00  0.00    -0.600 N 
ATOM      4  C   LIG    1       -0.018   1.467   0.010  0.00  0.00    +0.310 C 
ATOM      5  C   LIG    1        1.428   1.973  -0.001  0.00  0.00    +0.180 C 
ATOM      6  C   LIG    1       -0.705  -0.711   0.907  0.00  0.00    +0.660 C 
ATOM      7  O   LIG    1       -0.676  -1.925   0.885  0.00  0.00    -0.560 OA
ATOM      8  N   LIG    1        2.147   1.368  -1.130  0.00  0.00    -0.510 NA
ENDROOT
BRANCH   1  14
ATOM      9  C   LIG    1        4.456  -2.234  -0.772  0.00  0.00    +0.320 C 
ATOM     10  N   LIG    1        4.004  -1.598  -2.012  0.00  0.00    -0.450 N 
ATOM     11  C   LIG    1        4.482  -1.842  -3.271  0.00  0.00    +0.140 A 
ATOM     12  C   LIG    1        3.796  -1.042  -4.110  0.00  0.00    +0.150 A 
ATOM     13  N   LIG    1        2.919  -0.334  -3.384  0.00  0.00    -0.460 NA
ATOM     14  C   LIG    1        3.035  -0.664  -2.126  0.00  0.00    +0.180 A 
ENDBRANCH   1  14
BRANCH   6  15
ATOM     15  O   LIG    1       -1.442  -0.070   1.834  0.00  0.00    -0.360 OA
BRANCH  15  16
ATOM     16  C   LIG    1       -2.177  -0.895   2.776  0.00  0.00    +0.140 C 
ATOM     17  C   LIG    1       -3.159  -1.787   2.014  0.00  0.00    +0.030 C 
ATOM     18  C   LIG    1       -2.949   0.003   3.745  0.00  0.00    +0.080 C 
ATOM     19  C   LIG    1       -1.197  -1.769   3.561  0.00  0.00    +0.040 C 
ENDBRANCH  15  16
ENDBRANCH   6  15
BRANCH   8  20
ATOM     20  C   LIG    1        3.485   1.957  -1.279  0.00  0.00    +0.180 C 
BRANCH  20  21
ATOM     21  C   LIG    1        3.353   3.430  -1.670  0.00  0.00    +0.270 C 
BRANCH  21  22
ATOM     22  N   LIG    1        4.690   4.019  -1.819  0.00  0.00    -0.510 N 
ATOM     23  H   LIG    1        5.197   3.525  -2.538  0.00  0.00    +0.430 HD
ATOM     24  H   LIG    1        5.189   3.946  -0.945  0.00  0.00    +0.420 HD
BRANCH  22  25
ATOM     25  C   LIG    1        4.563   5.434  -2.194  0.00  0.00    +0.340 C 
BRANCH  25  26
ATOM     26  C   LIG    1        5.935   6.038  -2.347  0.00  0.00    -0.160 A 
ATOM     27  C   LIG    1        6.444   6.286  -3.606  0.00  0.00    +0.070 A 
ATOM     28  C   LIG    1        7.706   6.847  -3.747  0.00  0.00    +0.180 A 
ATOM     29  C   LIG    1        8.460   7.149  -2.621  0.00  0.00    +0.050 A 
ATOM     30  C   LIG    1        7.953   6.895  -1.362  0.00  0.00    +0.050 A 
ATOM     31  C   LIG    1        6.690   6.339  -1.222  0.00  0.00    +0.110 A 
BRANCH  28  32
ATOM     32  N   LIG    1        8.221   7.104  -5.026  0.00  0.00    -0.340 N 
ATOM     33  C   LIG    1        9.463   7.557  -5.308  0.00  0.00    +0.230 A 
ATOM     34  C   LIG    1        9.566   7.670  -6.652  0.00  0.00    -0.080 A 
ATOM     35  C   LIG    1        8.343   7.283  -7.212  0.00  0.00    +0.270 A 
ATOM     36  N   LIG    1        7.537   6.943  -6.238  0.00  0.00    -0.290 NA
ENDBRANCH  28  32
BRANCH  31  37
ATOM     37  O   LIG    1        6.191   6.090   0.018  0.00  0.00    -0.490 OA
ATOM     38  H   LIG    1        6.400   5.208   0.356  0.00  0.00    +0.390 HD
ENDBRANCH  31  37
ENDBRANCH  25  26
ENDBRANCH  22  25
ENDBRANCH  21  22
ENDBRANCH  20  21
ENDBRANCH   8  20
TORSDOF 10
