REMARK  Name = ZINCrH000004tSYq.1
REMARK                            x       y       z     vdW  Elec       q    Type
REMARK                         _______ _______ _______ _____ _____    ______ ____
ROOT
ATOM      1  O   LIG    1        0.002  -0.004   0.002  0.00  0.00    -0.450 OA
ATOM      2  C   LIG    1       -0.014   1.209   0.009  0.00  0.00    +0.510 C 
ATOM      3  N   LIG    1       -1.191   1.867   0.018  0.00  0.00    -0.630 N 
ATOM      4  H   LIG    1       -1.204   2.837   0.023  0.00  0.00    +0.430 HD
ENDROOT
BRANCH   3   5
ATOM      5  C   LIG    1       -2.385   1.155   0.020  0.00  0.00    +0.230 A 
ATOM      6  N   LIG    1       -2.496  -0.139   0.007  0.00  0.00    -0.270 NA
ATOM      7  N   LIG    1       -3.660  -0.628   0.015  0.00  0.00    -0.210 NA
ATOM      8  C   LIG    1       -4.643   0.215   0.024  0.00  0.00    -0.010 A 
ATOM      9  S   LIG    1       -3.956   1.840   0.031  0.00  0.00    +0.120 S 
BRANCH   8  10
ATOM     10  C   LIG    1       -6.110  -0.129   0.029  0.00  0.00    +0.280 C 
ATOM     11  C   LIG    1       -6.526  -0.628   1.429  0.00  0.00    +0.030 C 
ATOM     12  C   LIG    1       -7.508  -1.784   1.087  0.00  0.00    +0.020 C 
ATOM     13  C   LIG    1       -6.870  -2.340  -0.210  0.00  0.00    +0.210 C 
ATOM     14  O   LIG    1       -6.363  -1.188  -0.903  0.00  0.00    -0.360 OA
ENDBRANCH   8  10
ENDBRANCH   3   5
BRANCH   2  15
ATOM     15  C   LIG    1        1.280   1.980   0.001  0.00  0.00    +0.120 C 
BRANCH  15  16
ATOM     16  C   LIG    1        2.457   1.002  -0.016  0.00  0.00    +0.190 C 
ATOM     17  C   LIG    1        3.803   1.762   0.038  0.00  0.00    +0.100 C 
ATOM     18  C   LIG    1        4.680   0.911  -0.860  0.00  0.00    -0.180 A 
ATOM     19  C   LIG    1        6.044   0.855  -1.035  0.00  0.00    +0.120 A 
ATOM     20  C   LIG    1        6.589  -0.042  -1.937  0.00  0.00    -0.220 A 
ATOM     21  C   LIG    1        5.759  -0.879  -2.660  0.00  0.00    +0.120 A 
ATOM     22  C   LIG    1        4.391  -0.822  -2.488  0.00  0.00    +0.000 A 
ATOM     23  C   LIG    1        3.835   0.080  -1.585  0.00  0.00    +0.140 A 
ATOM     24  O   LIG    1        2.527   0.311  -1.275  0.00  0.00    -0.280 OA
BRANCH  20  25
ATOM     25  C   LIG    1        8.082  -0.106  -2.132  0.00  0.00    +0.510 C 
ATOM     26  F   LIG    1        8.638   1.155  -1.894  0.00  0.00    -0.180 F 
ATOM     27  F   LIG    1        8.365  -0.500  -3.444  0.00  0.00    -0.180 F 
ATOM     28  F   LIG    1        8.630  -1.033  -1.239  0.00  0.00    -0.180 F 
ENDBRANCH  20  25
ENDBRANCH  15  16
ENDBRANCH   2  15
TORSDOF 5
