REMARK  Name = ZINCrD00000F5Lxo.0
REMARK                            x       y       z     vdW  Elec       q    Type
REMARK                         _______ _______ _______ _____ _____    ______ ____
ROOT
ATOM      1  C   LIG    1        1.142   2.149   0.003  0.00  0.00    +0.130 C 
ATOM      2  C   LIG    1       -0.018   1.458   0.010  0.00  0.00    -0.080 C 
ENDROOT
BRANCH   1   5
ATOM      3  C   LIG    1        2.298   5.718   0.010  0.00  0.00    +0.120 A 
ATOM      4  C   LIG    1        2.324   4.337   0.003  0.00  0.00    +0.000 A 
ATOM      5  C   LIG    1        1.122   3.619   0.011  0.00  0.00    -0.060 A 
ATOM      6  C   LIG    1       -0.098   4.304   0.020  0.00  0.00    +0.040 A 
ATOM      7  C   LIG    1       -0.114   5.682   0.033  0.00  0.00    -0.020 A 
ATOM      8  C   LIG    1        1.078   6.393   0.026  0.00  0.00    +0.090 A 
BRANCH   3  10
ATOM      9  C   LIG    1        4.676   5.662  -0.012  0.00  0.00    +0.250 C 
ATOM     10  O   LIG    1        3.464   6.419   0.003  0.00  0.00    -0.310 OA
ENDBRANCH   3  10
BRANCH   8  11
ATOM     11  O   LIG    1        1.056   7.751   0.034  0.00  0.00    -0.310 OA
BRANCH  11  12
ATOM     12  C   LIG    1       -0.227   8.379   0.049  0.00  0.00    +0.600 C 
ATOM     13  F   LIG    1       -0.925   7.985   1.196  0.00  0.00    -0.200 F 
ATOM     14  F   LIG    1       -0.947   7.998  -1.089  0.00  0.00    -0.200 F 
ENDBRANCH  11  12
ENDBRANCH   8  11
ENDBRANCH   1   5
BRANCH   2  15
ATOM     15  C   LIG    1        0.002  -0.004   0.002  0.00  0.00    +0.550 C 
ATOM     16  N   LIG    1       -1.156  -0.694   0.009  0.00  0.00    -0.720 N 
ATOM     17  H   LIG    1       -2.002  -0.220   0.020  0.00  0.00    +0.400 HD
ATOM     18  O   LIG    1        1.064  -0.598  -0.011  0.00  0.00    -0.540 OA
BRANCH  16  19
ATOM     19  C   LIG    1       -1.136  -2.159   0.001  0.00  0.00    +0.330 C 
BRANCH  19  20
ATOM     20  C   LIG    1       -2.550  -2.680   0.012  0.00  0.00    -0.100 A 
ATOM     21  C   LIG    1       -3.183  -2.931   1.215  0.00  0.00    +0.050 A 
ATOM     22  C   LIG    1       -4.482  -3.404   1.230  0.00  0.00    +0.040 A 
ATOM     23  C   LIG    1       -5.148  -3.639   0.038  0.00  0.00    +0.040 A 
ATOM     24  O   LIG    1       -6.406  -4.102  -0.220  0.00  0.00    -0.310 OA
ATOM     25  C   LIG    1       -6.387  -4.522  -1.597  0.00  0.00    +0.430 C 
ATOM     26  O   LIG    1       -5.365  -3.700  -2.191  0.00  0.00    -0.310 OA
ATOM     27  C   LIG    1       -4.508  -3.392  -1.174  0.00  0.00    +0.030 A 
ATOM     28  C   LIG    1       -3.208  -2.913  -1.181  0.00  0.00    +0.060 A 
ENDBRANCH  19  20
ENDBRANCH  16  19
ENDBRANCH   2  15
TORSDOF 7
