REMARK  Name = ZINCrD0000072tnR.0
REMARK                            x       y       z     vdW  Elec       q    Type
REMARK                         _______ _______ _______ _____ _____    ______ ____
ROOT
ATOM      1  C   LIG    1       -0.060   1.687  -0.003  0.00  0.00    +0.270 C 
ATOM      2  N   LIG    1       -0.708   1.494   1.296  0.00  0.00    -0.610 N 
ATOM      3  C   LIG    1       -2.004   1.129   1.356  0.00  0.00    +0.720 C 
ATOM      4  N   LIG    1       -2.704   0.942   0.220  0.00  0.00    -0.710 N 
ATOM      5  H   LIG    1       -2.276   1.069  -0.641  0.00  0.00    +0.400 HD
ATOM      6  O   LIG    1       -2.542   0.969   2.435  0.00  0.00    -0.580 OA
ENDROOT
BRANCH   2   7
ATOM      7  C   LIG    1        0.053   1.698   2.531  0.00  0.00    +0.290 C 
ATOM      8  C   LIG    1       -0.012   3.174   2.931  0.00  0.00    +0.040 C 
ATOM      9  C   LIG    1        0.836   3.982   1.942  0.00  0.00    +0.030 C 
ATOM     10  C   LIG    1        2.306   3.610   2.140  0.00  0.00    +0.260 C 
ATOM     11  N   LIG    1        2.473   2.162   2.116  0.00  0.00    -0.560 N 
ATOM     12  C   LIG    1        1.482   1.294   2.309  0.00  0.00    +0.510 C 
ATOM     13  O   LIG    1        1.750   0.111   2.306  0.00  0.00    -0.520 OA
BRANCH  11  14
ATOM     14  C   LIG    1        3.754   1.653   1.873  0.00  0.00    +0.130 A 
ATOM     15  C   LIG    1        4.763   1.836   2.810  0.00  0.00    +0.000 A 
ATOM     16  C   LIG    1        6.026   1.329   2.570  0.00  0.00    +0.020 A 
ATOM     17  C   LIG    1        6.287   0.649   1.394  0.00  0.00    +0.010 A 
ATOM     18  C   LIG    1        5.285   0.470   0.458  0.00  0.00    +0.020 A 
ATOM     19  C   LIG    1        4.020   0.971   0.694  0.00  0.00    +0.020 A 
ENDBRANCH  11  14
ENDBRANCH   2   7
BRANCH   4  20
ATOM     20  C   LIG    1       -4.113   0.545   0.284  0.00  0.00    +0.270 C 
ATOM     21  C   LIG    1       -4.583  -0.552  -0.674  0.00  0.00    +0.020 C 
ATOM     22  C   LIG    1       -5.003   0.900  -0.908  0.00  0.00    -0.010 C 
BRANCH  22  23
ATOM     23  C   LIG    1       -4.363   1.632  -2.060  0.00  0.00    -0.050 A 
ATOM     24  C   LIG    1       -3.306   1.059  -2.742  0.00  0.00    -0.020 A 
ATOM     25  C   LIG    1       -2.722   1.728  -3.801  0.00  0.00    +0.010 A 
ATOM     26  C   LIG    1       -3.189   2.975  -4.172  0.00  0.00    +0.000 A 
ATOM     27  C   LIG    1       -4.242   3.551  -3.487  0.00  0.00    +0.010 A 
ATOM     28  C   LIG    1       -4.829   2.880  -2.430  0.00  0.00    +0.010 A 
ENDBRANCH  22  23
ENDBRANCH   4  20
TORSDOF 4
