REMARK  Name = ZINCqH0000008pfH.0
REMARK                            x       y       z     vdW  Elec       q    Type
REMARK                         _______ _______ _______ _____ _____    ______ ____
ROOT
ATOM      1  N   LIG    1        2.653   6.701  -2.503  0.00  0.00    -0.720 N 
ATOM      2  H   LIG    1        3.465   6.814  -1.983  0.00  0.00    +0.400 HD
ATOM      3  C   LIG    1        1.504   6.353  -1.891  0.00  0.00    +0.500 C 
ATOM      4  O   LIG    1        0.490   6.210  -2.540  0.00  0.00    -0.510 OA
ENDROOT
BRANCH   3   5
ATOM      5  C   LIG    1        1.479   6.140  -0.399  0.00  0.00    +0.210 C 
ATOM      6  C   LIG    1        2.251   4.856  -0.011  0.00  0.00    +0.110 C 
ATOM      7  C   LIG    1        1.144   3.820   0.012  0.00  0.00    -0.170 A 
ATOM      8  C   LIG    1        1.167   2.443   0.004  0.00  0.00    +0.080 A 
ATOM      9  C   LIG    1       -0.021   1.732   0.012  0.00  0.00    -0.060 A 
ATOM     10  C   LIG    1       -1.227   2.410   0.021  0.00  0.00    +0.070 A 
ATOM     11  C   LIG    1       -1.251   3.789   0.038  0.00  0.00    +0.020 A 
ATOM     12 CL   LIG    1        0.002  -0.004   0.002  0.00  0.00    -0.060 Cl
ATOM     13  C   LIG    1       -0.060   4.511   0.034  0.00  0.00    +0.120 A 
ATOM     14  O   LIG    1        0.144   5.857   0.053  0.00  0.00    -0.270 OA
ENDBRANCH   3   5
BRANCH   1  16
ATOM     15  C   LIG    1        2.881   5.564  -4.656  0.00  0.00    +0.040 C 
ATOM     16  C   LIG    1        2.678   6.907  -3.953  0.00  0.00    +0.290 C 
BRANCH  16  17
ATOM     17  C   LIG    1        3.808   7.837  -4.309  0.00  0.00    -0.100 A 
ATOM     18  C   LIG    1        5.024   7.726  -3.659  0.00  0.00    +0.040 A 
ATOM     19  C   LIG    1        6.064   8.574  -3.987  0.00  0.00    +0.000 A 
ATOM     20  C   LIG    1        5.885   9.546  -4.962  0.00  0.00    +0.140 A 
ATOM     21  C   LIG    1        4.662   9.658  -5.609  0.00  0.00    +0.010 A 
ATOM     22  C   LIG    1        3.627   8.804  -5.281  0.00  0.00    +0.060 A 
BRANCH  20  23
ATOM     23  N   LIG    1        6.937  10.412  -5.293  0.00  0.00    -0.410 N 
ATOM     24  C   LIG    1        8.190  10.421  -4.737  0.00  0.00    +0.120 A 
ATOM     25  C   LIG    1        8.879  11.405  -5.346  0.00  0.00    +0.160 A 
ATOM     26  N   LIG    1        8.071  11.989  -6.243  0.00  0.00    -0.480 NA
ATOM     27  C   LIG    1        6.905  11.403  -6.221  0.00  0.00    +0.400 A 
ENDBRANCH  20  23
ENDBRANCH  16  17
ENDBRANCH   1  16
TORSDOF 4
