REMARK  Name = ZINCnE00000dSTOF.0
REMARK                            x       y       z     vdW  Elec       q    Type
REMARK                         _______ _______ _______ _____ _____    ______ ____
ROOT
ATOM      1  C   LIG    1       -1.506   4.897   2.238  0.00  0.00    +0.530 C 
ATOM      2  N   LIG    1       -1.870   5.658   3.289  0.00  0.00    -0.720 N 
ATOM      3  H   LIG    1       -2.714   6.137   3.272  0.00  0.00    +0.390 HD
ATOM      4  O   LIG    1       -0.414   4.369   2.221  0.00  0.00    -0.510 OA
ENDROOT
BRANCH   1   7
ATOM      5  C   LIG    1       -1.983   3.828  -0.080  0.00  0.00    +0.040 C 
ATOM      6  C   LIG    1       -2.082   5.344  -0.254  0.00  0.00    +0.060 C 
ATOM      7  C   LIG    1       -2.455   4.702   1.083  0.00  0.00    -0.060 C 
BRANCH   5  14
ATOM      8  C   LIG    1       -1.651   0.958  -0.133  0.00  0.00    +0.080 C 
ATOM      9  C   LIG    1       -0.445   1.853  -0.009  0.00  0.00    -0.080 A 
ATOM     10  C   LIG    1        0.819   1.302   0.084  0.00  0.00    -0.020 A 
ATOM     11  C   LIG    1        1.925   2.124   0.193  0.00  0.00    -0.010 A 
ATOM     12  C   LIG    1        1.766   3.497   0.214  0.00  0.00    -0.020 A 
ATOM     13  C   LIG    1        0.502   4.048   0.126  0.00  0.00    +0.060 A 
ATOM     14  C   LIG    1       -0.604   3.227   0.017  0.00  0.00    -0.050 A 
ENDBRANCH   5  14
ENDBRANCH   1   7
BRANCH   2  15
ATOM     15  C   LIG    1       -0.993   5.763   4.457  0.00  0.00    +0.350 C 
BRANCH  15  16
ATOM     16  C   LIG    1       -1.330   7.012   5.229  0.00  0.00    -0.150 A 
ATOM     17  C   LIG    1       -0.441   7.829   5.796  0.00  0.00    +0.050 A 
ATOM     18  C   LIG    1       -0.986   8.918   6.454  0.00  0.00    +0.010 A 
ATOM     19  C   LIG    1       -2.318   8.986   6.420  0.00  0.00    -0.060 A 
ATOM     20  S   LIG    1       -2.955   7.621   5.512  0.00  0.00    +0.050 S 
ENDBRANCH  15  16
BRANCH  15  21
ATOM     21  C   LIG    1       -1.191   4.540   5.354  0.00  0.00    -0.060 C 
BRANCH  21  22
ATOM     22  C   LIG    1       -0.178   4.566   6.470  0.00  0.00    +0.500 C 
ATOM     23  O   LIG    1       -0.238   3.743   7.368  0.00  0.00    -0.700 OA
ATOM     24  O   LIG    1        0.702   5.410   6.475  0.00  0.00    -0.690 OA
ENDBRANCH  21  22
ENDBRANCH  15  21
ENDBRANCH   2  15
TORSDOF 6
