REMARK  Name = ZINCqH0000007LgT.0
REMARK                            x       y       z     vdW  Elec       q    Type
REMARK                         _______ _______ _______ _____ _____    ______ ____
ROOT
ATOM      1  N   LIG    1        2.917   0.869  -1.402  0.00  0.00    -0.730 N 
ATOM      2  H   LIG    1        2.354   1.169  -2.132  0.00  0.00    +0.400 HD
ENDROOT
BRANCH   1   8
ATOM      3  C   LIG    1        6.200  -0.886  -4.547  0.00  0.00    +0.150 A 
ATOM      4  C   LIG    1        5.421  -0.469  -5.588  0.00  0.00    -0.070 A 
ATOM      5  C   LIG    1        4.209   0.178  -5.362  0.00  0.00    +0.040 A 
ATOM      6  C   LIG    1        3.768   0.413  -4.094  0.00  0.00    -0.010 A 
ATOM      7  C   LIG    1        4.540  -0.005  -3.000  0.00  0.00    -0.120 A 
ATOM      8  C   LIG    1        4.117   0.227  -1.670  0.00  0.00    +0.260 A 
ATOM      9  C   LIG    1        4.938  -0.211  -0.643  0.00  0.00    -0.130 A 
ATOM     10  C   LIG    1        6.134  -0.850  -0.944  0.00  0.00    +0.190 A 
ATOM     11  N   LIG    1        6.517  -1.055  -2.182  0.00  0.00    -0.500 NA
ATOM     12  C   LIG    1        7.016  -1.321   0.183  0.00  0.00    +0.120 C 
ATOM     13  C   LIG    1        5.774  -0.659  -3.222  0.00  0.00    +0.150 A 
BRANCH   3  15
ATOM     14  C   LIG    1        7.745  -1.711  -6.154  0.00  0.00    +0.240 C 
ATOM     15  O   LIG    1        7.380  -1.516  -4.787  0.00  0.00    -0.290 OA
ENDBRANCH   3  15
ENDBRANCH   1   8
BRANCH   1  16
ATOM     16  C   LIG    1        2.499   1.092  -0.015  0.00  0.00    +0.330 C 
BRANCH  16  17
ATOM     17  C   LIG    1        1.170   1.802   0.001  0.00  0.00    -0.180 A 
ATOM     18  C   LIG    1       -0.013   1.076   0.008  0.00  0.00    +0.130 A 
ATOM     19  C   LIG    1       -1.212   1.768   0.017  0.00  0.00    -0.030 A 
ATOM     20  C   LIG    1       -1.191   3.156   0.031  0.00  0.00    +0.360 A 
ATOM     21  N   LIG    1       -0.042   3.813   0.024  0.00  0.00    -0.500 NA
ATOM     22  C   LIG    1        1.116   3.182   0.009  0.00  0.00    +0.330 A 
BRANCH  20  23
ATOM     23  N   LIG    1       -2.395   3.867   0.047  0.00  0.00    -0.420 N 
ATOM     24  C   LIG    1       -2.539   5.229  -0.035  0.00  0.00    +0.150 A 
ATOM     25  C   LIG    1       -3.860   5.484   0.015  0.00  0.00    +0.150 A 
ATOM     26  N   LIG    1       -4.509   4.316   0.131  0.00  0.00    -0.470 NA
ATOM     27  C   LIG    1       -3.643   3.340   0.152  0.00  0.00    +0.400 A 
ENDBRANCH  20  23
ENDBRANCH  16  17
ENDBRANCH   1  16
TORSDOF 5
