REMARK  Name = ZINCpe00000MJIyx.0
REMARK                            x       y       z     vdW  Elec       q    Type
REMARK                         _______ _______ _______ _____ _____    ______ ____
ROOT
ATOM      1  N   LIG    1       -0.721   1.571  -1.179  0.00  0.00    -0.730 N 
ATOM      2  H   LIG    1       -1.516   2.118  -1.079  0.00  0.00    +0.400 HD
ATOM      3  C   LIG    1       -0.268   1.258  -2.409  0.00  0.00    +0.520 C 
ATOM      4  O   LIG    1        0.726   0.575  -2.534  0.00  0.00    -0.510 OA
ENDROOT
BRANCH   1   5
ATOM      5  C   LIG    1       -0.013   1.086   0.008  0.00  0.00    +0.250 C 
BRANCH   5   6
ATOM      6  C   LIG    1       -0.729   1.579   1.267  0.00  0.00    +0.100 C 
BRANCH   6   7
ATOM      7  C   LIG    1        0.011   1.072   2.506  0.00  0.00    +0.030 C 
ATOM      8  N   LIG    1        1.454   0.835   2.413  0.00  0.00    -0.110 NA
ATOM      9  N   LIG    1        0.751  -0.189   2.414  0.00  0.00    -0.120 NA
BRANCH   7  10
ATOM     10  C   LIG    1       -0.578   1.479   3.859  0.00  0.00    +0.120 C 
BRANCH  10  11
ATOM     11  C   LIG    1        0.277   0.893   4.984  0.00  0.00    +0.160 C 
BRANCH  11  13
ATOM     12  C   LIG    1       -0.742   1.596   7.323  0.00  0.00    +0.030 C 
ATOM     13  C   LIG    1       -0.290   1.284   6.285  0.00  0.00    -0.190 C 
ENDBRANCH  11  13
ENDBRANCH  10  11
ENDBRANCH   7  10
ENDBRANCH   6   7
ENDBRANCH   5   6
ENDBRANCH   1   5
BRANCH   3  14
ATOM     14  C   LIG    1       -0.997   1.758  -3.630  0.00  0.00    +0.230 C 
BRANCH  14  15
ATOM     15  N   LIG    1       -0.633   0.932  -4.789  0.00  0.00    -0.510 NA
ATOM     16  C   LIG    1       -1.259   1.443  -6.017  0.00  0.00    +0.150 C 
ATOM     17  C   LIG    1       -0.807   0.591  -7.207  0.00  0.00    +0.220 C 
ATOM     18  O   LIG    1       -1.139  -0.778  -6.959  0.00  0.00    -0.390 OA
ATOM     19  C   LIG    1       -0.545  -1.308  -5.771  0.00  0.00    +0.230 C 
ATOM     20  C   LIG    1       -0.995  -0.476  -4.567  0.00  0.00    +0.150 C 
ENDBRANCH  14  15
BRANCH  14  21
ATOM     21  C   LIG    1       -0.612   3.191  -3.894  0.00  0.00    -0.240 A 
ATOM     22  C   LIG    1       -1.338   4.284  -3.562  0.00  0.00    +0.240 A 
ATOM     23  N   LIG    1       -0.651   5.372  -3.969  0.00  0.00    -0.370 N 
ATOM     24  N   LIG    1        0.535   4.933  -4.570  0.00  0.00    -0.290 NA
ATOM     25  C   LIG    1       -1.073   6.766  -3.809  0.00  0.00    +0.360 C 
ATOM     26  C   LIG    1        0.560   3.626  -4.519  0.00  0.00    +0.270 A 
ENDBRANCH  14  21
ENDBRANCH   3  14
TORSDOF 9
