REMARK  Name = ZINCpe000000WMpo.0
REMARK                            x       y       z     vdW  Elec       q    Type
REMARK                         _______ _______ _______ _____ _____    ______ ____
ROOT
ATOM      1  C   LIG    1       -0.610  -0.562  -1.336  0.00  0.00    +0.510 C 
ATOM      2  N   LIG    1       -0.840  -1.882  -1.479  0.00  0.00    -0.610 N 
ATOM      3  C   LIG    1       -0.346  -2.840  -0.479  0.00  0.00    +0.280 C 
ATOM      4  C   LIG    1       -1.537  -3.670   0.027  0.00  0.00    +0.290 C 
ATOM      5  N   LIG    1       -2.281  -4.179  -1.134  0.00  0.00    -0.610 N 
ATOM      6  C   LIG    1       -2.770  -3.222  -2.137  0.00  0.00    +0.290 C 
ATOM      7  C   LIG    1       -2.511  -5.499  -1.277  0.00  0.00    +0.610 C 
ATOM      8  O   LIG    1       -3.201  -5.901  -2.195  0.00  0.00    -0.520 OA
ATOM      9  C   LIG    1       -1.583  -2.391  -2.640  0.00  0.00    +0.270 C 
ATOM     10  O   LIG    1        0.089  -0.162  -0.429  0.00  0.00    -0.520 OA
ENDROOT
BRANCH   7  11
ATOM     11  C   LIG    1       -1.929  -6.452  -0.326  0.00  0.00    -0.090 A 
ATOM     12  C   LIG    1       -1.974  -7.813  -0.424  0.00  0.00    +0.050 A 
ATOM     13  C   LIG    1       -1.294  -8.321   0.694  0.00  0.00    -0.060 A 
ATOM     14  C   LIG    1       -0.875  -7.262   1.420  0.00  0.00    +0.200 A 
ATOM     15  O   LIG    1       -1.260  -6.137   0.802  0.00  0.00    -0.160 OA
ENDBRANCH   7  11
BRANCH   1  17
ATOM     16  C   LIG    1       -0.486   0.337  -3.644  0.00  0.00    +0.060 C 
ATOM     17  C   LIG    1       -1.221   0.418  -2.304  0.00  0.00    +0.260 C 
BRANCH  17  18
ATOM     18  N   LIG    1       -1.103   1.775  -1.765  0.00  0.00    -0.590 N 
ATOM     19  C   LIG    1        0.218   2.336  -1.472  0.00  0.00    +0.290 C 
BRANCH  18  20
ATOM     20  C   LIG    1       -2.255   2.534  -1.523  0.00  0.00    +0.340 A 
ATOM     21  N   LIG    1       -2.284   3.784  -1.126  0.00  0.00    -0.340 NA
ATOM     22  N   LIG    1       -3.625   4.173  -1.004  0.00  0.00    -0.380 N 
ATOM     23  C   LIG    1       -4.398   3.116  -1.332  0.00  0.00    +0.250 A 
ATOM     24  C   LIG    1       -4.104   5.493  -0.588  0.00  0.00    +0.360 C 
ATOM     25  C   LIG    1       -3.580   2.089  -1.657  0.00  0.00    -0.170 A 
ENDBRANCH  18  20
ENDBRANCH  17  18
ENDBRANCH   1  17
TORSDOF 4
