REMARK  Name = ZINCpe00000MJIju.0
REMARK                            x       y       z     vdW  Elec       q    Type
REMARK                         _______ _______ _______ _____ _____    ______ ____
ROOT
ATOM      1  C   LIG    1       -1.307   2.169   0.098  0.00  0.00    +0.130 C 
ATOM      2  C   LIG    1       -0.009   1.404   0.047  0.00  0.00    -0.190 A 
ATOM      3  C   LIG    1        1.202   2.067   0.034  0.00  0.00    +0.350 A 
ATOM      4  N   LIG    1        2.325   1.365  -0.017  0.00  0.00    -0.550 NA
ATOM      5  C   LIG    1        2.299   0.042  -0.055  0.00  0.00    +0.500 A 
ATOM      6  N   LIG    1        1.159  -0.632  -0.044  0.00  0.00    -0.550 NA
ATOM      7  C   LIG    1       -0.005   0.007   0.006  0.00  0.00    +0.360 A 
ENDROOT
BRANCH   5   8
ATOM      8  N   LIG    1        3.494  -0.655  -0.107  0.00  0.00    -0.450 N 
ATOM      9  C   LIG    1        3.595  -1.612   1.003  0.00  0.00    +0.180 C 
ATOM     10  C   LIG    1        4.890  -2.416   0.865  0.00  0.00    +0.250 C 
ATOM     11  N   LIG    1        6.036  -1.496   0.861  0.00  0.00    -0.680 NA
ATOM     12  H   LIG    1        6.118  -1.016   1.745  0.00  0.00    +0.350 HD
ATOM     13  C   LIG    1        5.936  -0.539  -0.250  0.00  0.00    +0.160 C 
ATOM     14  C   LIG    1        4.640   0.265  -0.111  0.00  0.00    +0.200 C 
BRANCH  13  15
ATOM     15  C   LIG    1        7.133   0.413  -0.213  0.00  0.00    +0.400 C 
ATOM     16  F   LIG    1        7.141   1.106   1.002  0.00  0.00    -0.200 F 
ATOM     17  F   LIG    1        7.035   1.326  -1.269  0.00  0.00    -0.200 F 
ENDBRANCH  13  15
ENDBRANCH   5   8
BRANCH   7  18
ATOM     18  N   LIG    1       -1.196  -0.700   0.017  0.00  0.00    -0.470 N 
ATOM     19  C   LIG    1       -1.066  -1.937   0.799  0.00  0.00    +0.170 C 
ATOM     20  C   LIG    1       -2.421  -2.648   0.853  0.00  0.00    +0.250 C 
ATOM     21  N   LIG    1       -2.874  -2.938  -0.515  0.00  0.00    -0.670 NA
ATOM     22  H   LIG    1       -2.253  -3.590  -0.970  0.00  0.00    +0.340 HD
ATOM     23  C   LIG    1       -3.003  -1.700  -1.297  0.00  0.00    +0.160 C 
ATOM     24  C   LIG    1       -1.649  -0.990  -1.351  0.00  0.00    +0.180 C 
BRANCH  23  25
ATOM     25  C   LIG    1       -3.458  -2.040  -2.718  0.00  0.00    +0.380 C 
ATOM     26  F   LIG    1       -3.472  -0.876  -3.494  0.00  0.00    -0.200 F 
ATOM     27  F   LIG    1       -4.745  -2.588  -2.677  0.00  0.00    -0.190 F 
ENDBRANCH  23  25
ENDBRANCH   7  18
TORSDOF 4
