REMARK  Name = ZINCkj000005j2JE.0
REMARK                            x       y       z     vdW  Elec       q    Type
REMARK                         _______ _______ _______ _____ _____    ______ ____
ROOT
ATOM      1  C   LIG    1        2.072   5.920   1.450  0.00  0.00    +0.040 C 
ATOM      2  C   LIG    1        2.208   5.423   0.009  0.00  0.00    +0.270 C 
ENDROOT
BRANCH   2   3
ATOM      3  N   LIG    1        2.275   3.960   0.001  0.00  0.00    -0.720 N 
ATOM      4  H   LIG    1        3.137   3.514  -0.009  0.00  0.00    +0.410 HD
BRANCH   3   5
ATOM      5  C   LIG    1        1.110   3.213   0.008  0.00  0.00    +0.440 A 
ATOM      6  N   LIG    1       -0.064   3.825   0.022  0.00  0.00    -0.540 NA
ATOM      7  C   LIG    1       -1.198   3.151   0.029  0.00  0.00    +0.350 A 
ATOM      8  C   LIG    1       -1.211   1.769   0.017  0.00  0.00    -0.070 A 
ATOM      9  C   LIG    1       -0.013   1.076   0.008  0.00  0.00    +0.170 A 
ATOM     10  C   LIG    1        1.179   1.809   0.001  0.00  0.00    -0.150 A 
BRANCH  10  11
ATOM     11  C   LIG    1        2.446   1.141  -0.014  0.00  0.00    +0.250 C 
ATOM     12  N   LIG    1        3.451   0.612  -0.026  0.00  0.00    -0.410 NA
ENDBRANCH  10  11
ENDBRANCH   3   5
ENDBRANCH   2   3
BRANCH   2  13
ATOM     13  C   LIG    1        3.485   5.996  -0.610  0.00  0.00    +0.040 C 
BRANCH  13  14
ATOM     14  C   LIG    1        3.557   5.602  -2.086  0.00  0.00    +0.260 C 
BRANCH  14  15
ATOM     15  N   LIG    1        4.783   6.152  -2.680  0.00  0.00    -0.390 N 
ATOM     16  C   LIG    1        4.715   7.620  -2.671  0.00  0.00    +0.270 C 
ATOM     17  C   LIG    1        6.000   8.193  -3.273  0.00  0.00    +0.200 C 
ATOM     18  N   LIG    1        6.155   7.701  -4.649  0.00  0.00    -0.540 NA
ATOM     19  C   LIG    1        6.199   6.232  -4.676  0.00  0.00    +0.200 C 
ATOM     20  C   LIG    1        7.350   8.276  -5.282  0.00  0.00    +0.220 C 
ATOM     21  C   LIG    1        4.913   5.675  -4.063  0.00  0.00    +0.270 C 
ATOM     22  H   LIG    1        5.582   5.849  -2.143  0.00  0.00    +0.420 HD
ENDBRANCH  14  15
ENDBRANCH  13  14
ENDBRANCH   2  13
TORSDOF 6
