REMARK  Name = ZINCkj000005j2JE.1
REMARK                            x       y       z     vdW  Elec       q    Type
REMARK                         _______ _______ _______ _____ _____    ______ ____
ROOT
ATOM      1  C   LIG    1       -2.056   5.942   1.489  0.00  0.00    +0.030 C 
ATOM      2  C   LIG    1       -1.556   5.836   0.046  0.00  0.00    +0.250 C 
ENDROOT
BRANCH   2   3
ATOM      3  N   LIG    1       -0.243   5.187   0.031  0.00  0.00    -0.710 N 
ATOM      4  H   LIG    1        0.564   5.725   0.026  0.00  0.00    +0.410 HD
BRANCH   3   5
ATOM      5  C   LIG    1       -0.154   3.806   0.023  0.00  0.00    +0.450 A 
ATOM      6  N   LIG    1       -1.257   3.075   0.029  0.00  0.00    -0.540 NA
ATOM      7  C   LIG    1       -1.216   1.756   0.017  0.00  0.00    +0.350 A 
ATOM      8  C   LIG    1       -0.013   1.076   0.008  0.00  0.00    -0.080 A 
ATOM      9  C   LIG    1        1.174   1.789   0.001  0.00  0.00    +0.160 A 
ATOM     10  C   LIG    1        1.109   3.187   0.008  0.00  0.00    -0.160 A 
BRANCH  10  11
ATOM     11  C   LIG    1        2.306   3.973   0.001  0.00  0.00    +0.250 C 
ATOM     12  N   LIG    1        3.256   4.596  -0.004  0.00  0.00    -0.420 NA
ENDBRANCH  10  11
ENDBRANCH   3   5
ENDBRANCH   2   3
BRANCH   2  13
ATOM     13  C   LIG    1       -1.440   7.237  -0.557  0.00  0.00    +0.030 C 
BRANCH  13  14
ATOM     14  C   LIG    1       -1.061   7.125  -2.035  0.00  0.00    +0.200 C 
BRANCH  14  15
ATOM     15  N   LIG    1       -0.950   8.471  -2.615  0.00  0.00    -0.540 NA
ATOM     16  C   LIG    1       -2.257   9.142  -2.644  0.00  0.00    +0.210 C 
ATOM     17  C   LIG    1       -2.088  10.558  -3.198  0.00  0.00    +0.280 C 
ATOM     18  N   LIG    1       -1.523  10.490  -4.553  0.00  0.00    -0.390 N 
ATOM     19  C   LIG    1       -0.207   9.840  -4.503  0.00  0.00    +0.280 C 
ATOM     20  C   LIG    1       -1.377  11.849  -5.091  0.00  0.00    +0.310 C 
ATOM     21  H   LIG    1       -2.139   9.957  -5.148  0.00  0.00    +0.420 HD
ATOM     22  C   LIG    1       -0.360   8.417  -3.960  0.00  0.00    +0.200 C 
ENDBRANCH  14  15
ENDBRANCH  13  14
ENDBRANCH   2  13
TORSDOF 6
