REMARK  Name = ZINCrH00000No4YB.0
REMARK                            x       y       z     vdW  Elec       q    Type
REMARK                         _______ _______ _______ _____ _____    ______ ____
ROOT
ATOM      1  C   LIG    1       -0.713  -2.219   0.861  0.00  0.00    -0.110 A 
ATOM      2  C   LIG    1        0.129  -2.879  -0.033  0.00  0.00    +0.060 A 
ATOM      3  C   LIG    1       -0.031  -4.239  -0.253  0.00  0.00    +0.140 A 
ATOM      4  C   LIG    1       -1.028  -4.938   0.415  0.00  0.00    +0.110 A 
ATOM      5  C   LIG    1       -1.863  -4.283   1.301  0.00  0.00    -0.160 A 
ATOM      6  C   LIG    1       -1.709  -2.932   1.532  0.00  0.00    +0.130 A 
ENDROOT
BRANCH   1  14
ATOM      7  C   LIG    1        3.235   0.884   1.685  0.00  0.00    +0.130 C 
ATOM      8  C   LIG    1        2.933  -0.609   1.825  0.00  0.00    +0.040 C 
ATOM      9  C   LIG    1        1.876  -1.023   0.797  0.00  0.00    +0.280 C 
ATOM     10  N   LIG    1        0.670  -0.204   1.004  0.00  0.00    -0.580 N 
ATOM     11  C   LIG    1        0.844   1.253   1.101  0.00  0.00    +0.090 C 
ATOM     12  C   LIG    1       -0.405   2.127   1.028  0.00  0.00    +0.070 C 
ATOM     13  C   LIG    1        0.573   2.087  -0.149  0.00  0.00    +0.020 C 
ATOM     14  C   LIG    1       -0.549  -0.769   1.102  0.00  0.00    +0.570 C 
ATOM     15  O   LIG    1       -1.514  -0.087   1.387  0.00  0.00    -0.510 OA
ATOM     16  C   LIG    1        1.980   1.695   2.028  0.00  0.00    +0.090 C 
BRANCH   7  18
ATOM     17  N   LIG    1        5.163   1.537   3.315  0.00  0.00    -0.420 NA
ATOM     18  C   LIG    1        4.323   1.252   2.605  0.00  0.00    +0.200 C 
ENDBRANCH   7  18
ENDBRANCH   1  14
BRANCH   5  19
ATOM     19  C   LIG    1       -2.942  -5.050   2.022  0.00  0.00    +0.510 C 
ATOM     20  F   LIG    1       -4.192  -4.510   1.700  0.00  0.00    -0.170 F 
ATOM     21  F   LIG    1       -2.737  -4.957   3.403  0.00  0.00    -0.170 F 
ATOM     22  F   LIG    1       -2.900  -6.393   1.633  0.00  0.00    -0.170 F 
ENDBRANCH   5  19
BRANCH   3  23
ATOM     23  N   LIG    1        0.812  -4.906  -1.149  0.00  0.00    -0.670 N 
ATOM     24  H   LIG    1        1.149  -4.446  -1.933  0.00  0.00    +0.420 HD
ATOM     25  C   LIG    1        1.157  -6.189  -0.921  0.00  0.00    +0.500 C 
ATOM     26  O   LIG    1        0.817  -6.735   0.107  0.00  0.00    -0.490 OA
BRANCH  25  27
ATOM     27  C   LIG    1        1.965  -6.945  -1.944  0.00  0.00    +0.190 C 
ATOM     28 CL   LIG    1        2.262  -8.623  -1.355  0.00  0.00    -0.120 Cl
ENDBRANCH  25  27
ENDBRANCH   3  23
TORSDOF 5
