REMARK  Name = ZINCrg000000sBbz.0
REMARK                            x       y       z     vdW  Elec       q    Type
REMARK                         _______ _______ _______ _____ _____    ______ ____
ROOT
ATOM      1  N   LIG    1       -0.448   0.083   0.298  0.00  0.00    -0.520 NA
ATOM      2  C   LIG    1        0.136  -0.031  -1.044  0.00  0.00    +0.180 C 
ATOM      3  C   LIG    1        1.524   0.613  -1.056  0.00  0.00    +0.040 C 
ATOM      4  C   LIG    1        1.401   2.086  -0.656  0.00  0.00    +0.030 C 
ATOM      5  C   LIG    1        0.746   2.179   0.725  0.00  0.00    +0.060 C 
ATOM      6  C   LIG    1       -0.619   1.490   0.684  0.00  0.00    +0.270 C 
ENDROOT
BRANCH   6   7
ATOM      7  C   LIG    1       -1.259   1.562   2.047  0.00  0.00    +0.160 A 
ATOM      8  N   LIG    1       -0.933   0.853   3.090  0.00  0.00    -0.260 NA
ATOM      9  N   LIG    1       -1.688   1.178   4.080  0.00  0.00    -0.260 NA
ATOM     10  C   LIG    1       -2.521   2.105   3.702  0.00  0.00    +0.160 A 
ATOM     11  O   LIG    1       -2.266   2.373   2.411  0.00  0.00    -0.220 OA
BRANCH  10  12
ATOM     12  C   LIG    1       -3.573   2.761   4.559  0.00  0.00    +0.290 C 
ATOM     13  C   LIG    1       -4.734   1.773   4.835  0.00  0.00    +0.040 C 
ATOM     14  C   LIG    1       -5.305   2.351   6.159  0.00  0.00    +0.030 C 
ATOM     15  C   LIG    1       -4.035   2.880   6.859  0.00  0.00    +0.210 C 
ATOM     16  O   LIG    1       -3.036   3.080   5.852  0.00  0.00    -0.360 OA
ENDBRANCH  10  12
ENDBRANCH   6   7
BRANCH   1  17
ATOM     17  C   LIG    1       -1.721  -0.645   0.383  0.00  0.00    +0.260 C 
BRANCH  17  22
ATOM     18  C   LIG    1       -0.938  -5.997  -1.433  0.00  0.00    +0.330 C 
ATOM     19  N   LIG    1       -1.149  -4.620  -0.980  0.00  0.00    -0.560 N 
ATOM     20  C   LIG    1       -1.938  -3.792  -1.695  0.00  0.00    +0.550 A 
ATOM     21  C   LIG    1       -2.140  -2.465  -1.245  0.00  0.00    -0.130 A 
ATOM     22  C   LIG    1       -1.527  -2.054  -0.114  0.00  0.00    +0.210 A 
ATOM     23  N   LIG    1       -0.734  -2.926   0.582  0.00  0.00    -0.520 N 
ATOM     24  C   LIG    1       -0.074  -2.482   1.812  0.00  0.00    +0.340 C 
ATOM     25  O   LIG    1       -2.475  -4.183  -2.715  0.00  0.00    -0.510 OA
ATOM     26  C   LIG    1       -0.555  -4.187   0.147  0.00  0.00    +0.690 A 
ATOM     27  O   LIG    1        0.153  -4.944   0.781  0.00  0.00    -0.530 OA
ENDBRANCH  17  22
ENDBRANCH   1  17
TORSDOF 4
