REMARK  Name = ZINCnE000005sjgP.0
REMARK                            x       y       z     vdW  Elec       q    Type
REMARK                         _______ _______ _______ _____ _____    ______ ____
ROOT
ATOM      1  S   LIG    1       -0.244   5.646   0.036  0.00  0.00    +2.600 S 
ATOM      2  O   LIG    1       -1.630   5.955   0.086  0.00  0.00    -1.030 OA
ATOM      3  O   LIG    1        0.620   6.112  -0.992  0.00  0.00    -1.010 OA
ENDROOT
BRANCH   1   4
ATOM      4  C   LIG    1       -0.126   3.888   0.025  0.00  0.00    -0.560 A 
ATOM      5  C   LIG    1       -1.251   3.132   0.032  0.00  0.00    +0.150 A 
ATOM      6  C   LIG    1       -1.195   1.738   0.017  0.00  0.00    +0.020 A 
ATOM      7  C   LIG    1       -0.013   1.076   0.008  0.00  0.00    +0.110 A 
ATOM      8  C   LIG    1        1.205   1.802   0.000  0.00  0.00    +0.060 A 
ATOM      9  N   LIG    1        2.462   1.390  -0.014  0.00  0.00    -0.600 NA
ATOM     10  S   LIG    1        3.411   2.622  -0.016  0.00  0.00    +0.790 S 
ATOM     11  N   LIG    1        2.366   3.774  -0.000  0.00  0.00    -0.560 NA
ATOM     12  C   LIG    1        1.146   3.262   0.009  0.00  0.00    +0.150 A 
ENDBRANCH   1   4
BRANCH   1  13
ATOM     13  N   LIG    1        0.404   6.171   1.466  0.00  0.00    -1.060 NA
BRANCH  13  21
ATOM     14  C   LIG    1        0.986   7.985   2.960  0.00  0.00    +0.070 A 
ATOM     15  C   LIG    1        1.030   9.341   3.238  0.00  0.00    -0.040 A 
ATOM     16  C   LIG    1        0.528  10.251   2.324  0.00  0.00    -0.100 A 
ATOM     17  C   LIG    1       -0.013   9.811   1.130  0.00  0.00    -0.050 A 
ATOM     18  C   LIG    1       -0.055   8.459   0.843  0.00  0.00    -0.130 A 
ATOM     19  C   LIG    1       -0.558  10.807   0.139  0.00  0.00    +0.090 C 
ATOM     20 CL   LIG    1        0.578  11.950   2.678  0.00  0.00    -0.110 Cl
ATOM     21  C   LIG    1        0.446   7.541   1.754  0.00  0.00    +0.280 A 
BRANCH  14  23
ATOM     22  C   LIG    1        2.011   7.615   5.074  0.00  0.00    +0.200 C 
ATOM     23  O   LIG    1        1.473   7.089   3.860  0.00  0.00    -0.290 OA
ENDBRANCH  14  23
ENDBRANCH  13  21
ENDBRANCH   1  13
TORSDOF 4
