REMARK  Name = ZINCpk000005ocOI.0
REMARK                            x       y       z     vdW  Elec       q    Type
REMARK                         _______ _______ _______ _____ _____    ______ ____
ROOT
ATOM      1  S   LIG    1       -2.732   0.847   0.019  0.00  0.00    +2.700 S 
ATOM      2  O   LIG    1       -2.438  -0.428  -0.534  0.00  0.00    -0.950 OA
ATOM      3  O   LIG    1       -3.720   1.718  -0.516  0.00  0.00    -0.950 OA
ENDROOT
BRANCH   1   7
ATOM      4  C   LIG    1        1.155   3.176   0.008  0.00  0.00    +0.160 A 
ATOM      5  C   LIG    1       -0.057   3.846   0.023  0.00  0.00    -0.050 A 
ATOM      6  C   LIG    1       -1.242   3.133   0.031  0.00  0.00    +0.130 A 
ATOM      7  C   LIG    1       -1.219   1.751   0.017  0.00  0.00    -0.680 A 
ATOM      8  C   LIG    1       -0.013   1.076   0.008  0.00  0.00    +0.070 A 
ATOM      9  C   LIG    1        1.177   1.785   0.000  0.00  0.00    +0.080 A 
BRANCH   4  11
ATOM     10  C   LIG    1        2.221   5.302   0.010  0.00  0.00    +0.250 C 
ATOM     11  O   LIG    1        2.321   3.877   0.001  0.00  0.00    -0.300 OA
ENDBRANCH   4  11
BRANCH   9  12
ATOM     12  O   LIG    1        2.365   1.122  -0.014  0.00  0.00    -0.300 OA
ATOM     13  C   LIG    1        2.312  -0.306  -0.021  0.00  0.00    +0.250 C 
ENDBRANCH   9  12
ENDBRANCH   1   7
BRANCH   1  14
ATOM     14  N   LIG    1       -3.146   0.587   1.601  0.00  0.00    -1.000 NA
ATOM     15  C   LIG    1       -2.689  -0.619   2.305  0.00  0.00    +0.290 C 
ATOM     16  C   LIG    1       -1.981  -0.191   3.599  0.00  0.00    +0.020 C 
ATOM     17  C   LIG    1       -2.921   0.697   4.418  0.00  0.00    -0.020 C 
ATOM     18  C   LIG    1       -3.263   1.956   3.618  0.00  0.00    +0.020 C 
ATOM     19  C   LIG    1       -3.981   1.554   2.326  0.00  0.00    +0.290 C 
BRANCH  17  20
ATOM     20  C   LIG    1       -2.233   1.096   5.726  0.00  0.00    +0.260 C 
BRANCH  20  21
ATOM     21  N   LIG    1       -2.013  -0.098   6.546  0.00  0.00    -0.730 N 
ATOM     22  H   LIG    1       -2.296  -0.968   6.222  0.00  0.00    +0.400 HD
ATOM     23  C   LIG    1       -1.418   0.012   7.750  0.00  0.00    +0.500 C 
ATOM     24  O   LIG    1       -1.065   1.099   8.155  0.00  0.00    -0.510 OA
BRANCH  23  25
ATOM     25  C   LIG    1       -1.192  -1.216   8.594  0.00  0.00    +0.170 C 
ATOM     26 CL   LIG    1       -0.382  -0.747  10.134  0.00  0.00    -0.130 Cl
ENDBRANCH  23  25
ENDBRANCH  20  21
ENDBRANCH  17  20
ENDBRANCH   1  14
TORSDOF 7
