REMARK  Name = ZINCpe00000cbVDR.0
REMARK                            x       y       z     vdW  Elec       q    Type
REMARK                         _______ _______ _______ _____ _____    ______ ____
ROOT
ATOM      1  O   LIG    1       -0.090   0.666   7.252  0.00  0.00    -0.550 OA
ATOM      2  C   LIG    1        0.690   0.449   6.345  0.00  0.00    +0.600 C 
ATOM      3  N   LIG    1        0.254   0.432   5.070  0.00  0.00    -0.600 N 
ATOM      4  C   LIG    1        1.204   0.329   3.954  0.00  0.00    +0.280 C 
ATOM      5  C   LIG    1        0.947   1.482   2.979  0.00  0.00    +0.010 C 
ATOM      6  C   LIG    1       -0.523   1.468   2.555  0.00  0.00    +0.000 C 
ATOM      7  C   LIG    1       -1.412   1.668   3.784  0.00  0.00    +0.020 C 
ATOM      8  C   LIG    1       -1.182   0.517   4.769  0.00  0.00    +0.270 C 
ENDROOT
BRANCH   6   9
ATOM      9  C   LIG    1       -0.776   2.596   1.554  0.00  0.00    +0.000 C 
ATOM     10  C   LIG    1        0.082   2.408   0.275  0.00  0.00    +0.030 C 
ATOM     11  C   LIG    1       -0.741   3.138  -0.809  0.00  0.00    +0.240 C 
ATOM     12  N   LIG    1       -2.131   3.197  -0.335  0.00  0.00    -0.620 N 
ATOM     13  C   LIG    1       -3.159   3.775  -0.987  0.00  0.00    +0.540 C 
ATOM     14  O   LIG    1       -4.269   3.764  -0.500  0.00  0.00    -0.530 OA
ATOM     15  C   LIG    1       -2.215   2.519   0.972  0.00  0.00    +0.260 C 
BRANCH  13  16
ATOM     16  C   LIG    1       -2.929   4.435  -2.322  0.00  0.00    -0.010 C 
ATOM     17  C   LIG    1       -4.200   5.046  -2.935  0.00  0.00    +0.070 C 
ATOM     18  C   LIG    1       -3.322   6.228  -3.381  0.00  0.00    +0.170 C 
ATOM     19  C   LIG    1       -2.385   5.869  -2.215  0.00  0.00    +0.020 C 
BRANCH  18  20
ATOM     20  O   LIG    1       -3.956   7.500  -3.235  0.00  0.00    -0.560 OA
ATOM     21  H   LIG    1       -3.409   8.247  -3.513  0.00  0.00    +0.380 HD
ENDBRANCH  18  20
ENDBRANCH  13  16
ENDBRANCH   6   9
BRANCH   2  22
ATOM     22  C   LIG    1        2.113   0.204   6.640  0.00  0.00    -0.060 A 
ATOM     23  C   LIG    1        2.717   0.327   7.857  0.00  0.00    +0.230 A 
ATOM     24  N   LIG    1        4.021   0.008   7.682  0.00  0.00    -0.560 N 
ATOM     25  H   LIG    1        4.705   0.003   8.369  0.00  0.00    +0.430 HD
ATOM     26  C   LIG    1        4.199  -0.303   6.372  0.00  0.00    +0.410 A 
ATOM     27  N   LIG    1        3.060  -0.192   5.751  0.00  0.00    -0.460 NA
ENDBRANCH   2  22
TORSDOF 4
