REMARK  Name = ZINCpe00000cbVDR.1
REMARK                            x       y       z     vdW  Elec       q    Type
REMARK                         _______ _______ _______ _____ _____    ______ ____
ROOT
ATOM      1  O   LIG    1       -2.784   0.235  -0.109  0.00  0.00    -0.520 OA
ATOM      2  C   LIG    1       -2.525   1.417   0.020  0.00  0.00    +0.600 C 
ATOM      3  N   LIG    1       -3.522   2.317   0.130  0.00  0.00    -0.610 N 
ATOM      4  C   LIG    1       -3.232   3.757   0.144  0.00  0.00    +0.260 C 
ATOM      5  C   LIG    1       -4.080   4.437  -0.942  0.00  0.00    +0.020 C 
ATOM      6  C   LIG    1       -5.554   4.090  -0.721  0.00  0.00    +0.010 C 
ATOM      7  C   LIG    1       -5.747   2.577  -0.837  0.00  0.00    +0.020 C 
ATOM      8  C   LIG    1       -4.919   1.876   0.245  0.00  0.00    +0.280 C 
ENDROOT
BRANCH   6   9
ATOM      9  C   LIG    1       -6.407   4.795  -1.778  0.00  0.00    -0.010 C 
ATOM     10  C   LIG    1       -7.919   4.630  -1.472  0.00  0.00    +0.040 C 
ATOM     11  C   LIG    1       -8.544   5.875  -2.139  0.00  0.00    +0.240 C 
ATOM     12  N   LIG    1       -7.480   6.881  -2.268  0.00  0.00    -0.620 N 
ATOM     13  C   LIG    1       -7.617   8.103  -2.820  0.00  0.00    +0.540 C 
ATOM     14  O   LIG    1       -6.667   8.854  -2.874  0.00  0.00    -0.530 OA
ATOM     15  C   LIG    1       -6.238   6.333  -1.693  0.00  0.00    +0.260 C 
BRANCH  13  16
ATOM     16  C   LIG    1       -8.951   8.535  -3.372  0.00  0.00    -0.010 C 
ATOM     17  C   LIG    1       -8.942   9.953  -3.967  0.00  0.00    +0.070 C 
ATOM     18  C   LIG    1       -9.838   9.403  -5.089  0.00  0.00    +0.170 C 
ATOM     19  C   LIG    1       -9.224   8.024  -4.796  0.00  0.00    +0.020 C 
BRANCH  18  20
ATOM     20  O   LIG    1       -9.513   9.913  -6.383  0.00  0.00    -0.560 OA
ATOM     21  H   LIG    1      -10.073   9.571  -7.093  0.00  0.00    +0.380 HD
ENDBRANCH  18  20
ENDBRANCH  13  16
ENDBRANCH   6   9
BRANCH   2  22
ATOM     22  C   LIG    1       -1.127   1.862   0.056  0.00  0.00    -0.090 A 
ATOM     23  C   LIG    1       -0.044   1.205  -0.457  0.00  0.00    +0.250 A 
ATOM     24  N   LIG    1        1.035   1.951  -0.219  0.00  0.00    -0.500 NA
ATOM     25  C   LIG    1        0.688   3.038   0.420  0.00  0.00    +0.440 A 
ATOM     26  N   LIG    1       -0.643   3.028   0.617  0.00  0.00    -0.560 N 
ATOM     27  H   LIG    1       -1.165   3.712   1.066  0.00  0.00    +0.430 HD
ENDBRANCH   2  22
TORSDOF 4
