REMARK  Name = ZINCb8000000112S.1
REMARK                            x       y       z     vdW  Elec       q    Type
REMARK                         _______ _______ _______ _____ _____    ______ ____
ROOT
ATOM      1  N   LIG    1       -0.721   1.571  -1.179  0.00  0.00    -0.420 N 
ATOM      2  N   LIG    1       -0.417   2.729  -1.908  0.00  0.00    -0.500 N 
ATOM      3  H   LIG    1        0.301   3.350  -1.714  0.00  0.00    +0.440 HD
ATOM      4  C   LIG    1       -1.308   2.830  -2.938  0.00  0.00    +0.180 A 
ATOM      5  C   LIG    1       -2.152   1.780  -2.877  0.00  0.00    -0.190 A 
ATOM      6  C   LIG    1       -1.342   3.928  -3.969  0.00  0.00    +0.170 C 
ATOM      7  C   LIG    1       -1.780   0.981  -1.770  0.00  0.00    +0.540 A 
ATOM      8  O   LIG    1       -2.320  -0.051  -1.415  0.00  0.00    -0.540 OA
ENDROOT
BRANCH   1   9
ATOM      9  C   LIG    1       -0.013   1.086   0.008  0.00  0.00    +0.350 C 
BRANCH   9  10
ATOM     10  C   LIG    1       -0.729   1.579   1.267  0.00  0.00    +0.160 C 
BRANCH  10  12
ATOM     11  C   LIG    1       -2.787   1.389   2.481  0.00  0.00    +0.200 C 
ATOM     12  O   LIG    1       -2.030   0.991   1.336  0.00  0.00    -0.370 OA
ENDBRANCH  10  12
ENDBRANCH   9  10
ENDBRANCH   1   9
TORSDOF 3
