REMARK  Name = ZINCpe000000WH6h.0
REMARK                            x       y       z     vdW  Elec       q    Type
REMARK                         _______ _______ _______ _____ _____    ______ ____
ROOT
ATOM      1  C   LIG    1       -1.173  -0.882   0.009  0.00  0.00    +0.610 C 
ATOM      2  N   LIG    1       -2.411  -0.350   0.024  0.00  0.00    -0.720 N 
ATOM      3  H   LIG    1       -2.525   0.613   0.030  0.00  0.00    +0.400 HD
ATOM      4  O   LIG    1       -1.029  -2.090   0.002  0.00  0.00    -0.510 OA
ENDROOT
BRANCH   1   8
ATOM      5  C   LIG    1        1.241   1.807  -0.000  0.00  0.00    +0.000 A 
ATOM      6  C   LIG    1        2.090   0.755  -0.014  0.00  0.00    -0.030 A 
ATOM      7  C   LIG    1        1.306  -0.409  -0.013  0.00  0.00    +0.050 A 
ATOM      8  C   LIG    1        0.002  -0.004   0.002  0.00  0.00    -0.070 A 
ATOM      9  O   LIG    1       -0.016   1.345   0.009  0.00  0.00    -0.160 OA
BRANCH   5  10
ATOM     10  C   LIG    1        1.643   3.259   0.003  0.00  0.00    +0.390 C 
BRANCH  10  11
ATOM     11  N   LIG    1        1.759   3.737  -1.377  0.00  0.00    -1.120 NA
ATOM     12  H   LIG    1        1.801   3.101  -2.108  0.00  0.00    +0.420 HD
BRANCH  11  14
ATOM     13  C   LIG    1        3.371   5.912  -0.924  0.00  0.00    -0.280 C 
ATOM     14  S   LIG    1        1.820   5.362  -1.688  0.00  0.00    +2.620 S 
ATOM     15  O   LIG    1        0.704   5.895  -0.988  0.00  0.00    -0.950 OA
ATOM     16  O   LIG    1        1.904   5.445  -3.104  0.00  0.00    -0.950 OA
ENDBRANCH  11  14
ENDBRANCH  10  11
ENDBRANCH   5  10
ENDBRANCH   1   8
BRANCH   2  17
ATOM     17  C   LIG    1       -3.585  -1.227   0.031  0.00  0.00    +0.280 C 
BRANCH  17  18
ATOM     18  C   LIG    1       -4.857  -0.377   0.048  0.00  0.00    +0.170 C 
ATOM     19  C   LIG    1       -6.106  -1.281  -0.015  0.00  0.00    +0.080 C 
ATOM     20  C   LIG    1       -6.388  -1.352  -1.530  0.00  0.00    +0.090 C 
ATOM     21  C   LIG    1       -5.809  -0.075  -2.101  0.00  0.00    -0.080 A 
ATOM     22  C   LIG    1       -6.034   0.547  -3.317  0.00  0.00    +0.010 A 
ATOM     23  C   LIG    1       -5.381   1.725  -3.627  0.00  0.00    +0.020 A 
ATOM     24  C   LIG    1       -4.501   2.285  -2.720  0.00  0.00    +0.010 A 
ATOM     25  C   LIG    1       -4.276   1.666  -1.506  0.00  0.00    +0.010 A 
ATOM     26  C   LIG    1       -4.928   0.485  -1.194  0.00  0.00    -0.130 A 
BRANCH  18  27
ATOM     27  O   LIG    1       -4.891   0.439   1.221  0.00  0.00    -0.540 OA
ATOM     28  H   LIG    1       -4.141   1.044   1.302  0.00  0.00    +0.370 HD
ENDBRANCH  18  27
ENDBRANCH  17  18
ENDBRANCH   2  17
TORSDOF 7
