REMARK  Name = ZINCqH0000002sZI.0
REMARK                            x       y       z     vdW  Elec       q    Type
REMARK                         _______ _______ _______ _____ _____    ______ ____
ROOT
ATOM      1  C   LIG    1        2.481   1.075  -0.059  0.00  0.00    +0.570 C 
ATOM      2  N   LIG    1        3.630   1.766   0.078  0.00  0.00    -0.590 N 
ATOM      3  O   LIG    1        1.436   1.666  -0.254  0.00  0.00    -0.530 OA
ENDROOT
BRANCH   1   7
ATOM      4  C   LIG    1        2.509  -3.164   0.192  0.00  0.00    +0.160 A 
ATOM      5  C   LIG    1        1.382  -2.454   0.589  0.00  0.00    -0.070 A 
ATOM      6  C   LIG    1        1.367  -1.079   0.503  0.00  0.00    +0.120 A 
ATOM      7  C   LIG    1        2.491  -0.398   0.028  0.00  0.00    -0.170 A 
ATOM      8  C   LIG    1        3.624  -1.116  -0.364  0.00  0.00    +0.070 A 
ATOM      9  C   LIG    1        3.629  -2.490  -0.281  0.00  0.00    -0.020 A 
BRANCH   4  10
ATOM     10  O   LIG    1        2.519  -4.519   0.272  0.00  0.00    -0.310 OA
BRANCH  10  11
ATOM     11  C   LIG    1        1.335  -5.147   0.767  0.00  0.00    +0.200 C 
BRANCH  11  12
ATOM     12  C   LIG    1        1.532  -6.664   0.785  0.00  0.00    +0.040 C 
BRANCH  12  14
ATOM     13  C   LIG    1        0.462  -8.854   1.333  0.00  0.00    +0.030 C 
ATOM     14  C   LIG    1        0.265  -7.337   1.315  0.00  0.00    +0.020 C 
ENDBRANCH  12  14
ENDBRANCH  11  12
ENDBRANCH  10  11
ENDBRANCH   4  10
ENDBRANCH   1   7
BRANCH   2  15
ATOM     15  C   LIG    1        3.603   3.230   0.127  0.00  0.00    +0.280 C 
ATOM     16  C   LIG    1        3.460   3.689   1.579  0.00  0.00    +0.020 C 
ENDBRANCH   2  15
BRANCH   2  17
ATOM     17  C   LIG    1        4.906   1.053   0.178  0.00  0.00    +0.310 C 
BRANCH  17  18
ATOM     18  C   LIG    1        5.578   1.034  -1.171  0.00  0.00    +0.490 C 
ATOM     19  N   LIG    1        6.772   0.428  -1.320  0.00  0.00    -0.730 N 
ATOM     20  H   LIG    1        7.200   0.004  -0.560  0.00  0.00    +0.400 HD
ATOM     21  O   LIG    1        5.043   1.564  -2.122  0.00  0.00    -0.510 OA
BRANCH  19  22
ATOM     22  C   LIG    1        7.425   0.410  -2.631  0.00  0.00    +0.360 C 
BRANCH  22  23
ATOM     23  C   LIG    1        8.738  -0.324  -2.529  0.00  0.00    -0.210 A 
ATOM     24  C   LIG    1        8.903  -1.634  -2.715  0.00  0.00    +0.030 A 
ATOM     25  C   LIG    1       10.203  -2.085  -2.568  0.00  0.00    +0.000 A 
ATOM     26  C   LIG    1       11.095  -1.140  -2.264  0.00  0.00    -0.030 A 
ATOM     27  S   LIG    1       10.287   0.418  -2.153  0.00  0.00    +0.120 S 
ENDBRANCH  22  23
ENDBRANCH  19  22
ENDBRANCH  17  18
ENDBRANCH   2  17
TORSDOF 10
