REMARK  Name = ZINCnE000004qt0R.1
REMARK                            x       y       z     vdW  Elec       q    Type
REMARK                         _______ _______ _______ _____ _____    ______ ____
ROOT
ATOM      1  C   LIG    1       -0.997  -2.146   0.006  0.00  0.00    +0.470 C 
ATOM      2  N   LIG    1       -1.132  -0.804   0.012  0.00  0.00    -0.680 NA
ATOM      3  O   LIG    1        0.109  -2.644  -0.003  0.00  0.00    -0.560 OA
ENDROOT
BRANCH   2   4
ATOM      4  C   LIG    1       -0.007   0.005   0.008  0.00  0.00    +0.400 A 
ATOM      5  N   LIG    1        1.207  -0.424  -0.001  0.00  0.00    -0.550 NA
ATOM      6  C   LIG    1        2.199   0.489  -0.004  0.00  0.00    +0.180 A 
ATOM      7  C   LIG    1        3.594   0.277  -0.015  0.00  0.00    -0.090 A 
ATOM      8  C   LIG    1        4.459   1.344  -0.017  0.00  0.00    +0.060 A 
ATOM      9  C   LIG    1        3.976   2.644  -0.008  0.00  0.00    -0.040 A 
ATOM     10  C   LIG    1        2.618   2.874   0.003  0.00  0.00    +0.080 A 
ATOM     11 BR   LIG    1        4.277  -1.486  -0.025  0.00  0.00    -0.060 Br
ATOM     12  C   LIG    1        1.726   1.805   0.005  0.00  0.00    -0.220 A 
ATOM     13  S   LIG    1       -0.036   1.763   0.016  0.00  0.00    -0.030 S 
ENDBRANCH   2   4
BRANCH   1  18
ATOM     14  C   LIG    1       -4.335  -5.954   1.967  0.00  0.00    +0.540 C 
ATOM     15  N   LIG    1       -3.909  -5.019   1.095  0.00  0.00    -0.600 N 
ATOM     16  C   LIG    1       -3.037  -5.386  -0.029  0.00  0.00    +0.270 C 
ATOM     17  C   LIG    1       -1.791  -4.495   0.001  0.00  0.00    +0.040 C 
ATOM     18  C   LIG    1       -2.220  -3.026   0.010  0.00  0.00    +0.000 C 
ATOM     19  C   LIG    1       -3.048  -2.742   1.265  0.00  0.00    +0.040 C 
ATOM     20  C   LIG    1       -4.308  -3.613   1.249  0.00  0.00    +0.270 C 
ATOM     21  O   LIG    1       -4.977  -5.624   2.946  0.00  0.00    -0.550 OA
BRANCH  14  23
ATOM     22  C   LIG    1       -4.526  -8.304   2.540  0.00  0.00    +0.120 C 
ATOM     23  C   LIG    1       -4.023  -7.372   1.735  0.00  0.00    -0.080 C 
ENDBRANCH  14  23
ENDBRANCH   1  18
TORSDOF 3
