REMARK  Name = ZINCvU0000000Hu2.0
REMARK                            x       y       z     vdW  Elec       q    Type
REMARK                         _______ _______ _______ _____ _____    ______ ____
ROOT
ATOM      1  C   LIG    1        4.154   2.475  -1.191  0.00  0.00    +0.520 C 
ATOM      2  N   LIG    1        3.585   2.124  -0.020  0.00  0.00    -0.470 N 
ATOM      3  O   LIG    1        5.197   3.094  -1.197  0.00  0.00    -0.480 OA
ENDROOT
BRANCH   2   4
ATOM      4  C   LIG    1        4.192   2.472   1.177  0.00  0.00    +0.320 A 
ATOM      5  N   LIG    1        3.729   2.191   2.345  0.00  0.00    -0.490 NA
ATOM      6  C   LIG    1        4.437   2.593   3.419  0.00  0.00    +0.110 A 
ATOM      7  C   LIG    1        4.149   2.407   4.787  0.00  0.00    +0.060 A 
ATOM      8  C   LIG    1        4.995   2.900   5.749  0.00  0.00    +0.030 A 
ATOM      9  C   LIG    1        6.146   3.587   5.392  0.00  0.00    +0.020 A 
ATOM     10  C   LIG    1        6.448   3.780   4.062  0.00  0.00    +0.060 A 
ATOM     11  C   LIG    1        5.601   3.288   3.073  0.00  0.00    -0.220 A 
ATOM     12  S   LIG    1        5.700   3.366   1.315  0.00  0.00    +0.170 S 
ENDBRANCH   2   4
BRANCH   2  13
ATOM     13  C   LIG    1        2.381   1.409  -0.013  0.00  0.00    +0.110 A 
ATOM     14  C   LIG    1        1.169   2.087   0.002  0.00  0.00    -0.060 A 
ATOM     15  C   LIG    1       -0.017   1.379   0.010  0.00  0.00    +0.010 A 
ATOM     16  C   LIG    1        0.002  -0.004   0.002  0.00  0.00    +0.040 A 
ATOM     17  C   LIG    1        1.207  -0.682  -0.013  0.00  0.00    +0.010 A 
ATOM     18  C   LIG    1        1.148   3.594   0.010  0.00  0.00    +0.100 C 
ATOM     19  C   LIG    1        2.396   0.021  -0.021  0.00  0.00    -0.060 A 
ATOM     20  C   LIG    1        3.709  -0.719  -0.038  0.00  0.00    +0.090 C 
ENDBRANCH   2  13
BRANCH   1  21
ATOM     21  C   LIG    1        3.494   2.097  -2.492  0.00  0.00    +0.140 C 
BRANCH  21  25
ATOM     22  C   LIG    1        5.850   3.539  -5.757  0.00  0.00    +0.110 A 
ATOM     23  C   LIG    1        4.854   4.334  -5.214  0.00  0.00    -0.030 A 
ATOM     24  C   LIG    1        4.090   3.863  -4.162  0.00  0.00    +0.030 A 
ATOM     25  C   LIG    1        4.325   2.603  -3.643  0.00  0.00    -0.070 A 
ATOM     26  C   LIG    1        5.318   1.805  -4.181  0.00  0.00    -0.020 A 
ATOM     27  C   LIG    1        6.083   2.268  -5.238  0.00  0.00    +0.100 A 
BRANCH  22  29
ATOM     28  C   LIG    1        6.302   5.311  -7.277  0.00  0.00    +0.250 C 
ATOM     29  O   LIG    1        6.598   3.998  -6.796  0.00  0.00    -0.310 OA
ENDBRANCH  22  29
BRANCH  27  30
ATOM     30  O   LIG    1        7.060   1.484  -5.768  0.00  0.00    -0.300 OA
ATOM     31  C   LIG    1        7.243   0.193  -5.184  0.00  0.00    +0.230 C 
ENDBRANCH  27  30
ENDBRANCH  21  25
ENDBRANCH   1  21
TORSDOF 6
