REMARK  Name = ZINCnE000001GXKD.0
REMARK                            x       y       z     vdW  Elec       q    Type
REMARK                         _______ _______ _______ _____ _____    ______ ____
ROOT
ATOM      1  C   LIG    1        1.933   2.117  -3.460  0.00  0.00    +0.670 C 
ATOM      2  N   LIG    1        1.362   1.450  -2.437  0.00  0.00    -0.620 N 
ATOM      3  C   LIG    1        2.147   1.092  -1.247  0.00  0.00    +0.270 C 
ATOM      4  C   LIG    1        1.423   1.615  -0.003  0.00  0.00    +0.020 C 
ATOM      5  C   LIG    1       -0.013   1.086   0.008  0.00  0.00    +0.030 C 
ATOM      6  C   LIG    1       -0.754   1.593  -1.231  0.00  0.00    +0.020 C 
ATOM      7  C   LIG    1       -0.055   1.069  -2.490  0.00  0.00    +0.280 C 
ATOM      8  O   LIG    1        3.110   2.428  -3.404  0.00  0.00    -0.610 OA
ENDROOT
BRANCH   1  13
ATOM      9  C   LIG    1        2.481   4.361  -7.707  0.00  0.00    -0.030 A 
ATOM     10  N   LIG    1        3.393   4.179  -6.802  0.00  0.00    -0.270 NA
ATOM     11  N   LIG    1        3.048   3.518  -5.645  0.00  0.00    -0.400 NA
ATOM     12  C   LIG    1        1.771   3.096  -5.546  0.00  0.00    +0.380 A 
ATOM     13  N   LIG    1        1.208   2.437  -4.535  0.00  0.00    -0.680 NA
ATOM     14  S   LIG    1        1.007   3.619  -7.059  0.00  0.00    -0.070 S 
BRANCH   9  15
ATOM     15  S   LIG    1        2.668   5.176  -9.258  0.00  0.00    -0.030 S 
BRANCH  15  17
ATOM     16  C   LIG    1        4.820   6.375 -10.440  0.00  0.00    +0.050 C 
ATOM     17  C   LIG    1        4.417   5.633  -9.164  0.00  0.00    +0.070 C 
ENDBRANCH  15  17
ENDBRANCH   9  15
ENDBRANCH   1  13
BRANCH   5  18
ATOM     18  C   LIG    1       -0.718   1.571   1.248  0.00  0.00    -0.020 A 
ATOM     19  C   LIG    1       -0.865   2.928   1.496  0.00  0.00    -0.040 A 
ATOM     20  C   LIG    1       -1.521   3.336   2.642  0.00  0.00    +0.250 A 
ATOM     21  N   LIG    1       -1.995   2.453   3.498  0.00  0.00    -0.490 NA
ATOM     22  C   LIG    1       -1.869   1.155   3.298  0.00  0.00    +0.250 A 
ATOM     23  C   LIG    1       -1.229   0.673   2.172  0.00  0.00    -0.040 A 
ENDBRANCH   5  18
TORSDOF 4
