REMARK  Name = ZINCrH000004r0gL.0
REMARK                            x       y       z     vdW  Elec       q    Type
REMARK                         _______ _______ _______ _____ _____    ______ ____
ROOT
ATOM      1  N   LIG    1       -0.216   1.220  -4.029  0.00  0.00    -0.480 N 
ATOM      2  C   LIG    1        0.232   0.312  -4.926  0.00  0.00    +0.560 A 
ATOM      3  C   LIG    1        1.418  -0.474  -4.564  0.00  0.00    -0.200 A 
ATOM      4  C   LIG    1        1.955  -1.433  -5.422  0.00  0.00    +0.130 A 
ATOM      5  C   LIG    1        3.061  -2.140  -5.040  0.00  0.00    +0.020 A 
ATOM      6  C   LIG    1        3.657  -1.913  -3.805  0.00  0.00    +0.010 A 
ATOM      7  C   LIG    1        3.147  -0.972  -2.937  0.00  0.00    +0.040 A 
ATOM      8 CL   LIG    1        5.061  -2.828  -3.350  0.00  0.00    -0.050 Cl
ATOM      9  C   LIG    1        2.018  -0.236  -3.305  0.00  0.00    +0.180 A 
ATOM     10  N   LIG    1        1.486   0.703  -2.488  0.00  0.00    -0.530 NA
ATOM     11  O   LIG    1       -0.328   0.153  -5.995  0.00  0.00    -0.490 OA
ATOM     12  C   LIG    1        0.424   1.388  -2.831  0.00  0.00    +0.360 A 
ENDROOT
BRANCH   1  17
ATOM     13  C   LIG    1       -4.786   4.358  -5.242  0.00  0.00    +0.100 C 
ATOM     14  C   LIG    1       -3.572   3.525  -4.920  0.00  0.00    -0.060 A 
ATOM     15  C   LIG    1       -2.313   3.977  -5.268  0.00  0.00    +0.030 A 
ATOM     16  C   LIG    1       -1.198   3.216  -4.974  0.00  0.00    +0.050 A 
ATOM     17  C   LIG    1       -1.344   1.995  -4.328  0.00  0.00    +0.080 A 
ATOM     18  C   LIG    1       -2.611   1.541  -3.985  0.00  0.00    +0.050 A 
ATOM     19  C   LIG    1       -3.720   2.309  -4.277  0.00  0.00    +0.030 A 
ENDBRANCH   1  17
BRANCH  12  20
ATOM     20  S   LIG    1       -0.205   2.586  -1.702  0.00  0.00    +0.100 S 
BRANCH  20  21
ATOM     21  C   LIG    1        0.977   2.390  -0.346  0.00  0.00    +0.100 C 
BRANCH  21  22
ATOM     22  C   LIG    1        0.626   3.344   0.767  0.00  0.00    +0.540 C 
ATOM     23  N   LIG    1        1.373   3.375   1.888  0.00  0.00    -0.690 N 
ATOM     24  H   LIG    1        2.137   2.784   1.979  0.00  0.00    +0.410 HD
ATOM     25  O   LIG    1       -0.329   4.082   0.655  0.00  0.00    -0.520 OA
BRANCH  23  26
ATOM     26  C   LIG    1        1.032   4.302   2.970  0.00  0.00    +0.220 C 
ATOM     27  C   LIG    1        2.179   5.071   3.630  0.00  0.00    +0.020 C 
ATOM     28  C   LIG    1        1.486   3.934   4.385  0.00  0.00    +0.020 C 
ENDBRANCH  23  26
ENDBRANCH  21  22
ENDBRANCH  20  21
ENDBRANCH  12  20
TORSDOF 5
