REMARK  Name = ZINCnE000004TqoM.0
REMARK                            x       y       z     vdW  Elec       q    Type
REMARK                         _______ _______ _______ _____ _____    ______ ____
ROOT
ATOM      1  C   LIG    1        1.323   2.109   0.013  0.00  0.00    +0.010 C 
ATOM      2  C   LIG    1        2.144   1.756   1.249  0.00  0.00    +0.000 C 
ATOM      3  C   LIG    1        2.797   0.411   1.049  0.00  0.00    +0.010 C 
ATOM      4  C   LIG    1        1.893  -0.704   1.603  0.00  0.00    +0.250 C 
ATOM      5  N   LIG    1        0.469  -0.471   1.294  0.00  0.00    -0.590 N 
ATOM      6  C   LIG    1        0.016   0.002   0.005  0.00  0.00    +0.270 C 
ATOM      7  C   LIG    1       -0.448  -0.709   2.253  0.00  0.00    +0.540 C 
ATOM      8  O   LIG    1       -1.612  -0.428   2.062  0.00  0.00    -0.530 OA
ATOM      9  C   LIG    1       -0.038   1.550   0.009  0.00  0.00    +0.030 C 
ENDROOT
BRANCH   7  10
ATOM     10  C   LIG    1       -0.026  -1.323   3.563  0.00  0.00    -0.130 C 
ATOM     11  C   LIG    1       -0.946  -1.117   4.769  0.00  0.00    +0.080 C 
ATOM     12  C   LIG    1        0.390  -0.373   4.688  0.00  0.00    +0.070 C 
BRANCH  10  13
ATOM     13  C   LIG    1        0.701  -2.639   3.459  0.00  0.00    -0.030 A 
ATOM     14  C   LIG    1        1.638  -2.988   4.414  0.00  0.00    +0.030 A 
ATOM     15  C   LIG    1        2.302  -4.197   4.322  0.00  0.00    +0.030 A 
ATOM     16  C   LIG    1        2.037  -5.052   3.268  0.00  0.00    -0.040 A 
ATOM     17  C   LIG    1        1.103  -4.700   2.310  0.00  0.00    +0.030 A 
ATOM     18 CL   LIG    1        2.876  -6.567   3.148  0.00  0.00    -0.070 Cl
ATOM     19  C   LIG    1        0.436  -3.494   2.406  0.00  0.00    +0.040 A 
ENDBRANCH  10  13
ENDBRANCH   7  10
BRANCH   1  20
ATOM     20  C   LIG    1        1.223   3.632  -0.086  0.00  0.00    -0.080 C 
BRANCH  20  22
ATOM     21  O   LIG    1        0.312   3.143  -2.214  0.00  0.00    -0.690 OA
ATOM     22  C   LIG    1        0.627   4.011  -1.418  0.00  0.00    +0.490 C 
ATOM     23  O   LIG    1        0.461   5.186  -1.699  0.00  0.00    -0.710 OA
ENDBRANCH  20  22
ENDBRANCH   1  20
TORSDOF 4
