REMARK  Name = ZINCtV00001bB3L2.0
REMARK                            x       y       z     vdW  Elec       q    Type
REMARK                         _______ _______ _______ _____ _____    ______ ____
ROOT
ATOM      1  C   LIG    1        1.180   3.690  -0.103  0.00  0.00    +0.590 C 
ATOM      2  N   LIG    1        2.365   4.312   0.058  0.00  0.00    -0.550 N 
ATOM      3  C   LIG    1        2.434   5.770   0.203  0.00  0.00    +0.310 C 
ATOM      4  C   LIG    1        3.127   6.139   1.513  0.00  0.00    +0.050 C 
ATOM      5  C   LIG    1        4.588   5.682   1.484  0.00  0.00    +0.100 C 
ATOM      6  S   LIG    1        4.635   3.868   1.462  0.00  0.00    -0.120 S 
ATOM      7  C   LIG    1        3.550   3.587   0.097  0.00  0.00    +0.370 C 
ATOM      8  N   LIG    1        3.854   2.725  -0.845  0.00  0.00    -0.430 NA
ATOM      9  O   LIG    1        0.162   4.344  -0.225  0.00  0.00    -0.500 OA
ENDROOT
BRANCH   1  13
ATOM     10  C   LIG    1        1.007  -0.555  -0.180  0.00  0.00    +0.130 A 
ATOM     11  C   LIG    1        2.098   0.085   0.395  0.00  0.00    -0.090 A 
ATOM     12  C   LIG    1        2.157   1.462   0.421  0.00  0.00    +0.060 A 
ATOM     13  C   LIG    1        1.119   2.216  -0.130  0.00  0.00    -0.090 A 
ATOM     14  C   LIG    1        0.021   1.572  -0.708  0.00  0.00    +0.030 A 
ATOM     15 BR   LIG    1        3.504  -0.935   1.142  0.00  0.00    -0.010 Br
ATOM     16  C   LIG    1       -0.032   0.192  -0.732  0.00  0.00    +0.110 A 
BRANCH  16  17
ATOM     17  O   LIG    1       -1.099  -0.438  -1.294  0.00  0.00    -0.300 OA
ATOM     18  C   LIG    1       -2.127   0.390  -1.840  0.00  0.00    +0.250 C 
ENDBRANCH  16  17
BRANCH  10  19
ATOM     19  O   LIG    1        0.953  -1.912  -0.203  0.00  0.00    -0.310 OA
BRANCH  19  20
ATOM     20  C   LIG    1        1.522  -2.565  -1.340  0.00  0.00    +0.190 C 
BRANCH  20  22
ATOM     21  C   LIG    1        1.977  -4.778  -2.406  0.00  0.00    +0.030 C 
ATOM     22  C   LIG    1        1.368  -4.079  -1.189  0.00  0.00    +0.020 C 
ENDBRANCH  20  22
ENDBRANCH  19  20
ENDBRANCH  10  19
ENDBRANCH   1  13
BRANCH   8  23
ATOM     23  C   LIG    1        5.021   2.012  -0.770  0.00  0.00    +0.090 A 
ATOM     24  C   LIG    1        5.459   1.511   0.457  0.00  0.00    +0.030 A 
ATOM     25  C   LIG    1        6.635   0.793   0.525  0.00  0.00    +0.030 A 
ATOM     26  C   LIG    1        7.381   0.569  -0.619  0.00  0.00    +0.040 A 
ATOM     27  C   LIG    1        6.953   1.062  -1.839  0.00  0.00    +0.040 A 
ATOM     28  C   LIG    1        5.776   1.777  -1.923  0.00  0.00    -0.010 A 
ATOM     29 CL   LIG    1        5.237   2.390  -3.455  0.00  0.00    -0.050 Cl
ENDBRANCH   8  23
TORSDOF 6
