REMARK  Name = ZINCqH0000051yAd.0
REMARK                            x       y       z     vdW  Elec       q    Type
REMARK                         _______ _______ _______ _____ _____    ______ ____
ROOT
ATOM      1  O   LIG    1        6.182   2.974  -0.041  0.00  0.00    -0.490 OA
ATOM      2  C   LIG    1        6.035   1.768  -0.045  0.00  0.00    +0.510 C 
ENDROOT
BRANCH   2   3
ATOM      3  C   LIG    1        7.213   0.882  -0.060  0.00  0.00    -0.130 A 
ATOM      4  C   LIG    1        7.049  -0.506  -0.059  0.00  0.00    +0.090 A 
ATOM      5  C   LIG    1        8.154  -1.329  -0.078  0.00  0.00    +0.010 A 
ATOM      6  C   LIG    1        9.430  -0.787  -0.087  0.00  0.00    +0.070 A 
ATOM      7  C   LIG    1        9.608   0.582  -0.083  0.00  0.00    +0.020 A 
ATOM      8  C   LIG    1        8.506   1.427  -0.070  0.00  0.00    +0.210 A 
BRANCH   8   9
ATOM      9  N   LIG    1        8.684   2.808  -0.066  0.00  0.00    -0.580 N 
ATOM     10  C   LIG    1        8.778   3.634  -1.275  0.00  0.00    +0.270 C 
ATOM     11  C   LIG    1        9.394   4.973  -0.812  0.00  0.00    +0.040 C 
ATOM     12  C   LIG    1        8.984   5.010   0.678  0.00  0.00    +0.060 C 
ATOM     13  C   LIG    1        8.784   3.557   1.046  0.00  0.00    +0.530 C 
ATOM     14  O   LIG    1        8.726   3.128   2.179  0.00  0.00    -0.530 OA
ENDBRANCH   8   9
ENDBRANCH   2   3
BRANCH   2  15
ATOM     15  O   LIG    1        4.795   1.240  -0.036  0.00  0.00    -0.350 OA
BRANCH  15  16
ATOM     16  C   LIG    1        3.682   2.172  -0.022  0.00  0.00    +0.300 C 
BRANCH  16  17
ATOM     17  C   LIG    1        2.385   1.405  -0.014  0.00  0.00    -0.110 A 
ATOM     18  C   LIG    1        2.398   0.024  -0.020  0.00  0.00    +0.070 A 
ATOM     19  C   LIG    1        1.208  -0.680  -0.013  0.00  0.00    -0.010 A 
ATOM     20  C   LIG    1        0.002  -0.004   0.002  0.00  0.00    +0.050 A 
ATOM     21  C   LIG    1       -0.017   1.377   0.010  0.00  0.00    -0.050 A 
ATOM     22  C   LIG    1        1.176   2.086   0.002  0.00  0.00    +0.110 A 
BRANCH  22  23
ATOM     23  O   LIG    1        1.160   3.445   0.009  0.00  0.00    -0.320 OA
BRANCH  23  24
ATOM     24  C   LIG    1       -0.121   4.079   0.024  0.00  0.00    +0.590 C 
ATOM     25  F   LIG    1       -0.821   3.689   1.171  0.00  0.00    -0.200 F 
ATOM     26  F   LIG    1       -0.842   3.700  -1.113  0.00  0.00    -0.200 F 
ENDBRANCH  23  24
ENDBRANCH  22  23
ENDBRANCH  16  17
ENDBRANCH  15  16
ENDBRANCH   2  15
TORSDOF 7
