REMARK  Name = ZINCrH000004lmsS.0
REMARK                            x       y       z     vdW  Elec       q    Type
REMARK                         _______ _______ _______ _____ _____    ______ ____
ROOT
ATOM      1  N   LIG    1       -0.288   1.272  -2.443  0.00  0.00    -0.670 N 
ATOM      2  H   LIG    1        0.678   1.195  -2.457  0.00  0.00    +0.410 HD
ATOM      3  C   LIG    1       -0.968   1.030  -1.304  0.00  0.00    +0.520 C 
ATOM      4  O   LIG    1       -2.167   1.208  -1.264  0.00  0.00    -0.520 OA
ENDROOT
BRANCH   1   7
ATOM      5  C   LIG    1       -1.207   1.565  -5.996  0.00  0.00    +0.120 A 
ATOM      6  C   LIG    1       -0.521   1.210  -4.847  0.00  0.00    -0.060 A 
ATOM      7  C   LIG    1       -0.979   1.635  -3.607  0.00  0.00    +0.140 A 
ATOM      8  C   LIG    1       -2.117   2.425  -3.521  0.00  0.00    +0.030 A 
ATOM      9  C   LIG    1       -2.799   2.784  -4.668  0.00  0.00    -0.010 A 
ATOM     10  C   LIG    1       -2.348   2.357  -5.906  0.00  0.00    +0.090 A 
BRANCH  10  11
ATOM     11  O   LIG    1       -3.021   2.711  -7.035  0.00  0.00    -0.300 OA
ATOM     12  C   LIG    1       -4.184   3.524  -6.868  0.00  0.00    +0.250 C 
ENDBRANCH  10  11
BRANCH   5  13
ATOM     13  O   LIG    1       -0.763   1.145  -7.211  0.00  0.00    -0.290 OA
BRANCH  13  14
ATOM     14  C   LIG    1        0.414   0.336  -7.227  0.00  0.00    +0.210 C 
BRANCH  14  15
ATOM     15  C   LIG    1        0.757  -0.037  -8.671  0.00  0.00    +0.190 C 
BRANCH  15  17
ATOM     16  C   LIG    1        1.438   0.906 -10.767  0.00  0.00    +0.200 C 
ATOM     17  O   LIG    1        1.099   1.144  -9.399  0.00  0.00    -0.380 OA
ENDBRANCH  15  17
ENDBRANCH  14  15
ENDBRANCH  13  14
ENDBRANCH   5  13
ENDBRANCH   1   7
BRANCH   3  18
ATOM     18  C   LIG    1       -0.237   0.539  -0.081  0.00  0.00    +0.050 C 
BRANCH  18  19
ATOM     19  C   LIG    1       -1.234   0.345   1.064  0.00  0.00    +0.330 C 
BRANCH  19  20
ATOM     20  N   LIG    1       -0.523  -0.132   2.253  0.00  0.00    -0.490 N 
ATOM     21  C   LIG    1       -0.398  -1.444   2.620  0.00  0.00    +0.220 A 
ATOM     22  C   LIG    1        0.313  -1.536   3.755  0.00  0.00    -0.050 A 
ATOM     23  C   LIG    1        0.664  -0.171   4.152  0.00  0.00    -0.110 A 
ATOM     24  C   LIG    1        1.376   0.376   5.221  0.00  0.00    +0.050 A 
ATOM     25  C   LIG    1        1.532   1.731   5.310  0.00  0.00    -0.030 A 
ATOM     26  C   LIG    1        0.990   2.568   4.346  0.00  0.00    +0.020 A 
ATOM     27  C   LIG    1        0.284   2.049   3.282  0.00  0.00    -0.010 A 
ATOM     28  C   LIG    1        0.112   0.674   3.171  0.00  0.00    +0.100 A 
ENDBRANCH  19  20
ENDBRANCH  18  19
ENDBRANCH   3  18
TORSDOF 9
