REMARK  Name = ZINCrD000000fTyB.0
REMARK                            x       y       z     vdW  Elec       q    Type
REMARK                         _______ _______ _______ _____ _____    ______ ____
ROOT
ATOM      1  N   LIG    1       -3.216  -0.929   2.617  0.00  0.00    -0.340 N 
ATOM      2  N   LIG    1       -3.762  -2.091   2.586  0.00  0.00    -0.200 NA
ATOM      3  C   LIG    1       -3.437  -3.041   3.431  0.00  0.00    +0.090 A 
ATOM      4  C   LIG    1       -2.454  -2.808   4.421  0.00  0.00    +0.100 A 
ATOM      5  C   LIG    1       -1.864  -1.580   4.469  0.00  0.00    -0.010 A 
ATOM      6  C   LIG    1       -2.268  -0.615   3.519  0.00  0.00    +0.470 A 
ATOM      7  O   LIG    1       -1.764   0.497   3.520  0.00  0.00    -0.520 OA
ENDROOT
BRANCH   3   8
ATOM      8  C   LIG    1       -4.102  -4.364   3.346  0.00  0.00    -0.070 A 
ATOM      9  C   LIG    1       -3.757  -5.378   4.237  0.00  0.00    +0.070 A 
ATOM     10  C   LIG    1       -4.384  -6.606   4.158  0.00  0.00    +0.010 A 
ATOM     11  C   LIG    1       -5.345  -6.835   3.190  0.00  0.00    +0.060 A 
ATOM     12  C   LIG    1       -5.688  -5.835   2.298  0.00  0.00    -0.020 A 
ATOM     13  C   LIG    1       -5.072  -4.600   2.371  0.00  0.00    +0.130 A 
ATOM     14  F   LIG    1       -5.409  -3.623   1.500  0.00  0.00    -0.120 F 
ENDBRANCH   3   8
BRANCH   1  15
ATOM     15  C   LIG    1       -3.632   0.080   1.640  0.00  0.00    +0.330 C 
BRANCH  15  20
ATOM     16  C   LIG    1       -0.241   1.921  -2.211  0.00  0.00    +0.530 C 
ATOM     17  N   LIG    1       -0.996   1.007  -1.569  0.00  0.00    -0.610 N 
ATOM     18  C   LIG    1       -0.426   0.190  -0.490  0.00  0.00    +0.260 C 
ATOM     19  C   LIG    1       -1.306   0.329   0.756  0.00  0.00    +0.030 C 
ATOM     20  C   LIG    1       -2.753  -0.026   0.392  0.00  0.00    -0.020 C 
ATOM     21  C   LIG    1       -3.266   0.942  -0.677  0.00  0.00    +0.020 C 
ATOM     22  C   LIG    1       -2.405   0.809  -1.937  0.00  0.00    +0.270 C 
ATOM     23  O   LIG    1        0.888   2.149  -1.831  0.00  0.00    -0.540 OA
BRANCH  16  25
ATOM     24  C   LIG    1        0.310   3.485  -4.055  0.00  0.00    +0.050 C 
ATOM     25  C   LIG    1       -0.799   2.658  -3.401  0.00  0.00    -0.090 C 
ATOM     26  C   LIG    1       -1.925   3.587  -2.942  0.00  0.00    +0.050 C 
ATOM     27  C   LIG    1       -1.349   1.651  -4.413  0.00  0.00    +0.040 C 
ENDBRANCH  16  25
ENDBRANCH  15  20
ENDBRANCH   1  15
TORSDOF 4
