REMARK  Name = ZINCpe000000ZpFV.0
REMARK                            x       y       z     vdW  Elec       q    Type
REMARK                         _______ _______ _______ _____ _____    ______ ____
ROOT
ATOM      1  C   LIG    1       -1.200  -2.968   3.852  0.00  0.00    -0.150 A 
ATOM      2  C   LIG    1       -2.522  -3.076   3.418  0.00  0.00    +0.110 A 
ATOM      3  C   LIG    1       -3.247  -1.937   3.135  0.00  0.00    +0.010 A 
ATOM      4  C   LIG    1       -2.669  -0.690   3.284  0.00  0.00    +0.160 A 
ATOM      5  C   LIG    1       -1.357  -0.575   3.709  0.00  0.00    -0.690 A 
ATOM      6  C   LIG    1       -0.620  -1.706   3.996  0.00  0.00    +0.210 A 
ENDROOT
BRANCH   1   8
ATOM      7  O   LIG    1        0.734  -4.086   4.537  0.00  0.00    -0.490 OA
ATOM      8  C   LIG    1       -0.417  -4.183   4.159  0.00  0.00    +0.560 C 
ATOM      9  N   LIG    1       -0.980  -5.400   4.018  0.00  0.00    -0.620 N 
ATOM     10  H   LIG    1       -1.899  -5.478   3.716  0.00  0.00    +0.420 HD
BRANCH   9  11
ATOM     11  C   LIG    1       -0.244  -6.543   4.306  0.00  0.00    +0.230 A 
ATOM     12  N   LIG    1       -0.688  -7.757   4.205  0.00  0.00    -0.510 NA
ATOM     13  C   LIG    1        0.149  -8.727   4.520  0.00  0.00    +0.240 A 
ATOM     14  C   LIG    1        1.358  -8.313   4.905  0.00  0.00    -0.130 A 
ATOM     15  S   LIG    1        1.381  -6.553   4.838  0.00  0.00    +0.250 S 
ENDBRANCH   9  11
ENDBRANCH   1   8
BRANCH   5  16
ATOM     16  S   LIG    1       -0.627   1.018   3.891  0.00  0.00    +2.690 S 
ATOM     17  O   LIG    1       -1.700   1.932   4.074  0.00  0.00    -0.940 OA
ATOM     18  O   LIG    1        0.435   0.870   4.823  0.00  0.00    -0.940 OA
BRANCH  16  19
ATOM     19  N   LIG    1        0.073   1.405   2.441  0.00  0.00    -1.100 NA
ATOM     20  H   LIG    1        1.036   1.505   2.379  0.00  0.00    +0.430 HD
BRANCH  19  21
ATOM     21  C   LIG    1       -0.761   1.596   1.252  0.00  0.00    +0.270 C 
ATOM     22  C   LIG    1       -0.013   1.086   0.008  0.00  0.00    +0.080 C 
ATOM     23  C   LIG    1       -0.790   1.613  -1.226  0.00  0.00    -0.300 C 
ATOM     24  S   LIG    1       -1.180   3.338  -0.744  0.00  0.00    +2.390 S 
ATOM     25  O   LIG    1       -2.525   3.633  -1.097  0.00  0.00    -0.930 OA
ATOM     26  O   LIG    1       -0.131   4.195  -1.172  0.00  0.00    -0.930 OA
ATOM     27  C   LIG    1       -1.064   3.096   1.066  0.00  0.00    -0.320 C 
ENDBRANCH  19  21
ENDBRANCH  16  19
ENDBRANCH   5  16
TORSDOF 5
