REMARK  Name = ZINCqH0000000oKc.0
REMARK                            x       y       z     vdW  Elec       q    Type
REMARK                         _______ _______ _______ _____ _____    ______ ____
ROOT
ATOM      1  S   LIG    1       -3.389   1.909  -1.499  0.00  0.00    +2.690 S 
ATOM      2  O   LIG    1       -3.852   3.063  -0.810  0.00  0.00    -0.950 OA
ATOM      3  O   LIG    1       -4.245   0.849  -1.902  0.00  0.00    -0.960 OA
ENDROOT
BRANCH   1  12
ATOM      4  C   LIG    1        0.139   5.706  -7.840  0.00  0.00    +0.120 C 
ATOM      5  C   LIG    1       -0.473   5.193  -6.562  0.00  0.00    +0.510 C 
ATOM      6  N   LIG    1       -0.715   3.875  -6.412  0.00  0.00    -0.560 N 
ATOM      7  C   LIG    1       -0.321   2.920  -7.456  0.00  0.00    +0.270 C 
ATOM      8  C   LIG    1       -1.490   1.950  -7.670  0.00  0.00    +0.030 C 
ATOM      9  C   LIG    1       -1.722   1.165  -6.379  0.00  0.00    +0.090 C 
ATOM     10  C   LIG    1       -1.845   2.101  -5.206  0.00  0.00    -0.140 A 
ATOM     11  C   LIG    1       -2.468   1.654  -4.054  0.00  0.00    +0.140 A 
ATOM     12  C   LIG    1       -2.592   2.488  -2.959  0.00  0.00    -0.700 A 
ATOM     13  C   LIG    1       -2.097   3.778  -3.010  0.00  0.00    +0.140 A 
ATOM     14  C   LIG    1       -1.469   4.230  -4.154  0.00  0.00    +0.000 A 
ATOM     15  C   LIG    1       -1.345   3.393  -5.256  0.00  0.00    +0.210 A 
ATOM     16  O   LIG    1       -0.748   5.965  -5.668  0.00  0.00    -0.510 OA
ENDBRANCH   1  12
BRANCH   1  17
ATOM     17  N   LIG    1       -2.222   1.229  -0.540  0.00  0.00    -1.110 NA
ATOM     18  H   LIG    1       -2.246   0.279  -0.347  0.00  0.00    +0.420 HD
BRANCH  17  19
ATOM     19  C   LIG    1       -1.154   2.063   0.017  0.00  0.00    +0.290 C 
ATOM     20  C   LIG    1       -1.514   2.463   1.449  0.00  0.00    +0.050 C 
BRANCH  19  21
ATOM     21  C   LIG    1        0.138   1.288   0.021  0.00  0.00    -0.060 A 
ATOM     22  C   LIG    1        0.116  -0.092   0.092  0.00  0.00    +0.020 A 
ATOM     23  C   LIG    1        1.301  -0.803   0.091  0.00  0.00    +0.030 A 
ATOM     24  C   LIG    1        2.509  -0.135   0.019  0.00  0.00    +0.020 A 
ATOM     25  C   LIG    1        2.532   1.245  -0.052  0.00  0.00    +0.050 A 
ATOM     26  C   LIG    1        1.347   1.958  -0.051  0.00  0.00    -0.090 A 
ATOM     27 BR   LIG    1        1.378   3.846  -0.148  0.00  0.00    -0.040 Br
ENDBRANCH  19  21
ENDBRANCH  17  19
ENDBRANCH   1  17
TORSDOF 4
