REMARK  Name = ZINCrg00000SjSA5.0
REMARK                            x       y       z     vdW  Elec       q    Type
REMARK                         _______ _______ _______ _____ _____    ______ ____
ROOT
ATOM      1  S   LIG    1       -1.762   3.773  -3.544  0.00  0.00    +2.700 S 
ATOM      2  O   LIG    1       -0.608   3.039  -3.928  0.00  0.00    -0.950 OA
ATOM      3  O   LIG    1       -1.899   5.172  -3.752  0.00  0.00    -0.950 OA
ENDROOT
BRANCH   1   4
ATOM      4  C   LIG    1       -3.128   3.013  -4.356  0.00  0.00    -0.670 A 
ATOM      5  C   LIG    1       -4.282   3.739  -4.590  0.00  0.00    +0.150 A 
ATOM      6  C   LIG    1       -5.359   3.150  -5.228  0.00  0.00    +0.020 A 
ATOM      7  C   LIG    1       -5.281   1.829  -5.635  0.00  0.00    +0.140 A 
ATOM      8  O   LIG    1       -6.329   1.235  -6.266  0.00  0.00    -0.300 OA
ATOM      9  C   LIG    1       -6.011   0.245  -7.247  0.00  0.00    +0.310 C 
ATOM     10  C   LIG    1       -4.968  -0.696  -6.698  0.00  0.00    +0.490 C 
ATOM     11  N   LIG    1       -4.054  -0.240  -5.814  0.00  0.00    -0.660 N 
ATOM     12  H   LIG    1       -3.363  -0.829  -5.472  0.00  0.00    +0.420 HD
ATOM     13  O   LIG    1       -4.950  -1.857  -7.048  0.00  0.00    -0.500 OA
ATOM     14  C   LIG    1       -4.118   1.097  -5.398  0.00  0.00    +0.080 A 
ATOM     15  C   LIG    1       -3.042   1.694  -4.764  0.00  0.00    +0.130 A 
ENDBRANCH   1   4
BRANCH   1  16
ATOM     16  N   LIG    1       -1.957   3.521  -1.919  0.00  0.00    -1.110 NA
ATOM     17  H   LIG    1       -2.106   4.274  -1.326  0.00  0.00    +0.420 HD
BRANCH  16  22
ATOM     18  C   LIG    1       -1.252   2.162   0.020  0.00  0.00    +0.260 C 
ATOM     19  O   LIG    1       -2.215   1.624   0.941  0.00  0.00    -0.340 OA
ATOM     20  C   LIG    1       -3.522   1.888   0.387  0.00  0.00    +0.220 C 
ATOM     21  C   LIG    1       -3.333   1.621  -1.128  0.00  0.00    +0.020 C 
ATOM     22  C   LIG    1       -1.904   2.161  -1.377  0.00  0.00    +0.250 C 
BRANCH  18  27
ATOM     23  N   LIG    1        1.258   1.751  -0.001  0.00  0.00    -0.450 N 
ATOM     24  C   LIG    1        2.075   0.653  -0.014  0.00  0.00    +0.140 A 
ATOM     25  C   LIG    1        1.274  -0.429  -0.012  0.00  0.00    +0.140 A 
ATOM     26  N   LIG    1        0.002  -0.004   0.002  0.00  0.00    -0.460 NA
ATOM     27  C   LIG    1       -0.016   1.301   0.009  0.00  0.00    +0.190 A 
BRANCH  23  29
ATOM     28  C   LIG    1        1.726   3.670   1.442  0.00  0.00    +0.040 C 
ATOM     29  C   LIG    1        1.684   3.153   0.003  0.00  0.00    +0.280 C 
ENDBRANCH  23  29
ENDBRANCH  18  27
ENDBRANCH  16  22
ENDBRANCH   1  16
TORSDOF 5
