REMARK  Name = ZINCrH00000No4v9.0
REMARK                            x       y       z     vdW  Elec       q    Type
REMARK                         _______ _______ _______ _____ _____    ______ ____
ROOT
ATOM      1  N   LIG    1        6.392   0.455  -0.157  0.00  0.00    -0.600 N 
ATOM      2  C   LIG    1        5.452  -0.439   0.208  0.00  0.00    +0.590 C 
ATOM      3  O   LIG    1        5.715  -1.627   0.223  0.00  0.00    -0.510 OA
ENDROOT
BRANCH   2   4
ATOM      4  C   LIG    1        4.114   0.019   0.586  0.00  0.00    +0.010 A 
ATOM      5  C   LIG    1        3.016  -0.784   0.792  0.00  0.00    +0.110 A 
ATOM      6  C   LIG    1        1.942   0.051   1.137  0.00  0.00    -0.260 A 
ATOM      7  C   LIG    1        2.396   1.359   1.138  0.00  0.00    +0.230 A 
ATOM      8  N   LIG    1        1.438   2.228   1.457  0.00  0.00    -0.470 NA
ATOM      9  C   LIG    1        0.267   1.764   1.712  0.00  0.00    +0.090 A 
ATOM     10  C   LIG    1       -0.924   2.611   2.082  0.00  0.00    +0.190 C 
ATOM     11  S   LIG    1        0.235   0.063   1.569  0.00  0.00    +0.160 S 
ATOM     12  N   LIG    1        3.738   1.330   0.797  0.00  0.00    -0.530 N 
ATOM     13  H   LIG    1        4.318   2.103   0.719  0.00  0.00    +0.430 HD
ENDBRANCH   2   4
BRANCH   1  14
ATOM     14  C   LIG    1        7.722  -0.005  -0.563  0.00  0.00    +0.350 C 
BRANCH  14  20
ATOM     15  C   LIG    1        8.467   1.667  -5.221  0.00  0.00    +0.080 C 
ATOM     16  C   LIG    1        8.094   0.552  -4.279  0.00  0.00    -0.090 A 
ATOM     17  C   LIG    1        7.764  -0.694  -4.779  0.00  0.00    +0.010 A 
ATOM     18  C   LIG    1        7.421  -1.717  -3.915  0.00  0.00    +0.000 A 
ATOM     19  C   LIG    1        7.412  -1.496  -2.550  0.00  0.00    +0.030 A 
ATOM     20  C   LIG    1        7.737  -0.248  -2.050  0.00  0.00    -0.110 A 
ATOM     21  C   LIG    1        8.080   0.775  -2.914  0.00  0.00    +0.010 A 
ENDBRANCH  14  20
ENDBRANCH   1  14
BRANCH   1  22
ATOM     22  C   LIG    1        6.084   1.887  -0.146  0.00  0.00    +0.310 C 
BRANCH  22  23
ATOM     23  C   LIG    1        6.235   2.431   1.276  0.00  0.00    -0.050 C 
ATOM     24  C   LIG    1        7.330   3.472   1.521  0.00  0.00    -0.040 C 
ATOM     25  C   LIG    1        7.787   3.718   2.976  0.00  0.00    +0.230 C 
ATOM     26  O   LIG    1        6.873   4.713   3.486  0.00  0.00    -0.370 OA
ATOM     27  C   LIG    1        5.576   4.339   2.973  0.00  0.00    +0.230 C 
ATOM     28  C   LIG    1        5.842   3.889   1.519  0.00  0.00    -0.060 C 
ENDBRANCH  22  23
ENDBRANCH   1  22
TORSDOF 5
