REMARK  Name = ZINCrg00000SjSIP.0
REMARK                            x       y       z     vdW  Elec       q    Type
REMARK                         _______ _______ _______ _____ _____    ______ ____
ROOT
ATOM      1  C   LIG    1        1.403   1.609  -0.004  0.00  0.00    +0.540 C 
ATOM      2  N   LIG    1        2.275   1.208   0.942  0.00  0.00    -0.620 N 
ATOM      3  C   LIG    1        2.041   0.276   2.071  0.00  0.00    +0.230 C 
ATOM      4  C   LIG    1        3.317  -0.597   2.115  0.00  0.00    +0.040 C 
ATOM      5  C   LIG    1        4.416   0.284   1.473  0.00  0.00    +0.030 C 
ATOM      6  C   LIG    1        1.997   1.107   3.356  0.00  0.00    +0.040 C 
ATOM      7  C   LIG    1        3.367   1.755   3.575  0.00  0.00    -0.010 C 
ATOM      8  C   LIG    1        3.774   2.537   2.322  0.00  0.00    +0.030 C 
ATOM      9  C   LIG    1        3.696   1.602   1.105  0.00  0.00    +0.240 C 
ATOM     10  O   LIG    1        1.755   2.389  -0.863  0.00  0.00    -0.510 OA
ENDROOT
BRANCH   1  11
ATOM     11  C   LIG    1       -0.011   1.087   0.006  0.00  0.00    +0.170 C 
ATOM     12  C   LIG    1       -0.728   1.580   1.265  0.00  0.00    +0.040 C 
BRANCH  11  13
ATOM     13  O   LIG    1       -0.702   1.561  -1.152  0.00  0.00    -0.350 OA
BRANCH  13  14
ATOM     14  C   LIG    1       -1.722   0.677  -1.622  0.00  0.00    +0.210 C 
BRANCH  14  16
ATOM     15  C   LIG    1       -2.614   0.526  -3.890  0.00  0.00    +0.030 C 
ATOM     16  C   LIG    1       -2.380   1.274  -2.839  0.00  0.00    -0.030 C 
ENDBRANCH  14  16
ENDBRANCH  13  14
ENDBRANCH  11  13
ENDBRANCH   1  11
BRANCH   7  17
ATOM     17  C   LIG    1        4.406   0.667   3.856  0.00  0.00    +0.260 C 
BRANCH  17  18
ATOM     18  N   LIG    1        5.716   1.287   4.069  0.00  0.00    -0.720 N 
ATOM     19  H   LIG    1        5.811   2.251   4.020  0.00  0.00    +0.400 HD
ATOM     20  C   LIG    1        6.791   0.517   4.334  0.00  0.00    +0.540 C 
ATOM     21  O   LIG    1        6.673  -0.688   4.396  0.00  0.00    -0.510 OA
BRANCH  20  22
ATOM     22  C   LIG    1        8.138   1.155   4.554  0.00  0.00    -0.440 C 
ATOM     23  C   LIG    1        9.255   0.254   3.990  0.00  0.00    +0.100 C 
ATOM     24  C   LIG    1       10.508   0.411   4.869  0.00  0.00    +0.080 C 
ATOM     25  C   LIG    1       10.034   0.295   6.341  0.00  0.00    -0.300 C 
ATOM     26  S   LIG    1        8.493   1.289   6.343  0.00  0.00    +2.400 S 
ATOM     27  O   LIG    1        7.490   0.599   7.076  0.00  0.00    -0.920 OA
ATOM     28  O   LIG    1        8.804   2.638   6.662  0.00  0.00    -0.920 OA
ENDBRANCH  20  22
ENDBRANCH  17  18
ENDBRANCH   7  17
TORSDOF 7
