REMARK  Name = ZINCtV000002POM3.0
REMARK                            x       y       z     vdW  Elec       q    Type
REMARK                         _______ _______ _______ _____ _____    ______ ____
ROOT
ATOM      1  O   LIG    1       -1.040  -0.640   0.008  0.00  0.00    -0.470 OA
ATOM      2  C   LIG    1        0.002  -0.004   0.002  0.00  0.00    +0.540 A 
ATOM      3  N   LIG    1        1.188  -0.635  -0.013  0.00  0.00    -0.550 NA
ATOM      4  C   LIG    1        2.310   0.028  -0.020  0.00  0.00    +0.460 A 
ATOM      5  N   LIG    1        2.357   1.369  -0.013  0.00  0.00    -0.580 N 
ATOM      6  H   LIG    1        3.218   1.817  -0.020  0.00  0.00    +0.420 HD
ATOM      7  C   LIG    1        1.202   2.122   0.002  0.00  0.00    +0.060 A 
ATOM      8  S   LIG    1        0.956   3.862   0.014  0.00  0.00    +0.200 S 
ATOM      9  C   LIG    1       -0.788   3.686   0.029  0.00  0.00    -0.040 A 
ATOM     10  C   LIG    1       -1.139   2.400   0.020  0.00  0.00    +0.010 A 
ATOM     11  C   LIG    1       -0.018   1.471   0.010  0.00  0.00    -0.220 A 
ENDROOT
BRANCH  10  12
ATOM     12  C   LIG    1       -2.553   1.953   0.023  0.00  0.00    -0.040 A 
ATOM     13  C   LIG    1       -2.991   1.013  -0.909  0.00  0.00    +0.080 A 
ATOM     14  C   LIG    1       -4.306   0.596  -0.898  0.00  0.00    +0.030 A 
ATOM     15  C   LIG    1       -5.193   1.118   0.028  0.00  0.00    -0.030 A 
ATOM     16  C   LIG    1       -4.764   2.056   0.952  0.00  0.00    +0.020 A 
ATOM     17 CL   LIG    1       -6.848   0.594   0.032  0.00  0.00    -0.070 Cl
ATOM     18  C   LIG    1       -3.450   2.475   0.953  0.00  0.00    +0.040 A 
ENDBRANCH  10  12
BRANCH   4  19
ATOM     19  C   LIG    1        3.606  -0.741  -0.036  0.00  0.00    +0.160 C 
BRANCH  19  20
ATOM     20  S   LIG    1        3.252  -2.520  -0.043  0.00  0.00    -0.110 S 
BRANCH  20  21
ATOM     21  C   LIG    1        4.906  -3.265  -0.062  0.00  0.00    +0.070 C 
BRANCH  21  22
ATOM     22  C   LIG    1        4.779  -4.790  -0.069  0.00  0.00    +0.240 C 
BRANCH  22  23
ATOM     23  O   LIG    1        6.082  -5.376  -0.085  0.00  0.00    -0.310 OA
BRANCH  23  24
ATOM     24  C   LIG    1        6.147  -6.734  -0.093  0.00  0.00    +0.150 A 
ATOM     25  C   LIG    1        4.982  -7.486  -0.080  0.00  0.00    -0.060 A 
ATOM     26  C   LIG    1        5.050  -8.865  -0.092  0.00  0.00    +0.090 A 
ATOM     27  C   LIG    1        6.281  -9.497  -0.108  0.00  0.00    -0.130 A 
ATOM     28  C   LIG    1        7.445  -8.750  -0.116  0.00  0.00    +0.090 A 
ATOM     29 BR   LIG    1        6.372 -11.386  -0.118  0.00  0.00    -0.050 Br
ATOM     30  C   LIG    1        7.380  -7.370  -0.108  0.00  0.00    -0.010 A 
ENDBRANCH  23  24
ENDBRANCH  22  23
ENDBRANCH  21  22
ENDBRANCH  20  21
ENDBRANCH  19  20
ENDBRANCH   4  19
TORSDOF 7
