REMARK  Name = ZINCrg000000oUPA.0
REMARK                            x       y       z     vdW  Elec       q    Type
REMARK                         _______ _______ _______ _____ _____    ______ ____
ROOT
ATOM      1  C   LIG    1        1.051   1.775  -0.176  0.00  0.00    +0.510 C 
ATOM      2  N   LIG    1       -0.011   0.966   0.007  0.00  0.00    -0.660 N 
ATOM      3  H   LIG    1        0.121   0.012   0.125  0.00  0.00    +0.420 HD
ATOM      4  O   LIG    1        0.882   2.951  -0.420  0.00  0.00    -0.510 OA
ENDROOT
BRANCH   2   5
ATOM      5  C   LIG    1       -1.306   1.501   0.022  0.00  0.00    +0.150 A 
ATOM      6  C   LIG    1       -2.370   0.757  -0.474  0.00  0.00    +0.010 A 
ATOM      7  C   LIG    1       -3.648   1.279  -0.461  0.00  0.00    +0.060 A 
ATOM      8  C   LIG    1       -3.872   2.549   0.047  0.00  0.00    +0.080 A 
ATOM      9  N   LIG    1       -5.016   3.332   0.192  0.00  0.00    -0.640 N 
ATOM     10  H   LIG    1       -5.916   3.077  -0.066  0.00  0.00    +0.440 HD
ATOM     11  C   LIG    1       -4.660   4.503   0.753  0.00  0.00    +0.690 A 
ATOM     12  N   LIG    1       -3.333   4.514   0.977  0.00  0.00    -0.640 N 
ATOM     13  H   LIG    1       -2.830   5.243   1.373  0.00  0.00    +0.440 HD
ATOM     14  O   LIG    1       -5.423   5.415   1.016  0.00  0.00    -0.550 OA
ATOM     15  C   LIG    1       -2.804   3.300   0.545  0.00  0.00    +0.110 A 
ATOM     16  C   LIG    1       -1.524   2.771   0.536  0.00  0.00    +0.030 A 
ENDBRANCH   2   5
BRANCH   1  17
ATOM     17  C   LIG    1        2.448   1.219  -0.077  0.00  0.00    +0.310 C 
BRANCH  17  19
ATOM     18  C   LIG    1        4.739   2.025  -0.276  0.00  0.00    +0.520 C 
ATOM     19  N   LIG    1        3.418   2.291  -0.314  0.00  0.00    -0.720 N 
ATOM     20  H   LIG    1        3.110   3.192  -0.499  0.00  0.00    +0.410 HD
ATOM     21  O   LIG    1        5.124   0.898  -0.045  0.00  0.00    -0.520 OA
BRANCH  18  22
ATOM     22  C   LIG    1        5.737   3.127  -0.519  0.00  0.00    +0.220 C 
BRANCH  22  24
ATOM     23  C   LIG    1        7.362   1.629  -1.507  0.00  0.00    +0.190 C 
ATOM     24  N   LIG    1        7.099   2.585  -0.423  0.00  0.00    -0.520 NA
BRANCH  24  25
ATOM     25  C   LIG    1        8.096   3.664  -0.418  0.00  0.00    +0.230 C 
BRANCH  25  26
ATOM     26  C   LIG    1        9.449   3.096  -0.075  0.00  0.00    -0.080 A 
ATOM     27  C   LIG    1        9.857   3.034   1.245  0.00  0.00    +0.020 A 
ATOM     28  C   LIG    1       11.096   2.508   1.560  0.00  0.00    +0.000 A 
ATOM     29  C   LIG    1       11.931   2.055   0.556  0.00  0.00    +0.000 A 
ATOM     30  C   LIG    1       11.525   2.122  -0.763  0.00  0.00    +0.000 A 
ATOM     31  C   LIG    1       10.284   2.642  -1.079  0.00  0.00    +0.010 A 
ENDBRANCH  25  26
ENDBRANCH  24  25
ENDBRANCH  22  24
ENDBRANCH  18  22
ENDBRANCH  17  19
ENDBRANCH   1  17
TORSDOF 7
