REMARK  Name = ZINCqH0000003ws7.0
REMARK                            x       y       z     vdW  Elec       q    Type
REMARK                         _______ _______ _______ _____ _____    ______ ____
ROOT
ATOM      1  C   LIG    1        1.163   3.944   9.237  0.00  0.00    +0.310 C 
ATOM      2  C   LIG    1        0.161   4.310  10.335  0.00  0.00    +0.040 C 
ENDROOT
BRANCH   1   9
ATOM      3  C   LIG    1       -2.727   2.054   4.599  0.00  0.00    +0.150 C 
ATOM      4  C   LIG    1       -2.602   1.029   5.728  0.00  0.00    +0.000 C 
ATOM      5  C   LIG    1       -1.136   0.933   6.164  0.00  0.00    +0.300 C 
ATOM      6  N   LIG    1       -0.658   2.277   6.514  0.00  0.00    -0.630 N 
ATOM      7  C   LIG    1       -0.814   3.360   5.534  0.00  0.00    +0.270 C 
ATOM      8  C   LIG    1       -0.088   2.513   7.712  0.00  0.00    +0.710 C 
ATOM      9  N   LIG    1        0.448   3.721   7.978  0.00  0.00    -0.740 N 
ATOM     10  H   LIG    1        0.359   4.442   7.336  0.00  0.00    +0.390 HD
ATOM     11  O   LIG    1       -0.056   1.635   8.554  0.00  0.00    -0.590 OA
ATOM     12  C   LIG    1       -2.283   3.429   5.104  0.00  0.00    +0.030 C 
BRANCH   3  13
ATOM     13  O   LIG    1       -4.088   2.123   4.168  0.00  0.00    -0.380 OA
BRANCH  13  15
ATOM     14  C   LIG    1       -5.884   1.372   2.736  0.00  0.00    +0.040 C 
ATOM     15  C   LIG    1       -4.410   1.212   3.115  0.00  0.00    +0.160 C 
ENDBRANCH  13  15
ENDBRANCH   3  13
ENDBRANCH   1   9
BRANCH   1  16
ATOM     16  C   LIG    1        2.149   5.070   9.062  0.00  0.00    -0.090 A 
ATOM     17  C   LIG    1        1.798   6.185   8.324  0.00  0.00    +0.010 A 
ATOM     18  C   LIG    1        2.700   7.221   8.160  0.00  0.00    -0.030 A 
ATOM     19  C   LIG    1        3.957   7.143   8.736  0.00  0.00    +0.110 A 
ATOM     20  C   LIG    1        4.310   6.020   9.479  0.00  0.00    +0.100 A 
ATOM     21  C   LIG    1        3.400   4.989   9.644  0.00  0.00    -0.020 A 
BRANCH  20  22
ATOM     22  O   LIG    1        5.543   5.939  10.047  0.00  0.00    -0.300 OA
ATOM     23  C   LIG    1        5.836   4.757  10.796  0.00  0.00    +0.240 C 
ENDBRANCH  20  22
BRANCH  19  24
ATOM     24  O   LIG    1        4.844   8.161   8.576  0.00  0.00    -0.300 OA
BRANCH  24  25
ATOM     25  C   LIG    1        4.381   9.322   7.884  0.00  0.00    +0.140 C 
ATOM     26  C   LIG    1        5.575  10.065   7.280  0.00  0.00    +0.070 C 
ATOM     27  C   LIG    1        3.650  10.242   8.864  0.00  0.00    +0.020 C 
ENDBRANCH  24  25
ENDBRANCH  19  24
ENDBRANCH   1  16
TORSDOF 7
