REMARK  Name = ZINCpk00000kKIq3.0
REMARK                            x       y       z     vdW  Elec       q    Type
REMARK                         _______ _______ _______ _____ _____    ______ ____
ROOT
ATOM      1  C   LIG    1       -1.052   4.867   0.038  0.00  0.00    +0.600 C 
ATOM      2  N   LIG    1       -2.385   5.049  -0.050  0.00  0.00    -0.610 N 
ATOM      3  C   LIG    1       -3.307   3.902  -0.056  0.00  0.00    +0.250 C 
ATOM      4  C   LIG    1       -4.395   4.157   0.999  0.00  0.00    +0.220 C 
ATOM      5  O   LIG    1       -4.979   5.441   0.768  0.00  0.00    -0.360 OA
ATOM      6  C   LIG    1       -4.066   6.533   0.904  0.00  0.00    +0.090 C 
ATOM      7  C   LIG    1       -3.445   6.510   2.301  0.00  0.00    +0.040 C 
ATOM      8  C   LIG    1       -2.961   6.399  -0.150  0.00  0.00    +0.280 C 
ATOM      9  O   LIG    1       -0.313   5.828   0.141  0.00  0.00    -0.520 OA
ENDROOT
BRANCH   1  12
ATOM     10  C   LIG    1        1.376   3.979   1.649  0.00  0.00    +0.120 C 
ATOM     11  C   LIG    1        0.594   3.088   0.719  0.00  0.00    -0.020 A 
ATOM     12  C   LIG    1       -0.493   3.513   0.008  0.00  0.00    -0.280 A 
ATOM     13  S   LIG    1       -1.109   2.176  -0.954  0.00  0.00    +0.210 S 
ATOM     14  C   LIG    1        0.097   1.128  -0.356  0.00  0.00    -0.060 A 
ATOM     15  C   LIG    1        0.902   1.766   0.502  0.00  0.00    +0.000 A 
ENDBRANCH   1  12
BRANCH   6  16
ATOM     16  C   LIG    1       -4.812   7.852   0.697  0.00  0.00    +0.310 C 
BRANCH  16  17
ATOM     17  N   LIG    1       -5.788   8.035   1.775  0.00  0.00    -0.730 N 
ATOM     18  H   LIG    1       -5.874   7.365   2.470  0.00  0.00    +0.400 HD
ATOM     19  C   LIG    1       -6.565   9.136   1.800  0.00  0.00    +0.510 C 
ATOM     20  O   LIG    1       -6.457   9.975   0.930  0.00  0.00    -0.520 OA
BRANCH  19  21
ATOM     21  C   LIG    1       -7.569   9.324   2.908  0.00  0.00    +0.180 C 
BRANCH  21  22
ATOM     22  N   LIG    1       -8.285  10.591   2.710  0.00  0.00    -0.450 NA
ATOM     23  C   LIG    1       -9.513  10.386   1.919  0.00  0.00    +0.160 C 
ATOM     24  C   LIG    1      -10.223  11.359   2.872  0.00  0.00    +0.030 C 
ATOM     25  C   LIG    1       -9.148  10.897   3.867  0.00  0.00    +0.120 C 
ATOM     26  C   LIG    1       -9.552   9.659   4.670  0.00  0.00    +0.020 C 
ENDBRANCH  21  22
ENDBRANCH  19  21
ENDBRANCH  16  17
ENDBRANCH   6  16
TORSDOF 5
