REMARK  Name = ZINCrD000000AnwQ.0
REMARK                            x       y       z     vdW  Elec       q    Type
REMARK                         _______ _______ _______ _____ _____    ______ ____
ROOT
ATOM      1  O   LIG    1        0.292   9.067  -5.390  0.00  0.00    -0.540 OA
ATOM      2  C   LIG    1        0.202   9.998  -4.619  0.00  0.00    +0.510 C 
ATOM      3  N   LIG    1       -0.051  11.237  -5.085  0.00  0.00    -0.720 N 
ATOM      4  H   LIG    1       -0.123  11.982  -4.468  0.00  0.00    +0.400 HD
ENDROOT
BRANCH   3   5
ATOM      5  C   LIG    1       -0.217  11.459  -6.524  0.00  0.00    +0.270 C 
BRANCH   5   6
ATOM      6  C   LIG    1       -0.366  12.957  -6.795  0.00  0.00    +0.030 C 
ATOM      7  C   LIG    1        0.912  13.676  -6.368  0.00  0.00    +0.020 C 
ATOM      8  C   LIG    1        0.832  15.131  -6.844  0.00  0.00    +0.020 C 
ATOM      9  C   LIG    1        0.949  15.146  -8.367  0.00  0.00    +0.080 C 
ATOM     10  C   LIG    1       -0.031  14.182  -8.983  0.00  0.00    -0.070 A 
ATOM     11  C   LIG    1       -0.323  14.331 -10.332  0.00  0.00    +0.000 A 
ATOM     12  C   LIG    1       -1.204  13.472 -10.958  0.00  0.00    +0.000 A 
ATOM     13  C   LIG    1       -1.800  12.456 -10.236  0.00  0.00    +0.000 A 
ATOM     14  C   LIG    1       -1.513  12.308  -8.895  0.00  0.00    +0.000 A 
ATOM     15  C   LIG    1       -0.629  13.172  -8.263  0.00  0.00    -0.070 A 
ENDBRANCH   5   6
ENDBRANCH   3   5
BRANCH   2  16
ATOM     16  C   LIG    1        0.373   9.770  -3.139  0.00  0.00    +0.320 C 
BRANCH  16  17
ATOM     17  N   LIG    1        0.637   8.351  -2.891  0.00  0.00    -0.740 N 
ATOM     18  H   LIG    1        0.677   7.728  -3.633  0.00  0.00    +0.410 HD
ATOM     19  C   LIG    1        0.825   7.911  -1.631  0.00  0.00    +0.710 C 
ATOM     20  N   LIG    1        1.068   6.605  -1.402  0.00  0.00    -0.740 N 
ATOM     21  H   LIG    1        1.108   5.982  -2.145  0.00  0.00    +0.400 HD
ATOM     22  O   LIG    1        0.775   8.691  -0.700  0.00  0.00    -0.590 OA
BRANCH  20  23
ATOM     23  C   LIG    1        1.272   6.126  -0.033  0.00  0.00    +0.340 C 
BRANCH  23  24
ATOM     24  C   LIG    1        1.524   4.641  -0.052  0.00  0.00    -0.110 A 
ATOM     25  C   LIG    1        2.815   4.160  -0.166  0.00  0.00    +0.050 A 
ATOM     26  C   LIG    1        3.047   2.798  -0.184  0.00  0.00    +0.030 A 
ATOM     27  C   LIG    1        1.986   1.915  -0.088  0.00  0.00    -0.030 A 
ATOM     28  C   LIG    1        0.693   2.396   0.020  0.00  0.00    +0.030 A 
ATOM     29 CL   LIG    1        2.276   0.203  -0.111  0.00  0.00    -0.070 Cl
ATOM     30  C   LIG    1        0.464   3.759   0.043  0.00  0.00    +0.050 A 
ENDBRANCH  23  24
ENDBRANCH  20  23
ENDBRANCH  16  17
ENDBRANCH   2  16
TORSDOF 6
