REMARK  Name = ZINCzw00000003Vi.1
REMARK                            x       y       z     vdW  Elec       q    Type
REMARK                         _______ _______ _______ _____ _____    ______ ____
ROOT
ATOM      1  N   LIG    1       -1.806   9.054  -1.265  0.00  0.00    -0.370 N 
ATOM      2  C   LIG    1       -0.826   9.161  -2.353  0.00  0.00    +0.280 C 
ATOM      3  C   LIG    1        0.108   7.949  -2.324  0.00  0.00    +0.110 C 
ATOM      4  C   LIG    1        0.840   7.908  -0.979  0.00  0.00    +0.210 C 
ATOM      5  C   LIG    1       -0.193   7.872   0.152  0.00  0.00    +0.070 C 
ATOM      6  C   LIG    1       -1.116   9.086   0.031  0.00  0.00    +0.280 C 
ATOM      7  H   LIG    1       -2.311   8.185  -1.353  0.00  0.00    +0.430 HD
ENDROOT
BRANCH   4   8
ATOM      8  C   LIG    1        1.703   6.675  -0.912  0.00  0.00    +0.090 A 
ATOM      9  N   LIG    1        1.826   5.773  -1.837  0.00  0.00    -0.250 NA
ATOM     10  O   LIG    1        2.725   4.770  -1.409  0.00  0.00    -0.070 OA
ATOM     11  C   LIG    1        3.171   5.069  -0.172  0.00  0.00    +0.120 A 
ATOM     12  C   LIG    1        4.049   4.443   0.704  0.00  0.00    +0.000 A 
ATOM     13  C   LIG    1        4.311   5.011   1.935  0.00  0.00    +0.180 A 
ATOM     14  C   LIG    1        3.699   6.201   2.308  0.00  0.00    -0.010 A 
ATOM     15  C   LIG    1        2.836   6.833   1.458  0.00  0.00    +0.120 A 
ATOM     16  F   LIG    1        5.165   4.401   2.786  0.00  0.00    -0.110 F 
ATOM     17  C   LIG    1        2.559   6.275   0.208  0.00  0.00    -0.210 A 
ENDBRANCH   4   8
BRANCH   4  18
ATOM     18  O   LIG    1        1.658   9.072  -0.844  0.00  0.00    -0.530 OA
ATOM     19  H   LIG    1        2.149   9.113  -0.012  0.00  0.00    +0.390 HD
ENDBRANCH   4  18
BRANCH   1  20
ATOM     20  C   LIG    1       -2.748  10.178  -1.344  0.00  0.00    +0.290 C 
BRANCH  20  26
ATOM     21  N   LIG    1       -5.318  13.397  -4.148  0.00  0.00    -0.530 NA
ATOM     22  C   LIG    1       -5.027  12.232  -4.994  0.00  0.00    +0.180 C 
ATOM     23  C   LIG    1       -5.222  10.950  -4.178  0.00  0.00    +0.300 C 
ATOM     24  N   LIG    1       -4.413  11.047  -2.954  0.00  0.00    -0.590 N 
ATOM     25  C   LIG    1       -4.554  12.251  -2.120  0.00  0.00    +0.290 C 
ATOM     26  C   LIG    1       -3.568  10.058  -2.603  0.00  0.00    +0.500 C 
ATOM     27  O   LIG    1       -3.468   9.070  -3.300  0.00  0.00    -0.530 OA
ATOM     28  C   LIG    1       -4.380  13.484  -3.021  0.00  0.00    +0.170 C 
BRANCH  21  29
ATOM     29  C   LIG    1       -5.309  14.636  -4.937  0.00  0.00    +0.240 C 
BRANCH  29  33
ATOM     30  C   LIG    1       -6.835  17.846  -2.564  0.00  0.00    +0.130 A 
ATOM     31  C   LIG    1       -5.477  17.564  -2.560  0.00  0.00    -0.020 A 
ATOM     32  C   LIG    1       -4.986  16.526  -3.328  0.00  0.00    +0.040 A 
ATOM     33  C   LIG    1       -5.847  15.768  -4.100  0.00  0.00    -0.130 A 
ATOM     34  C   LIG    1       -7.201  16.051  -4.110  0.00  0.00    +0.080 A 
ATOM     35  C   LIG    1       -7.697  17.084  -3.339  0.00  0.00    -0.080 A 
BRANCH  30  37
ATOM     36  C   LIG    1       -8.730  19.099  -1.861  0.00  0.00    +0.250 C 
ATOM     37  O   LIG    1       -7.321  18.866  -1.809  0.00  0.00    -0.320 OA
ENDBRANCH  30  37
ENDBRANCH  29  33
ENDBRANCH  21  29
ENDBRANCH  20  26
ENDBRANCH   1  20
TORSDOF 7
