REMARK  Name = ZINCpe00000yO2fB.0
REMARK                            x       y       z     vdW  Elec       q    Type
REMARK                         _______ _______ _______ _____ _____    ______ ____
ROOT
ATOM      1  C   LIG    1        2.489   1.017   0.558  0.00  0.00    +0.210 C 
ATOM      2  C   LIG    1        2.348   1.238  -0.950  0.00  0.00    +0.030 C 
ATOM      3  C   LIG    1        1.248   1.716  -0.001  0.00  0.00    +0.230 C 
ENDROOT
BRANCH   1   5
ATOM      4  C   LIG    1        4.277   1.283   2.192  0.00  0.00    +0.580 C 
ATOM      5  N   LIG    1        3.465   1.843   1.274  0.00  0.00    -0.680 N 
ATOM      6  H   LIG    1        3.527   2.793   1.087  0.00  0.00    +0.420 HD
ATOM      7  O   LIG    1        4.199   0.093   2.427  0.00  0.00    -0.510 OA
BRANCH   4  12
ATOM      8  C   LIG    1        6.237   4.170   3.314  0.00  0.00    +0.500 A 
ATOM      9  N   LIG    1        7.053   3.660   4.224  0.00  0.00    -0.550 NA
ATOM     10  C   LIG    1        7.017   2.374   4.524  0.00  0.00    +0.380 A 
ATOM     11  C   LIG    1        6.106   1.552   3.875  0.00  0.00    -0.040 A 
ATOM     12  C   LIG    1        5.265   2.119   2.918  0.00  0.00    +0.170 A 
ATOM     13  N   LIG    1        5.359   3.423   2.670  0.00  0.00    -0.510 NA
BRANCH   8  15
ATOM     14  C   LIG    1        7.272   6.260   3.759  0.00  0.00    +0.290 C 
ATOM     15  O   LIG    1        6.306   5.495   3.036  0.00  0.00    -0.290 OA
ENDBRANCH   8  15
ENDBRANCH   4  12
ENDBRANCH   1   5
BRANCH   3  16
ATOM     16  N   LIG    1       -0.011   0.966   0.007  0.00  0.00    -0.690 N 
ATOM     17  H   LIG    1        0.002  -0.004   0.002  0.00  0.00    +0.410 HD
ATOM     18  C   LIG    1       -1.187   1.624   0.017  0.00  0.00    +0.610 C 
ATOM     19  O   LIG    1       -1.204   2.840   0.023  0.00  0.00    -0.530 OA
BRANCH  18  20
ATOM     20  C   LIG    1       -2.454   0.870   0.018  0.00  0.00    -0.270 A 
ATOM     21  C   LIG    1       -3.739   1.354   0.027  0.00  0.00    +0.070 A 
ATOM     22  O   LIG    1       -4.542   0.288   0.024  0.00  0.00    +0.100 OA
ATOM     23  N   LIG    1       -3.942  -0.759   0.015  0.00  0.00    -0.350 NA
ATOM     24  C   LIG    1       -2.653  -0.588   0.005  0.00  0.00    +0.220 A 
BRANCH  21  25
ATOM     25  C   LIG    1       -4.159   2.801   0.038  0.00  0.00    +0.100 C 
ATOM     26  C   LIG    1       -4.988   3.083   1.292  0.00  0.00    +0.040 C 
ATOM     27  C   LIG    1       -4.999   3.098  -1.206  0.00  0.00    +0.040 C 
ENDBRANCH  21  25
ENDBRANCH  18  20
ENDBRANCH   3  16
TORSDOF 6
