REMARK  Name = ZINCrH00000No4z2.0
REMARK                            x       y       z     vdW  Elec       q    Type
REMARK                         _______ _______ _______ _____ _____    ______ ____
ROOT
ATOM      1  N   LIG    1        1.355   2.034  -0.001  0.00  0.00    -0.490 N 
ATOM      2  C   LIG    1       -0.022   1.524   0.005  0.00  0.00    +0.190 C 
ATOM      3  C   LIG    1        0.004  -0.008  -0.001  0.00  0.00    +0.300 C 
ATOM      4  N   LIG    1        0.842  -0.466   1.118  0.00  0.00    -0.610 N 
ATOM      5  C   LIG    1        2.190   0.106   1.257  0.00  0.00    +0.290 C 
ATOM      6  C   LIG    1        0.386  -1.384   1.993  0.00  0.00    +0.560 C 
ATOM      7  O   LIG    1       -0.765  -1.776   1.920  0.00  0.00    -0.540 OA
ATOM      8  C   LIG    1        2.078   1.634   1.214  0.00  0.00    +0.190 C 
ENDROOT
BRANCH   1  13
ATOM      9  C   LIG    1        2.600   5.478  -0.351  0.00  0.00    +0.150 A 
ATOM     10  C   LIG    1        1.406   6.174  -0.476  0.00  0.00    -0.100 A 
ATOM     11  C   LIG    1        0.202   5.496  -0.443  0.00  0.00    +0.080 A 
ATOM     12  C   LIG    1        0.182   4.124  -0.286  0.00  0.00    -0.080 A 
ATOM     13  C   LIG    1        1.375   3.422  -0.160  0.00  0.00    +0.150 A 
ATOM     14  C   LIG    1        2.584   4.101  -0.187  0.00  0.00    -0.040 A 
BRANCH   9  16
ATOM     15  C   LIG    1        3.723   7.564  -0.549  0.00  0.00    +0.250 C 
ATOM     16  O   LIG    1        3.783   6.146  -0.383  0.00  0.00    -0.320 OA
ENDBRANCH   9  16
ENDBRANCH   1  13
BRANCH   6  17
ATOM     17  C   LIG    1        1.246  -1.894   2.995  0.00  0.00    -0.090 C 
ATOM     18  C   LIG    1        0.820  -2.890   3.811  0.00  0.00    +0.170 C 
BRANCH  18  19
ATOM     19  C   LIG    1        1.679  -3.400   4.814  0.00  0.00    -0.020 A 
ATOM     20  C   LIG    1        2.970  -2.983   5.068  0.00  0.00    +0.010 A 
ATOM     21  C   LIG    1        3.435  -3.756   6.143  0.00  0.00    -0.050 A 
ATOM     22  C   LIG    1        2.438  -4.600   6.489  0.00  0.00    +0.050 A 
ATOM     23  O   LIG    1        1.384  -4.384   5.689  0.00  0.00    -0.160 OA
BRANCH  22  24
ATOM     24  C   LIG    1        2.501  -5.620   7.596  0.00  0.00    +0.050 C 
ATOM     25  C   LIG    1        1.346  -6.619   7.704  0.00  0.00    +0.050 C 
ATOM     26  C   LIG    1        1.483  -5.494   8.732  0.00  0.00    -0.030 C 
ATOM     27  C   LIG    1        1.944  -5.876  10.140  0.00  0.00    +0.060 C 
ENDBRANCH  22  24
ENDBRANCH  18  19
ENDBRANCH   6  17
TORSDOF 5
