REMARK  Name = ZINCvU0000000JoE.0
REMARK                            x       y       z     vdW  Elec       q    Type
REMARK                         _______ _______ _______ _____ _____    ______ ____
ROOT
ATOM      1  P   LIG    1       -2.155   5.531   0.474  0.00  0.00    +2.680 P 
ATOM      2  N   LIG    1       -2.348   4.091   1.024  0.00  0.00    -1.170 NA
ENDROOT
BRANCH   1   7
ATOM      3  C   LIG    1        2.020   7.413   3.210  0.00  0.00    +0.180 C 
ATOM      4  C   LIG    1        0.600   7.238   2.736  0.00  0.00    +0.030 A 
ATOM      5  C   LIG    1       -0.469   7.923   3.182  0.00  0.00    -0.070 A 
ATOM      6  C   LIG    1       -1.591   7.441   2.470  0.00  0.00    +0.040 A 
ATOM      7  C   LIG    1       -1.141   6.490   1.632  0.00  0.00    -0.660 A 
ATOM      8  O   LIG    1        0.186   6.368   1.801  0.00  0.00    -0.130 OA
ENDBRANCH   1   7
BRANCH   2   9
ATOM      9  C   LIG    1       -3.000   3.897   2.160  0.00  0.00    +0.330 A 
ATOM     10  C   LIG    1       -3.638   4.982   2.814  0.00  0.00    -0.170 A 
ATOM     11  C   LIG    1       -4.305   4.767   3.984  0.00  0.00    +0.090 A 
ATOM     12  C   LIG    1       -4.364   3.493   4.534  0.00  0.00    -0.100 A 
ATOM     13  C   LIG    1       -3.745   2.420   3.906  0.00  0.00    +0.100 A 
ATOM     14  C   LIG    1       -3.064   2.604   2.739  0.00  0.00    -0.260 A 
BRANCH  14  15
ATOM     15  C   LIG    1       -2.389   1.438   2.064  0.00  0.00    +0.530 C 
ATOM     16  F   LIG    1       -1.016   1.688   1.964  0.00  0.00    -0.180 F 
ATOM     17  F   LIG    1       -2.925   1.265   0.784  0.00  0.00    -0.180 F 
ATOM     18  F   LIG    1       -2.597   0.278   2.817  0.00  0.00    -0.190 F 
ENDBRANCH  14  15
ENDBRANCH   2   9
BRANCH   1  19
ATOM     19  C   LIG    1       -1.323   5.457  -1.146  0.00  0.00    -0.680 C 
ATOM     20  C   LIG    1       -0.975   6.874  -1.606  0.00  0.00    +0.050 C 
ATOM     21  C   LIG    1       -2.254   4.803  -2.169  0.00  0.00    +0.100 C 
ATOM     22  C   LIG    1       -0.041   4.631  -1.023  0.00  0.00    +0.080 C 
ENDBRANCH   1  19
BRANCH   1  23
ATOM     23  O   LIG    1       -3.592   6.237   0.306  0.00  0.00    -0.700 OA
BRANCH  23  24
ATOM     24  C   LIG    1       -3.755   7.555  -0.222  0.00  0.00    +0.230 C 
BRANCH  24  25
ATOM     25  C   LIG    1       -5.213   7.991  -0.066  0.00  0.00    +0.210 C 
BRANCH  25  26
ATOM     26  N   LIG    1       -5.558   8.047   1.361  0.00  0.00    -0.530 NA
ATOM     27  C   LIG    1       -7.014   7.991   1.554  0.00  0.00    +0.150 C 
ATOM     28  C   LIG    1       -7.325   7.991   3.054  0.00  0.00    +0.230 C 
ATOM     29  O   LIG    1       -6.742   9.150   3.656  0.00  0.00    -0.380 OA
ATOM     30  C   LIG    1       -5.325   9.236   3.487  0.00  0.00    +0.220 C 
ATOM     31  C   LIG    1       -4.994   9.248   1.993  0.00  0.00    +0.140 C 
ENDBRANCH  25  26
ENDBRANCH  24  25
ENDBRANCH  23  24
ENDBRANCH   1  23
TORSDOF 8
