REMARK  Name = ZINCnE00000hdaJi.0
REMARK                            x       y       z     vdW  Elec       q    Type
REMARK                         _______ _______ _______ _____ _____    ______ ____
ROOT
ATOM      1  C   LIG    1       -1.208   3.061   1.467  0.00  0.00    +0.080 C 
ATOM      2  C   LIG    1       -1.989   3.592   0.263  0.00  0.00    +0.030 C 
ATOM      3  C   LIG    1       -1.293   4.838  -0.290  0.00  0.00    +0.020 C 
ATOM      4  C   LIG    1        0.118   4.465  -0.755  0.00  0.00    +0.280 C 
ATOM      5  N   LIG    1        0.828   3.821   0.358  0.00  0.00    -0.610 N 
ATOM      6  C   LIG    1        2.030   4.278   0.763  0.00  0.00    +0.610 C 
ATOM      7  O   LIG    1        2.566   5.191   0.165  0.00  0.00    -0.530 OA
ATOM      8  C   LIG    1        0.204   2.668   1.022  0.00  0.00    +0.290 C 
ENDROOT
BRANCH   1  12
ATOM      9  C   LIG    1       -2.960   0.629   3.564  0.00  0.00    +0.070 A 
ATOM     10  C   LIG    1       -3.006  -0.280   2.586  0.00  0.00    -0.080 A 
ATOM     11  S   LIG    1       -2.230   0.413   1.164  0.00  0.00    +0.120 S 
ATOM     12  C   LIG    1       -1.913   1.853   2.030  0.00  0.00    +0.060 A 
ATOM     13  N   LIG    1       -2.368   1.758   3.233  0.00  0.00    -0.460 NA
BRANCH   9  15
ATOM     14  C   LIG    1       -2.507  -0.351   5.797  0.00  0.00    +0.030 C 
ATOM     15  C   LIG    1       -3.537   0.381   4.935  0.00  0.00    +0.110 C 
ENDBRANCH   9  15
ENDBRANCH   1  12
BRANCH   6  16
ATOM     16  C   LIG    1        2.693   3.672   1.930  0.00  0.00    -0.300 A 
ATOM     17  C   LIG    1        3.300   4.366   2.939  0.00  0.00    +0.080 A 
ATOM     18  C   LIG    1        3.847   3.589   3.921  0.00  0.00    +0.010 A 
ATOM     19  C   LIG    1        3.707   2.241   3.729  0.00  0.00    -0.180 A 
ATOM     20  S   LIG    1        2.832   1.945   2.233  0.00  0.00    +0.180 S 
BRANCH  19  21
ATOM     21  C   LIG    1        4.209   1.202   4.635  0.00  0.00    +0.540 C 
ATOM     22  O   LIG    1        4.030   0.020   4.370  0.00  0.00    -0.680 OA
ATOM     23  O   LIG    1        4.808   1.516   5.655  0.00  0.00    -0.670 OA
ENDBRANCH  19  21
ENDBRANCH   6  16
TORSDOF 4
