REMARK  Name = ZINCvU0000000562.0
REMARK                            x       y       z     vdW  Elec       q    Type
REMARK                         _______ _______ _______ _____ _____    ______ ____
ROOT
ATOM      1  O   LIG    1       -5.317   5.089   0.055  0.00  0.00    -0.480 OA
ATOM      2  C   LIG    1       -4.967   3.924   0.046  0.00  0.00    +0.550 C 
ENDROOT
BRANCH   2   3
ATOM      3  C   LIG    1       -3.541   3.588   0.037  0.00  0.00    -0.240 A 
ATOM      4  C   LIG    1       -2.518   4.495   0.038  0.00  0.00    +0.130 A 
ATOM      5  C   LIG    1       -1.266   3.946   0.030  0.00  0.00    +0.080 A 
ATOM      6  C   LIG    1       -1.241   2.579   0.022  0.00  0.00    -0.120 A 
ATOM      7  S   LIG    1       -2.885   1.956   0.019  0.00  0.00    +0.260 S 
BRANCH   6   8
ATOM      8  C   LIG    1       -0.022   1.754   0.012  0.00  0.00    +0.170 A 
ATOM      9  N   LIG    1        1.185   2.218   0.003  0.00  0.00    -0.440 NA
ATOM     10  C   LIG    1        2.195   1.342  -0.012  0.00  0.00    +0.080 A 
ATOM     11  C   LIG    1        3.585   1.596  -0.024  0.00  0.00    +0.080 A 
ATOM     12  C   LIG    1        4.476   0.567  -0.039  0.00  0.00    +0.030 A 
ATOM     13  C   LIG    1        4.040  -0.751  -0.042  0.00  0.00    +0.050 A 
ATOM     14  C   LIG    1        2.692  -1.030  -0.030  0.00  0.00    +0.060 A 
ATOM     15  C   LIG    1        1.764   0.009  -0.015  0.00  0.00    -0.170 A 
ATOM     16  S   LIG    1        0.002  -0.004   0.002  0.00  0.00    +0.080 S 
ENDBRANCH   6   8
ENDBRANCH   2   3
BRANCH   2  17
ATOM     17  O   LIG    1       -5.891   2.942   0.045  0.00  0.00    -0.360 OA
BRANCH  17  18
ATOM     18  C   LIG    1       -7.285   3.348   0.054  0.00  0.00    +0.330 C 
BRANCH  18  19
ATOM     19  C   LIG    1       -8.165   2.125   0.051  0.00  0.00    -0.120 A 
ATOM     20  C   LIG    1       -7.598   0.866   0.041  0.00  0.00    +0.170 A 
ATOM     21  C   LIG    1       -8.405  -0.257   0.037  0.00  0.00    -0.070 A 
ATOM     22  C   LIG    1       -9.781  -0.122   0.043  0.00  0.00    +0.150 A 
ATOM     23  C   LIG    1      -10.354   1.137   0.052  0.00  0.00    -0.200 A 
ATOM     24  C   LIG    1      -11.855   1.272   0.054  0.00  0.00    +0.320 C 
ATOM     25  O   LIG    1      -12.209   2.605   0.437  0.00  0.00    -0.380 OA
ATOM     26  C   LIG    1      -11.479   3.607  -0.281  0.00  0.00    +0.460 C 
ATOM     27  O   LIG    1      -10.097   3.507   0.075  0.00  0.00    -0.320 OA
ATOM     28  C   LIG    1       -9.547   2.263   0.064  0.00  0.00    +0.200 A 
BRANCH  21  29
ATOM     29  N   LIG    1       -7.795  -1.605   0.028  0.00  0.00    +0.030 N 
ATOM     30  O   LIG    1       -8.505  -2.595   0.025  0.00  0.00    -0.160 OA
ATOM     31  O   LIG    1       -6.583  -1.726   0.022  0.00  0.00    -0.150 OA
ENDBRANCH  21  29
ENDBRANCH  18  19
ENDBRANCH  17  18
ENDBRANCH   2  17
TORSDOF 6
