REMARK  Name = ZINCqH00000059BN.0
REMARK                            x       y       z     vdW  Elec       q    Type
REMARK                         _______ _______ _______ _____ _____    ______ ____
ROOT
ATOM      1  C   LIG    1       -0.387  -2.576  -1.268  0.00  0.00    +0.510 C 
ATOM      2  N   LIG    1       -0.702  -1.314  -0.913  0.00  0.00    -0.680 N 
ATOM      3  H   LIG    1       -1.629  -1.030  -0.905  0.00  0.00    +0.410 HD
ATOM      4  O   LIG    1        0.762  -2.957  -1.198  0.00  0.00    -0.490 OA
ENDROOT
BRANCH   2   5
ATOM      5  C   LIG    1        0.309  -0.414  -0.558  0.00  0.00    +0.140 A 
ATOM      6  C   LIG    1        0.193   0.929  -0.893  0.00  0.00    +0.010 A 
ATOM      7  C   LIG    1        1.190   1.822  -0.545  0.00  0.00    +0.020 A 
ATOM      8  C   LIG    1        2.306   1.385   0.138  0.00  0.00    +0.020 A 
ATOM      9  C   LIG    1        2.432   0.037   0.479  0.00  0.00    -0.110 A 
ATOM     10  C   LIG    1        1.427  -0.864   0.128  0.00  0.00    +0.080 A 
BRANCH   9  11
ATOM     11  C   LIG    1        3.627  -0.434   1.212  0.00  0.00    +0.560 C 
ATOM     12  N   LIG    1        4.847   0.038   0.885  0.00  0.00    -0.620 N 
ATOM     13  C   LIG    1        4.979   1.086  -0.130  0.00  0.00    +0.280 C 
ATOM     14  C   LIG    1        6.040  -0.497   1.545  0.00  0.00    +0.290 C 
ATOM     15  O   LIG    1        3.510  -1.246   2.108  0.00  0.00    -0.530 OA
ENDBRANCH   9  11
ENDBRANCH   2   5
BRANCH   1  16
ATOM     16  C   LIG    1       -1.464  -3.514  -1.750  0.00  0.00    +0.220 C 
BRANCH  16  18
ATOM     17  C   LIG    1        0.043  -4.713  -3.218  0.00  0.00    +0.190 C 
ATOM     18  N   LIG    1       -0.869  -4.818  -2.071  0.00  0.00    -0.510 NA
BRANCH  18  19
ATOM     19  C   LIG    1       -1.910  -5.825  -2.317  0.00  0.00    +0.230 C 
BRANCH  19  20
ATOM     20  C   LIG    1       -1.278  -7.191  -2.399  0.00  0.00    -0.060 A 
ATOM     21  C   LIG    1       -1.038  -7.769  -3.631  0.00  0.00    +0.040 A 
ATOM     22  C   LIG    1       -0.454  -9.020  -3.707  0.00  0.00    +0.040 A 
ATOM     23  C   LIG    1       -0.119  -9.698  -2.551  0.00  0.00    +0.040 A 
ATOM     24  C   LIG    1       -0.364  -9.124  -1.316  0.00  0.00    -0.030 A 
ATOM     25 CL   LIG    1        0.055  -9.977   0.137  0.00  0.00    -0.050 Cl
ATOM     26  C   LIG    1       -0.944  -7.869  -1.240  0.00  0.00    -0.010 A 
ATOM     27 CL   LIG    1       -1.252  -7.147   0.308  0.00  0.00    -0.040 Cl
ENDBRANCH  19  20
ENDBRANCH  18  19
ENDBRANCH  16  18
ENDBRANCH   1  16
TORSDOF 6
