REMARK  Name = ZINCah0000002AH0.0
REMARK                            x       y       z     vdW  Elec       q    Type
REMARK                         _______ _______ _______ _____ _____    ______ ____
ROOT
ATOM      1  F   LIG    1        1.305   1.555  -0.002  0.00  0.00    -0.190 F 
ATOM      2  C   LIG    1       -0.013   1.086   0.008  0.00  0.00    +0.240 C 
ATOM      3  C   LIG    1       -0.705   1.566  -1.227  0.00  0.00    +0.350 C 
ATOM      4  N   LIG    1       -1.927   1.978  -1.285  0.00  0.00    -0.430 NA
ATOM      5  C   LIG    1       -2.653   2.040  -0.118  0.00  0.00    +0.290 C 
ATOM      6  N   LIG    1       -3.925   2.147   0.058  0.00  0.00    -0.440 NA
ATOM      7  C   LIG    1       -4.276   2.234   1.482  0.00  0.00    +0.230 C 
ATOM      8  C   LIG    1       -2.931   2.413   2.225  0.00  0.00    +0.090 C 
ATOM      9  C   LIG    1       -1.940   1.965   1.187  0.00  0.00    -0.160 C 
ATOM     10  C   LIG    1       -0.688   1.557   1.274  0.00  0.00    +0.010 C 
ENDROOT
TORSDOF 0
