REMARK  Name = ZINCrH000004t4wm.0
REMARK                            x       y       z     vdW  Elec       q    Type
REMARK                         _______ _______ _______ _____ _____    ______ ____
ROOT
ATOM      1  C   LIG    1        4.683   1.086  -0.228  0.00  0.00    +0.320 C 
ATOM      2  C   LIG    1        5.204   0.836   1.203  0.00  0.00    +0.020 C 
ATOM      3  C   LIG    1        5.605   2.105   1.829  0.00  0.00    +0.000 C 
ATOM      4  C   LIG    1        4.466   3.104   2.009  0.00  0.00    +0.010 C 
ATOM      5  C   LIG    1        4.289   3.896   0.737  0.00  0.00    +0.020 C 
ATOM      6  C   LIG    1        3.251   3.212  -0.172  0.00  0.00    +0.250 C 
ATOM      7  N   LIG    1        3.397   1.743  -0.176  0.00  0.00    -0.590 N 
ATOM      8  C   LIG    1        2.284   0.984  -0.123  0.00  0.00    +0.560 C 
ATOM      9  O   LIG    1        2.377  -0.223  -0.022  0.00  0.00    -0.490 OA
ENDROOT
BRANCH   8  10
ATOM     10  C   LIG    1        0.947   1.622  -0.189  0.00  0.00    -0.030 A 
ATOM     11  C   LIG    1        0.458   2.098  -1.371  0.00  0.00    +0.010 A 
ATOM     12  C   LIG    1       -0.860   2.726  -1.403  0.00  0.00    +0.540 A 
ATOM     13  N   LIG    1       -1.603   2.834  -0.287  0.00  0.00    -0.630 N 
ATOM     14  H   LIG    1       -2.476   3.253  -0.337  0.00  0.00    +0.420 HD
ATOM     15  C   LIG    1       -1.145   2.366   0.927  0.00  0.00    +0.180 A 
ATOM     16  C   LIG    1       -1.929   2.494   2.070  0.00  0.00    +0.020 A 
ATOM     17  C   LIG    1       -1.466   2.025   3.279  0.00  0.00    +0.050 A 
ATOM     18  C   LIG    1       -0.216   1.422   3.373  0.00  0.00    +0.080 A 
ATOM     19  C   LIG    1        0.576   1.286   2.253  0.00  0.00    +0.050 A 
ATOM     20  F   LIG    1        0.224   0.968   4.567  0.00  0.00    -0.130 F 
ATOM     21  O   LIG    1       -1.296   3.155  -2.457  0.00  0.00    -0.520 OA
ATOM     22  C   LIG    1        0.118   1.757   1.019  0.00  0.00    -0.080 A 
ENDBRANCH   8  10
BRANCH   1  28
ATOM     23  C   LIG    1        4.594  -1.720   1.088  0.00  0.00    +0.290 C 
ATOM     24  N   LIG    1        4.505  -1.462  -0.351  0.00  0.00    -0.410 N 
ATOM     25  C   LIG    1        4.367  -2.411  -1.321  0.00  0.00    +0.150 A 
ATOM     26  C   LIG    1        4.328  -1.788  -2.517  0.00  0.00    -0.070 A 
ATOM     27  C   LIG    1        4.440  -0.405  -2.276  0.00  0.00    -0.070 A 
ATOM     28  C   LIG    1        4.543  -0.234  -0.942  0.00  0.00    +0.030 A 
ENDBRANCH   1  28
TORSDOF 2
