REMARK  Name = ZINC5j0000006loI.0
REMARK                            x       y       z     vdW  Elec       q    Type
REMARK                         _______ _______ _______ _____ _____    ______ ____
ROOT
ATOM      1  C   LIG    1       -0.750   3.109   1.275  0.00  0.00    +0.410 C 
ENDROOT
BRANCH   1   3
ATOM      2  C   LIG    1       -1.951   3.937   3.386  0.00  0.00    +0.920 C 
ATOM      3  N   LIG    1       -1.419   3.570   2.452  0.00  0.00    -0.430 NA
ENDBRANCH   1   3
BRANCH   1   4
ATOM      4  C   LIG    1       -0.729   1.579   1.267  0.00  0.00    +0.040 C 
ATOM      5  C   LIG    1       -0.013   1.086   0.008  0.00  0.00    +0.060 C 
ENDBRANCH   1   4
TORSDOF 2
