REMARK  Name = ZINCpe000000Tg26.1
REMARK                            x       y       z     vdW  Elec       q    Type
REMARK                         _______ _______ _______ _____ _____    ______ ____
ROOT
ATOM      1  C   LIG    1        1.968   0.694  -1.781  0.00  0.00    +0.210 C 
ENDROOT
BRANCH   1   2
ATOM      2  C   LIG    1        2.688   0.705  -3.105  0.00  0.00    +0.510 C 
ATOM      3  N   LIG    1        3.317  -0.405  -3.539  0.00  0.00    -0.720 N 
ATOM      4  H   LIG    1        3.306  -1.211  -3.000  0.00  0.00    +0.400 HD
ATOM      5  O   LIG    1        2.702   1.713  -3.779  0.00  0.00    -0.490 OA
BRANCH   3   6
ATOM      6  C   LIG    1        4.018  -0.394  -4.826  0.00  0.00    +0.200 C 
ATOM      7  C   LIG    1        3.025  -0.070  -5.944  0.00  0.00    +0.040 C 
ATOM      8  C   LIG    1        1.924  -1.132  -5.972  0.00  0.00    +0.020 C 
ATOM      9  C   LIG    1        2.547  -2.506  -6.225  0.00  0.00    +0.020 C 
ATOM     10  C   LIG    1        3.539  -2.830  -5.107  0.00  0.00    +0.010 C 
ATOM     11  C   LIG    1        4.641  -1.768  -5.079  0.00  0.00    +0.060 C 
BRANCH   6  12
ATOM     12  C   LIG    1        5.102   0.652  -4.799  0.00  0.00    +0.460 C 
ATOM     13  O   LIG    1        6.141   0.460  -5.384  0.00  0.00    -0.510 OA
BRANCH  12  14
ATOM     14  O   LIG    1        4.913   1.797  -4.124  0.00  0.00    -0.320 OA
ATOM     15  C   LIG    1        6.001   2.759  -4.141  0.00  0.00    +0.250 C 
ENDBRANCH  12  14
ENDBRANCH   6  12
ENDBRANCH   3   6
ENDBRANCH   1   2
BRANCH   1  16
ATOM     16  N   LIG    1        1.370   2.013  -1.538  0.00  0.00    -0.630 NA
ATOM     17  H   LIG    1        0.759   2.278  -2.296  0.00  0.00    +0.350 HD
BRANCH  16  24
ATOM     18  C   LIG    1        0.497   3.494   0.247  0.00  0.00    -0.060 C 
ATOM     19  C   LIG    1       -0.900   3.862  -0.300  0.00  0.00    +0.260 C 
ATOM     20  N   LIG    1       -1.613   2.588  -0.448  0.00  0.00    -0.730 N 
ATOM     21  H   LIG    1       -2.575   2.507  -0.546  0.00  0.00    +0.410 HD
ATOM     22  C   LIG    1       -0.763   1.547  -0.425  0.00  0.00    +0.490 C 
ATOM     23  O   LIG    1       -1.087   0.383  -0.532  0.00  0.00    -0.530 OA
ATOM     24  C   LIG    1        0.657   2.039  -0.253  0.00  0.00    +0.180 C 
BRANCH  18  26
ATOM     25  C   LIG    1        1.896   3.115   2.282  0.00  0.00    +0.020 C 
ATOM     26  C   LIG    1        0.520   3.553   1.776  0.00  0.00    +0.030 C 
ENDBRANCH  18  26
BRANCH  18  27
ATOM     27  C   LIG    1        1.576   4.400  -0.349  0.00  0.00    +0.060 C 
ATOM     28  C   LIG    1        1.356   5.837   0.128  0.00  0.00    +0.000 C 
ENDBRANCH  18  27
ENDBRANCH  16  24
ENDBRANCH   1  16
TORSDOF 8
