REMARK  Name = ZINCrg00000b4SVR.1
REMARK                            x       y       z     vdW  Elec       q    Type
REMARK                         _______ _______ _______ _____ _____    ______ ____
ROOT
ATOM      1  N   LIG    1        4.782   0.198   0.430  0.00  0.00    -0.600 N 
ATOM      2  C   LIG    1        5.567  -0.168   1.462  0.00  0.00    +0.510 C 
ATOM      3  O   LIG    1        5.397  -1.241   2.003  0.00  0.00    -0.500 OA
ATOM      4  C   LIG    1        4.987   1.493  -0.223  0.00  0.00    +0.280 C 
ENDROOT
BRANCH   1   5
ATOM      5  C   LIG    1        3.723  -0.699  -0.039  0.00  0.00    +0.300 C 
ATOM      6  C   LIG    1        4.042  -1.164  -1.462  0.00  0.00    +0.030 C 
BRANCH   5  12
ATOM      7  C   LIG    1        1.741   0.256   1.165  0.00  0.00    +0.150 A 
ATOM      8  C   LIG    1        0.529   0.930   1.167  0.00  0.00    -0.080 A 
ATOM      9  C   LIG    1       -0.014   1.377  -0.022  0.00  0.00    +0.060 A 
ATOM     10  C   LIG    1        0.650   1.153  -1.214  0.00  0.00    -0.030 A 
ATOM     11  C   LIG    1        1.859   0.481  -1.219  0.00  0.00    +0.060 A 
ATOM     12  C   LIG    1        2.406   0.032  -0.033  0.00  0.00    -0.140 A 
BRANCH   7  14
ATOM     13  C   LIG    1        1.539   0.081   3.527  0.00  0.00    +0.240 C 
ATOM     14  O   LIG    1        2.278  -0.184   2.333  0.00  0.00    -0.300 OA
ENDBRANCH   7  14
ENDBRANCH   5  12
ENDBRANCH   1   5
BRANCH   2  15
ATOM     15  C   LIG    1        6.656   0.754   1.945  0.00  0.00    +0.360 C 
BRANCH  15  16
ATOM     16  N   LIG    1        7.362   0.132   3.068  0.00  0.00    -0.290 N 
ATOM     17  C   LIG    1        8.696  -0.083   3.145  0.00  0.00    +0.130 A 
ATOM     18  C   LIG    1        8.914  -0.676   4.342  0.00  0.00    -0.010 A 
ATOM     19  N   LIG    1        7.718  -0.793   4.931  0.00  0.00    -0.230 NA
ATOM     20  N   LIG    1        6.821  -0.300   4.153  0.00  0.00    -0.060 NA
BRANCH  18  21
ATOM     21  C   LIG    1       10.242  -1.116   4.902  0.00  0.00    +0.140 C 
BRANCH  21  22
ATOM     22  C   LIG    1       10.455  -0.475   6.275  0.00  0.00    +0.150 C 
ATOM     23  C   LIG    1       11.853  -0.826   6.791  0.00  0.00    +0.170 C 
ATOM     24  O   LIG    1       12.018  -0.287   8.106  0.00  0.00    -0.380 OA
ATOM     25  C   LIG    1       11.055  -0.764   9.049  0.00  0.00    +0.170 C 
ATOM     26  C   LIG    1        9.649  -0.413   8.555  0.00  0.00    +0.190 C 
ATOM     27  N   LIG    1        9.448  -0.986   7.216  0.00  0.00    -0.660 NA
ATOM     28  H   LIG    1        9.462  -1.994   7.248  0.00  0.00    +0.340 HD
ENDBRANCH  21  22
ENDBRANCH  18  21
ENDBRANCH  15  16
ENDBRANCH   2  15
TORSDOF 7
