REMARK  Name = ZINCrH000004qAk8.0
REMARK                            x       y       z     vdW  Elec       q    Type
REMARK                         _______ _______ _______ _____ _____    ______ ____
ROOT
ATOM      1  C   LIG    1        1.222  -0.685  -0.013  0.00  0.00    -0.120 A 
ATOM      2  C   LIG    1        0.002  -0.004   0.002  0.00  0.00    +0.070 A 
ATOM      3  C   LIG    1       -0.017   1.374   0.010  0.00  0.00    +0.010 A 
ATOM      4  C   LIG    1        1.170   2.091   0.002  0.00  0.00    +0.070 A 
ATOM      5  C   LIG    1        2.383   1.434  -0.013  0.00  0.00    -0.010 A 
ATOM      6  C   LIG    1        2.423   0.045  -0.021  0.00  0.00    -0.040 A 
ENDROOT
BRANCH   1   9
ATOM      7  N   LIG    1        0.095  -2.854  -0.013  0.00  0.00    -0.500 N 
ATOM      8  H   LIG    1       -0.754  -2.384  -0.003  0.00  0.00    +0.430 HD
ATOM      9  C   LIG    1        1.249  -2.158  -0.021  0.00  0.00    +0.550 C 
ATOM     10  O   LIG    1        2.313  -2.747  -0.034  0.00  0.00    -0.510 OA
BRANCH   7  11
ATOM     11  N   LIG    1        0.121  -4.254  -0.021  0.00  0.00    -0.490 N 
ATOM     12  H   LIG    1        0.970  -4.724  -0.031  0.00  0.00    +0.450 HD
BRANCH  11  18
ATOM     13  C   LIG    1       -4.670  -4.209   0.027  0.00  0.00    +0.140 C 
ATOM     14  C   LIG    1       -3.366  -4.964   0.010  0.00  0.00    +0.230 A 
ATOM     15  C   LIG    1       -3.358  -6.350   0.003  0.00  0.00    -0.140 A 
ATOM     16  C   LIG    1       -2.137  -7.005  -0.013  0.00  0.00    +0.230 A 
ATOM     17  N   LIG    1       -1.022  -6.293  -0.020  0.00  0.00    -0.570 NA
ATOM     18  C   LIG    1       -1.065  -4.968  -0.013  0.00  0.00    +0.580 A 
ATOM     19  C   LIG    1       -2.079  -8.511  -0.020  0.00  0.00    +0.140 C 
ATOM     20  N   LIG    1       -2.215  -4.312   0.007  0.00  0.00    -0.580 NA
ENDBRANCH  11  18
ENDBRANCH   7  11
ENDBRANCH   1   9
BRANCH   6  21
ATOM     21  S   LIG    1        3.970  -0.797  -0.040  0.00  0.00    +0.020 S 
BRANCH  21  22
ATOM     22  C   LIG    1        5.173   0.561  -0.044  0.00  0.00    +0.120 C 
BRANCH  22  23
ATOM     23  C   LIG    1        6.570  -0.006  -0.060  0.00  0.00    -0.190 A 
ATOM     24  C   LIG    1        7.333  -0.314  -1.136  0.00  0.00    -0.010 A 
ATOM     25  O   LIG    1        8.493  -0.784  -0.656  0.00  0.00    +0.100 OA
ATOM     26  N   LIG    1        8.504  -0.789   0.553  0.00  0.00    -0.360 NA
ATOM     27  C   LIG    1        6.952  -0.158  -2.586  0.00  0.00    +0.190 C 
ATOM     28  C   LIG    1        7.389  -0.333   1.045  0.00  0.00    +0.040 A 
ATOM     29  C   LIG    1        7.040  -0.185   2.503  0.00  0.00    +0.160 C 
ENDBRANCH  22  23
ENDBRANCH  21  22
ENDBRANCH   6  21
TORSDOF 6
