REMARK  Name = ZINCrg000000oUjk.0
REMARK                            x       y       z     vdW  Elec       q    Type
REMARK                         _______ _______ _______ _____ _____    ______ ____
ROOT
ATOM      1  C   LIG    1       -0.014   1.209   0.009  0.00  0.00    +0.520 C 
ATOM      2  N   LIG    1       -1.191   1.867   0.018  0.00  0.00    -0.610 N 
ATOM      3  C   LIG    1       -1.226   3.336   0.032  0.00  0.00    +0.270 C 
ATOM      4  C   LIG    1       -2.072   3.813  -1.160  0.00  0.00    +0.290 C 
ATOM      5  N   LIG    1       -3.342   3.074  -1.158  0.00  0.00    -1.010 NA
ATOM      6  C   LIG    1       -3.307   1.605  -1.167  0.00  0.00    +0.290 C 
ATOM      7  C   LIG    1       -2.461   1.128   0.020  0.00  0.00    +0.280 C 
ATOM      8  O   LIG    1        0.002  -0.004   0.002  0.00  0.00    -0.530 OA
ENDROOT
BRANCH   5   9
ATOM      9  S   LIG    1       -4.788   3.882  -1.147  0.00  0.00    +2.780 S 
ATOM     10  O   LIG    1       -5.750   2.991  -1.692  0.00  0.00    -0.970 OA
ATOM     11  O   LIG    1       -4.530   5.172  -1.685  0.00  0.00    -0.970 OA
BRANCH   9  12
ATOM     12  N   LIG    1       -5.208   4.112   0.438  0.00  0.00    -1.000 NA
ATOM     13  C   LIG    1       -6.014   3.107   1.136  0.00  0.00    +0.290 C 
BRANCH  12  14
ATOM     14  C   LIG    1       -4.775   5.321   1.143  0.00  0.00    +0.250 C 
ATOM     15  C   LIG    1       -3.916   4.930   2.347  0.00  0.00    +0.000 C 
ATOM     16  C   LIG    1       -3.463   6.192   3.083  0.00  0.00    +0.010 C 
ATOM     17  C   LIG    1       -4.690   6.970   3.563  0.00  0.00    +0.000 C 
ATOM     18  C   LIG    1       -5.549   7.362   2.359  0.00  0.00    +0.020 C 
ATOM     19  C   LIG    1       -6.002   6.099   1.623  0.00  0.00    +0.010 C 
ENDBRANCH  12  14
ENDBRANCH   9  12
ENDBRANCH   5   9
BRANCH   1  20
ATOM     20  C   LIG    1        1.280   1.980   0.001  0.00  0.00    +0.060 C 
BRANCH  20  21
ATOM     21  C   LIG    1        2.457   1.002  -0.016  0.00  0.00    +0.160 C 
BRANCH  21  26
ATOM     22  C   LIG    1        6.119   4.200  -1.262  0.00  0.00    +0.360 C 
ATOM     23  N   LIG    1        5.366   3.164  -0.551  0.00  0.00    -0.380 N 
ATOM     24  C   LIG    1        5.777   2.496   0.547  0.00  0.00    +0.220 A 
ATOM     25  C   LIG    1        4.795   1.633   0.896  0.00  0.00    -0.120 A 
ATOM     26  C   LIG    1        3.751   1.773  -0.024  0.00  0.00    +0.070 A 
ATOM     27  N   LIG    1        4.091   2.692  -0.890  0.00  0.00    -0.290 NA
ENDBRANCH  21  26
ENDBRANCH  20  21
ENDBRANCH   1  20
TORSDOF 6
