REMARK  Name = ZINCtV000002BLTL.0
REMARK                            x       y       z     vdW  Elec       q    Type
REMARK                         _______ _______ _______ _____ _____    ______ ____
ROOT
ATOM      1  C   LIG    1        4.508   0.808  -0.055  0.00  0.00    -0.010 A 
ATOM      2  C   LIG    1        3.804  -0.353  -0.062  0.00  0.00    -0.060 A 
ATOM      3  C   LIG    1        2.392   0.030  -0.058  0.00  0.00    -0.130 A 
ATOM      4  C   LIG    1        1.190  -0.682  -0.061  0.00  0.00    +0.080 A 
ATOM      5  C   LIG    1        0.003  -0.006  -0.054  0.00  0.00    +0.000 A 
ATOM      6  C   LIG    1       -0.017   1.381  -0.044  0.00  0.00    +0.060 A 
ATOM      7  C   LIG    1        1.158   2.102  -0.041  0.00  0.00    +0.030 A 
ATOM      8  C   LIG    1        2.378   1.437  -0.047  0.00  0.00    +0.070 A 
ATOM      9  O   LIG    1        3.658   1.857  -0.046  0.00  0.00    -0.180 OA
ENDROOT
BRANCH   1  12
ATOM     10  N   LIG    1        6.567   2.118  -0.049  0.00  0.00    -0.650 N 
ATOM     11  H   LIG    1        6.029   2.923  -0.108  0.00  0.00    +0.420 HD
ATOM     12  C   LIG    1        5.974   0.908  -0.057  0.00  0.00    +0.600 C 
ATOM     13  O   LIG    1        6.652  -0.102  -0.065  0.00  0.00    -0.490 OA
BRANCH  10  19
ATOM     14  C   LIG    1        8.544   3.273   0.738  0.00  0.00    +0.110 A 
ATOM     15  C   LIG    1        9.923   3.360   0.830  0.00  0.00    -0.060 A 
ATOM     16  C   LIG    1       10.719   2.404   0.226  0.00  0.00    +0.040 A 
ATOM     17  C   LIG    1       10.141   1.356  -0.467  0.00  0.00    -0.010 A 
ATOM     18  C   LIG    1        8.766   1.259  -0.559  0.00  0.00    +0.070 A 
ATOM     19  C   LIG    1        7.961   2.214   0.044  0.00  0.00    +0.110 A 
BRANCH  14  21
ATOM     20  C   LIG    1        8.427   5.272   2.021  0.00  0.00    +0.250 C 
ATOM     21  O   LIG    1        7.760   4.216   1.326  0.00  0.00    -0.320 OA
ENDBRANCH  14  21
ENDBRANCH  10  19
ENDBRANCH   1  12
BRANCH   2  22
ATOM     22  C   LIG    1        4.363  -1.752  -0.073  0.00  0.00    +0.170 C 
BRANCH  22  23
ATOM     23  S   LIG    1        4.585  -2.301  -1.788  0.00  0.00    -0.220 S 
BRANCH  23  24
ATOM     24  C   LIG    1        5.255  -3.976  -1.597  0.00  0.00    +0.130 C 
BRANCH  24  25
ATOM     25  C   LIG    1        5.497  -4.579  -2.956  0.00  0.00    -0.070 A 
ATOM     26  C   LIG    1        4.499  -5.304  -3.579  0.00  0.00    +0.020 A 
ATOM     27  C   LIG    1        4.720  -5.853  -4.829  0.00  0.00    +0.000 A 
ATOM     28  C   LIG    1        5.943  -5.684  -5.451  0.00  0.00    +0.010 A 
ATOM     29  C   LIG    1        6.943  -4.963  -4.826  0.00  0.00    +0.000 A 
ATOM     30  C   LIG    1        6.720  -4.410  -3.579  0.00  0.00    +0.020 A 
ENDBRANCH  24  25
ENDBRANCH  23  24
ENDBRANCH  22  23
ENDBRANCH   2  22
TORSDOF 7
