REMARK  Name = ZINCtV00000tRQ1d.0
REMARK                            x       y       z     vdW  Elec       q    Type
REMARK                         _______ _______ _______ _____ _____    ______ ____
ROOT
ATOM      1  C   LIG    1       -0.023   1.366   0.005  0.00  0.00    +0.420 A 
ATOM      2  C   LIG    1        1.199   2.079  -0.001  0.00  0.00    -0.180 A 
ATOM      3  C   LIG    1        1.454   3.514   0.005  0.00  0.00    -0.010 A 
ATOM      4  C   LIG    1        2.745   3.843  -0.005  0.00  0.00    -0.020 A 
ATOM      5  S   LIG    1        3.766   2.419  -0.024  0.00  0.00    +0.200 S 
ATOM      6  C   LIG    1        2.382   1.336  -0.017  0.00  0.00    +0.110 A 
ATOM      7  N   LIG    1        2.310  -0.001  -0.025  0.00  0.00    -0.510 NA
ATOM      8  C   LIG    1        1.150  -0.616  -0.018  0.00  0.00    +0.560 A 
ATOM      9  N   LIG    1        0.006   0.043  -0.003  0.00  0.00    -0.560 NA
ENDROOT
BRANCH   3  10
ATOM     10  C   LIG    1        0.368   4.522   0.021  0.00  0.00    -0.040 A 
ATOM     11  C   LIG    1       -0.677   4.440  -0.897  0.00  0.00    +0.050 A 
ATOM     12  C   LIG    1       -1.688   5.379  -0.875  0.00  0.00    +0.010 A 
ATOM     13  C   LIG    1       -1.659   6.407   0.050  0.00  0.00    -0.070 A 
ATOM     14  C   LIG    1       -0.622   6.498   0.961  0.00  0.00    +0.000 A 
ATOM     15  C   LIG    1        0.392   5.561   0.951  0.00  0.00    +0.020 A 
BRANCH  13  16
ATOM     16  C   LIG    1       -2.763   7.434   0.066  0.00  0.00    +0.020 C 
ATOM     17  C   LIG    1       -4.101   6.740   0.324  0.00  0.00    +0.040 C 
ATOM     18  C   LIG    1       -2.812   8.150  -1.285  0.00  0.00    +0.040 C 
ENDBRANCH  13  16
ENDBRANCH   3  10
BRANCH   1  19
ATOM     19  O   LIG    1       -1.205   2.028   0.015  0.00  0.00    -0.220 OA
BRANCH  19  24
ATOM     20  C   LIG    1       -4.218   0.528  -1.379  0.00  0.00    +0.150 A 
ATOM     21  C   LIG    1       -4.672  -0.197  -0.284  0.00  0.00    -0.010 A 
ATOM     22  C   LIG    1       -3.965  -0.173   0.903  0.00  0.00    +0.050 A 
ATOM     23  C   LIG    1       -2.802   0.566   1.003  0.00  0.00    +0.010 A 
ATOM     24  C   LIG    1       -2.346   1.297  -0.086  0.00  0.00    +0.100 A 
ATOM     25  C   LIG    1       -3.053   1.276  -1.278  0.00  0.00    +0.030 A 
BRANCH  20  28
ATOM     26  C   LIG    1       -5.040   0.420  -5.050  0.00  0.00    +0.110 C 
ATOM     27  C   LIG    1       -4.278   0.549  -3.757  0.00  0.00    +0.510 C 
ATOM     28  N   LIG    1       -4.934   0.505  -2.580  0.00  0.00    -0.680 N 
ATOM     29  H   LIG    1       -5.903   0.457  -2.567  0.00  0.00    +0.410 HD
ATOM     30  O   LIG    1       -3.073   0.692  -3.775  0.00  0.00    -0.520 OA
ENDBRANCH  20  28
ENDBRANCH  19  24
ENDBRANCH   1  19
TORSDOF 5
