REMARK  Name = ZINCkj00000y7BIN.0
REMARK                            x       y       z     vdW  Elec       q    Type
REMARK                         _______ _______ _______ _____ _____    ______ ____
ROOT
ATOM      1  C   LIG    1        0.002  -0.004   0.002  0.00  0.00    +0.320 C 
ENDROOT
BRANCH   1   5
ATOM      2  C   LIG    1       -3.991  -1.486   0.384  0.00  0.00    -0.090 A 
ATOM      3  C   LIG    1       -3.453  -1.238  -0.881  0.00  0.00    +0.100 A 
ATOM      4  C   LIG    1       -2.164  -0.760  -0.997  0.00  0.00    +0.040 A 
ATOM      5  C   LIG    1       -1.405  -0.526   0.137  0.00  0.00    -0.130 A 
ATOM      6  C   LIG    1       -1.930  -0.775   1.392  0.00  0.00    +0.030 A 
ATOM      7  C   LIG    1       -3.220  -1.248   1.523  0.00  0.00    +0.090 A 
BRANCH   2   8
ATOM      8  C   LIG    1       -5.370  -1.998   0.515  0.00  0.00    +0.500 C 
ATOM      9  O   LIG    1       -6.039  -2.205  -0.477  0.00  0.00    -0.490 OA
BRANCH   8  11
ATOM     10  C   LIG    1       -7.248  -2.739   1.790  0.00  0.00    +0.290 C 
ATOM     11  O   LIG    1       -5.887  -2.237   1.737  0.00  0.00    -0.350 OA
ENDBRANCH   8  11
ENDBRANCH   2   8
ENDBRANCH   1   5
BRANCH   1  12
ATOM     12  N   LIG    1       -0.018   1.465   0.010  0.00  0.00    -0.380 N 
ATOM     13  C   LIG    1       -0.691   1.946   1.235  0.00  0.00    +0.250 C 
ATOM     14  C   LIG    1        0.084   3.228   1.634  0.00  0.00    +0.180 C 
ATOM     15  C   LIG    1        1.541   2.840   1.269  0.00  0.00    +0.180 C 
ATOM     16  C   LIG    1        1.364   1.980  -0.000  0.00  0.00    +0.250 C 
ATOM     17  H   LIG    1       -0.512   1.803  -0.802  0.00  0.00    +0.430 HD
BRANCH  15  18
ATOM     18  O   LIG    1        2.321   4.003   0.986  0.00  0.00    -0.360 OA
ATOM     19  C   LIG    1        3.724   3.827   1.197  0.00  0.00    +0.230 C 
ENDBRANCH  15  18
BRANCH  14  20
ATOM     20  O   LIG    1       -0.041   3.487   3.034  0.00  0.00    -0.360 OA
ATOM     21  C   LIG    1       -1.050   4.446   3.359  0.00  0.00    +0.230 C 
ENDBRANCH  14  20
ENDBRANCH   1  12
TORSDOF 6
