REMARK  Name = ZINCkj000005gRBI.0
REMARK                            x       y       z     vdW  Elec       q    Type
REMARK                         _______ _______ _______ _____ _____    ______ ____
ROOT
ATOM      1  C   LIG    1        2.292   3.680  -0.001  0.00  0.00    +0.500 C 
ATOM      2  N   LIG    1        3.448   3.039  -0.015  0.00  0.00    -0.570 NA
ATOM      3  C   LIG    1        3.473   1.708  -0.022  0.00  0.00    +0.680 C 
ATOM      4  N   LIG    1        2.334   1.024  -0.015  0.00  0.00    -0.620 N 
ATOM      5  C   LIG    1        1.174   1.672  -0.000  0.00  0.00    +0.670 C 
ATOM      6  N   LIG    1       -0.011   0.966   0.007  0.00  0.00    -0.660 N 
ATOM      7  H   LIG    1        0.002  -0.004   0.002  0.00  0.00    +0.430 HD
ATOM      8  H   LIG    1        2.350   0.054  -0.019  0.00  0.00    +0.440 HD
ATOM      9  N   LIG    1        1.157   3.003   0.002  0.00  0.00    -0.570 NA
ENDROOT
BRANCH   3  10
ATOM     10  N   LIG    1        4.680   1.040  -0.038  0.00  0.00    -0.770 NA
ATOM     11  H   LIG    1        5.511   1.540  -0.044  0.00  0.00    +0.450 HD
ATOM     12  H   LIG    1        4.698   0.070  -0.043  0.00  0.00    +0.430 HD
ENDBRANCH   3  10
BRANCH   1  14
ATOM     13  C   LIG    1        3.703   5.720  -0.004  0.00  0.00    +0.070 C 
ATOM     14  C   LIG    1        2.268   5.187   0.007  0.00  0.00    +0.180 C 
ENDBRANCH   1  14
BRANCH   6  15
ATOM     15  C   LIG    1       -1.290   1.681   0.017  0.00  0.00    +0.320 C 
BRANCH  15  16
ATOM     16  C   LIG    1       -2.038   1.405  -1.288  0.00  0.00    +0.130 C 
ATOM     17  C   LIG    1       -2.296  -0.097  -1.421  0.00  0.00    -0.000 C 
ATOM     18  C   LIG    1       -3.802  -0.352  -1.499  0.00  0.00    +0.000 C 
ATOM     19  C   LIG    1       -4.380   0.374  -2.716  0.00  0.00    +0.010 C 
ATOM     20  C   LIG    1       -4.123   1.876  -2.583  0.00  0.00    +0.030 C 
ATOM     21  C   LIG    1       -4.474   0.170  -0.227  0.00  0.00    +0.010 C 
ATOM     22  C   LIG    1       -4.217   1.672  -0.095  0.00  0.00    +0.020 C 
ATOM     23  C   LIG    1       -3.374   2.152  -1.278  0.00  0.00    +0.010 C 
BRANCH  16  24
ATOM     24  O   LIG    1       -1.251   1.853  -2.393  0.00  0.00    -0.540 OA
ATOM     25  H   LIG    1       -0.388   1.421  -2.462  0.00  0.00    +0.360 HD
ENDBRANCH  16  24
ENDBRANCH  15  16
ENDBRANCH   6  15
TORSDOF 5
