REMARK  Name = ZINCrD000000AEqI.0
REMARK                            x       y       z     vdW  Elec       q    Type
REMARK                         _______ _______ _______ _____ _____    ______ ____
ROOT
ATOM      1  O   LIG    1        4.322   1.690  -3.163  0.00  0.00    -0.510 OA
ATOM      2  C   LIG    1        4.688   0.580  -2.819  0.00  0.00    +0.560 A 
ATOM      3  C   LIG    1        3.986  -0.138  -1.800  0.00  0.00    -0.220 A 
ATOM      4  C   LIG    1        4.453  -1.397  -1.453  0.00  0.00    +0.070 A 
ATOM      5  S   LIG    1        3.437  -2.073  -0.191  0.00  0.00    +0.200 S 
ATOM      6  C   LIG    1        2.407  -0.648  -0.151  0.00  0.00    -0.190 A 
ATOM      7  C   LIG    1        1.221  -0.494   0.781  0.00  0.00    +0.110 C 
ATOM      8  C   LIG    1        0.002  -0.004   0.002  0.00  0.00    +0.020 C 
ATOM      9  C   LIG    1       -0.019   1.522   0.010  0.00  0.00    +0.010 C 
ATOM     10  C   LIG    1        1.412   2.056  -0.000  0.00  0.00    +0.010 C 
ATOM     11  C   LIG    1        2.119   1.599  -1.271  0.00  0.00    +0.110 C 
ATOM     12  N   LIG    1        5.539  -1.903  -2.079  0.00  0.00    -0.490 NA
ATOM     13  C   LIG    1        6.164  -1.236  -3.003  0.00  0.00    +0.600 A 
ATOM     14  C   LIG    1        2.808   0.262  -1.039  0.00  0.00    -0.030 A 
ATOM     15  N   LIG    1        5.763   0.002  -3.391  0.00  0.00    -0.520 N 
ENDROOT
BRANCH  15  16
ATOM     16  C   LIG    1        6.502   0.713  -4.437  0.00  0.00    +0.350 C 
BRANCH  16  17
ATOM     17  C   LIG    1        5.917   0.375  -5.784  0.00  0.00    +0.510 C 
ATOM     18  N   LIG    1        6.440   0.917  -6.902  0.00  0.00    -0.550 N 
ATOM     19  C   LIG    1        5.962   0.661  -8.263  0.00  0.00    +0.290 C 
ATOM     20  C   LIG    1        6.871   1.502  -9.174  0.00  0.00    +0.110 C 
ATOM     21  C   LIG    1        7.831   2.187  -8.227  0.00  0.00    -0.130 A 
ATOM     22  C   LIG    1        8.873   3.061  -8.469  0.00  0.00    +0.060 A 
ATOM     23  C   LIG    1        9.619   3.560  -7.417  0.00  0.00    -0.010 A 
ATOM     24  C   LIG    1        9.319   3.183  -6.122  0.00  0.00    +0.050 A 
ATOM     25  C   LIG    1        8.280   2.311  -5.875  0.00  0.00    -0.030 A 
ATOM     26  C   LIG    1        7.523   1.802  -6.932  0.00  0.00    +0.140 A 
ATOM     27  O   LIG    1        4.975  -0.385  -5.863  0.00  0.00    -0.500 OA
ENDBRANCH  16  17
ENDBRANCH  15  16
TORSDOF 2
