REMARK  Name = ZINCnE00000euGuf.0
REMARK                            x       y       z     vdW  Elec       q    Type
REMARK                         _______ _______ _______ _____ _____    ______ ____
ROOT
ATOM      1  O   LIG    1        2.349   3.677   0.126  0.00  0.00    -0.320 OA
ENDROOT
BRANCH   1   2
ATOM      2  C   LIG    1        1.297   2.854   0.376  0.00  0.00    +0.110 A 
ATOM      3  C   LIG    1        1.472   1.478   0.351  0.00  0.00    -0.020 A 
ATOM      4  C   LIG    1        0.401   0.642   0.606  0.00  0.00    +0.050 A 
ATOM      5  C   LIG    1       -0.844   1.177   0.881  0.00  0.00    -0.100 A 
ATOM      6  C   LIG    1       -1.019   2.548   0.911  0.00  0.00    +0.040 A 
ATOM      7  C   LIG    1        0.048   3.387   0.657  0.00  0.00    -0.080 A 
BRANCH   5   8
ATOM      8  C   LIG    1       -2.011   0.263   1.152  0.00  0.00    +0.080 C 
BRANCH   8   9
ATOM      9  C   LIG    1       -2.090  -0.032   2.652  0.00  0.00    -0.060 C 
BRANCH   9  10
ATOM     10  C   LIG    1       -3.257  -0.946   2.923  0.00  0.00    +0.490 C 
ATOM     11  O   LIG    1       -3.498  -1.305   4.063  0.00  0.00    -0.710 OA
ATOM     12  O   LIG    1       -3.961  -1.326   2.003  0.00  0.00    -0.700 OA
ENDBRANCH   9  10
ENDBRANCH   8   9
ENDBRANCH   5   8
ENDBRANCH   1   2
BRANCH   1  13
ATOM     13  C   LIG    1        2.096   5.083   0.168  0.00  0.00    +0.210 C 
BRANCH  13  16
ATOM     14  C   LIG    1        3.462   7.419   1.278  0.00  0.00    +0.040 C 
ATOM     15  C   LIG    1        3.199   7.366  -0.236  0.00  0.00    +0.060 C 
ATOM     16  C   LIG    1        3.388   5.843  -0.137  0.00  0.00    +0.000 C 
ATOM     17  C   LIG    1        4.253   6.111   1.106  0.00  0.00    +0.100 C 
BRANCH  14  18
ATOM     18  C   LIG    1        4.324   8.607   1.710  0.00  0.00    +0.440 C 
ATOM     19  F   LIG    1        5.606   8.474   1.167  0.00  0.00    -0.180 F 
ATOM     20  F   LIG    1        4.410   8.638   3.106  0.00  0.00    -0.170 F 
ATOM     21  F   LIG    1        3.744   9.794   1.251  0.00  0.00    -0.180 F 
ENDBRANCH  14  18
BRANCH  14  23
ATOM     22  C   LIG    1        1.348   8.345   1.924  0.00  0.00    +0.210 C 
ATOM     23  O   LIG    1        2.281   7.273   2.070  0.00  0.00    -0.330 OA
ENDBRANCH  14  23
ENDBRANCH  13  16
ENDBRANCH   1  13
TORSDOF 8
