REMARK  Name = ZINCqH0000034jve.0
REMARK                            x       y       z     vdW  Elec       q    Type
REMARK                         _______ _______ _______ _____ _____    ______ ____
ROOT
ATOM      1  N   LIG    1        2.220  -2.413   1.067  0.00  0.00    -0.740 N 
ATOM      2  H   LIG    1        1.981  -1.762   1.746  0.00  0.00    +0.400 HD
ATOM      3  C   LIG    1        2.601  -3.654   1.429  0.00  0.00    +0.730 C 
ATOM      4  N   LIG    1        2.651  -3.991   2.733  0.00  0.00    -0.630 N 
ATOM      5  C   LIG    1        2.425  -3.075   3.866  0.00  0.00    +0.240 C 
ATOM      6  C   LIG    1        3.171  -3.723   5.057  0.00  0.00    +0.040 C 
ATOM      7  C   LIG    1        2.920  -5.232   4.801  0.00  0.00    +0.030 C 
ATOM      8  C   LIG    1        2.946  -5.331   3.261  0.00  0.00    +0.250 C 
ATOM      9  O   LIG    1        2.901  -4.470   0.578  0.00  0.00    -0.580 OA
ENDROOT
BRANCH   1  10
ATOM     10  C   LIG    1        2.166  -2.047  -0.350  0.00  0.00    +0.420 C 
BRANCH  10  14
ATOM     11  C   LIG    1        0.468   1.150  -0.692  0.00  0.00    +0.210 A 
ATOM     12  N   LIG    1        1.707   1.549  -0.637  0.00  0.00    -0.480 NA
ATOM     13  C   LIG    1        2.501   0.472  -0.506  0.00  0.00    +0.020 A 
ATOM     14  C   LIG    1        1.713  -0.616  -0.482  0.00  0.00    -0.080 A 
ATOM     15  C   LIG    1        4.005   0.482  -0.405  0.00  0.00    +0.160 C 
ATOM     16  O   LIG    1        0.441  -0.186  -0.599  0.00  0.00    -0.190 OA
BRANCH  11  18
ATOM     17  C   LIG    1       -1.040   2.244  -2.329  0.00  0.00    +0.050 C 
ATOM     18  C   LIG    1       -0.736   2.044  -0.843  0.00  0.00    +0.180 C 
ENDBRANCH  11  18
ENDBRANCH  10  14
ENDBRANCH   1  10
BRANCH   8  19
ATOM     19  C   LIG    1        1.883  -6.323   2.785  0.00  0.00    +0.090 C 
BRANCH  19  20
ATOM     20  C   LIG    1        2.276  -7.718   3.200  0.00  0.00    -0.080 A 
ATOM     21  C   LIG    1        3.037  -8.502   2.353  0.00  0.00    +0.050 A 
ATOM     22  C   LIG    1        3.403  -9.779   2.734  0.00  0.00    +0.040 A 
ATOM     23  C   LIG    1        2.999 -10.280   3.958  0.00  0.00    +0.020 A 
ATOM     24  C   LIG    1        2.233  -9.499   4.806  0.00  0.00    +0.070 A 
ATOM     25  F   LIG    1        1.838  -9.987   6.002  0.00  0.00    -0.130 F 
ATOM     26  C   LIG    1        1.871  -8.216   4.426  0.00  0.00    +0.070 A 
ATOM     27  F   LIG    1        1.123  -7.452   5.252  0.00  0.00    -0.120 F 
ENDBRANCH  19  20
ENDBRANCH   8  19
TORSDOF 5
