REMARK  Name = ZINCrD0000075Pnw.0
REMARK                            x       y       z     vdW  Elec       q    Type
REMARK                         _______ _______ _______ _____ _____    ______ ____
ROOT
ATOM      1  O   LIG    1       -0.519   8.021  -2.676  0.00  0.00    -0.340 OA
ENDROOT
BRANCH   1   3
ATOM      2  O   LIG    1        0.897   7.810  -0.993  0.00  0.00    -0.500 OA
ATOM      3  C   LIG    1       -0.038   7.360  -1.612  0.00  0.00    +0.490 C 
BRANCH   3   4
ATOM      4  C   LIG    1       -0.664   6.056  -1.189  0.00  0.00    -0.010 C 
ATOM      5  C   LIG    1       -1.434   6.038   0.133  0.00  0.00    +0.090 C 
ATOM      6  C   LIG    1       -0.070   5.350   0.032  0.00  0.00    +0.050 C 
BRANCH   6   7
ATOM      7  C   LIG    1       -0.050   3.843   0.023  0.00  0.00    -0.120 A 
ATOM      8  C   LIG    1       -0.863   3.145  -0.853  0.00  0.00    +0.130 A 
ATOM      9  C   LIG    1       -0.843   1.760  -0.861  0.00  0.00    -0.010 A 
ATOM     10  C   LIG    1       -0.012   1.076   0.006  0.00  0.00    +0.090 A 
ATOM     11  C   LIG    1        0.797   1.772   0.884  0.00  0.00    -0.010 A 
ATOM     12  F   LIG    1       -1.676   3.813  -1.700  0.00  0.00    -0.120 F 
ATOM     13  C   LIG    1        0.782   3.157   0.890  0.00  0.00    +0.140 A 
ATOM     14  F   LIG    1        1.576   3.837   1.746  0.00  0.00    -0.120 F 
ENDBRANCH   6   7
ENDBRANCH   3   4
ENDBRANCH   1   3
BRANCH   1  15
ATOM     15  C   LIG    1        0.133   9.271  -3.026  0.00  0.00    +0.220 C 
BRANCH  15  16
ATOM     16  C   LIG    1       -0.549   9.875  -4.256  0.00  0.00    +0.340 C 
BRANCH  16  17
ATOM     17  N   LIG    1       -1.928  10.238  -3.921  0.00  0.00    -0.550 N 
ATOM     18  C   LIG    1       -2.168  11.468  -3.448  0.00  0.00    +0.710 C 
ATOM     19  N   LIG    1       -3.398  11.898  -3.112  0.00  0.00    -0.730 N 
ATOM     20  H   LIG    1       -3.528  12.797  -2.773  0.00  0.00    +0.430 HD
ATOM     21  C   LIG    1       -4.544  10.986  -3.265  0.00  0.00    +0.310 C 
ATOM     22  C   LIG    1       -4.251   9.603  -3.800  0.00  0.00    -0.140 A 
ATOM     23  C   LIG    1       -5.253   8.678  -3.978  0.00  0.00    +0.060 A 
ATOM     24  C   LIG    1       -4.947   7.420  -4.471  0.00  0.00    -0.010 A 
ATOM     25  C   LIG    1       -3.638   7.098  -4.780  0.00  0.00    +0.050 A 
ATOM     26  C   LIG    1       -2.630   8.025  -4.601  0.00  0.00    -0.010 A 
ATOM     27  O   LIG    1       -1.232  12.232  -3.317  0.00  0.00    -0.580 OA
ATOM     28  C   LIG    1       -2.932   9.289  -4.113  0.00  0.00    +0.170 A 
ENDBRANCH  16  17
ENDBRANCH  15  16
ENDBRANCH   1  15
TORSDOF 6
