REMARK  Name = ZINCb80000002lVi.0
REMARK                            x       y       z     vdW  Elec       q    Type
REMARK                         _______ _______ _______ _____ _____    ______ ____
ROOT
ATOM      1  C   LIG    1        0.002  -0.004   0.002  0.00  0.00    -0.020 C 
ATOM      2  C   LIG    1        1.482  -0.441   0.011  0.00  0.00    +0.090 C 
ATOM      3  C   LIG    1        2.209   0.798   0.597  0.00  0.00    +0.070 C 
ATOM      4  C   LIG    1        1.377   1.960  -0.001  0.00  0.00    +0.250 C 
ATOM      5  N   LIG    1       -0.018   1.470   0.010  0.00  0.00    -0.490 N 
ATOM      6  H   LIG    1       -0.487   1.799   0.841  0.00  0.00    +0.430 HD
ATOM      7  H   LIG    1       -0.503   1.808  -0.808  0.00  0.00    +0.410 HD
ENDROOT
BRANCH   1   8
ATOM      8  C   LIG    1       -0.700  -0.533   1.226  0.00  0.00    +0.500 C 
ATOM      9  O   LIG    1       -0.790  -1.736   1.405  0.00  0.00    -0.620 OA
ATOM     10  O   LIG    1       -1.177   0.242   2.038  0.00  0.00    -0.670 OA
ENDBRANCH   1   8
BRANCH   1  11
ATOM     11  C   LIG    1       -0.688  -0.527  -1.260  0.00  0.00    +0.200 C 
BRANCH  11  13
ATOM     12  C   LIG    1       -0.642  -3.173  -1.257  0.00  0.00    +0.070 C 
ATOM     13  C   LIG    1       -0.662  -1.999  -1.258  0.00  0.00    -0.190 C 
ENDBRANCH  11  13
ENDBRANCH   1  11
TORSDOF 3
