REMARK  Name = ZINCrH000004r0ux.1
REMARK                            x       y       z     vdW  Elec       q    Type
REMARK                         _______ _______ _______ _____ _____    ______ ____
ROOT
ATOM      1  N   LIG    1       -5.073   4.654   0.963  0.00  0.00    -0.680 NA
ATOM      2  H   LIG    1       -4.759   4.066   1.721  0.00  0.00    +0.340 HD
ENDROOT
BRANCH   1   3
ATOM      3  C   LIG    1       -3.961   4.991   0.064  0.00  0.00    +0.190 C 
ATOM      4  C   LIG    1       -4.498   5.217  -1.351  0.00  0.00    +0.050 C 
BRANCH   3   5
ATOM      5  C   LIG    1       -2.966   3.860   0.049  0.00  0.00    -0.080 A 
ATOM      6  C   LIG    1       -3.412   2.550   0.046  0.00  0.00    +0.070 A 
ATOM      7  C   LIG    1       -2.506   1.507   0.033  0.00  0.00    +0.040 A 
ATOM      8  C   LIG    1       -1.147   1.775   0.016  0.00  0.00    +0.070 A 
ATOM      9  N   LIG    1       -0.011   0.966   0.007  0.00  0.00    -0.650 N 
ATOM     10  H   LIG    1        0.002  -0.004   0.002  0.00  0.00    +0.440 HD
ATOM     11  C   LIG    1        1.065   1.778   0.001  0.00  0.00    +0.640 A 
ATOM     12  O   LIG    1        0.660   3.057   0.012  0.00  0.00    -0.240 OA
ATOM     13  O   LIG    1        2.223   1.408  -0.012  0.00  0.00    -0.480 OA
ATOM     14  C   LIG    1       -0.695   3.095   0.025  0.00  0.00    +0.040 A 
ATOM     15  C   LIG    1       -1.612   4.135   0.038  0.00  0.00    +0.070 A 
ENDBRANCH   3   5
ENDBRANCH   1   3
BRANCH   1  16
ATOM     16  C   LIG    1       -5.725   5.867   1.472  0.00  0.00    +0.260 C 
BRANCH  16  19
ATOM     17  N   LIG    1       -8.858   5.055   3.156  0.00  0.00    -0.320 N 
ATOM     18  C   LIG    1       -8.171   5.451   2.061  0.00  0.00    +0.260 A 
ATOM     19  C   LIG    1       -6.858   5.482   2.388  0.00  0.00    -0.220 A 
ATOM     20  C   LIG    1       -6.737   5.088   3.725  0.00  0.00    +0.090 A 
ATOM     21  C   LIG    1       -5.450   4.974   4.500  0.00  0.00    +0.150 C 
ATOM     22  N   LIG    1       -7.936   4.837   4.188  0.00  0.00    -0.290 NA
BRANCH  17  27
ATOM     23  C   LIG    1      -14.484   4.398   3.511  0.00  0.00    +0.090 C 
ATOM     24  C   LIG    1      -12.991   4.573   3.417  0.00  0.00    -0.090 A 
ATOM     25  C   LIG    1      -12.195   4.320   4.519  0.00  0.00    +0.030 A 
ATOM     26  C   LIG    1      -10.826   4.479   4.436  0.00  0.00    +0.020 A 
ATOM     27  C   LIG    1      -10.248   4.893   3.244  0.00  0.00    +0.150 A 
ATOM     28  C   LIG    1      -11.049   5.152   2.140  0.00  0.00    -0.010 A 
ATOM     29  C   LIG    1      -12.418   4.986   2.228  0.00  0.00    +0.040 A 
ENDBRANCH  17  27
ENDBRANCH  16  19
ENDBRANCH   1  16
TORSDOF 5
