REMARK  Name = ZINCpe00000MJITZ.0
REMARK                            x       y       z     vdW  Elec       q    Type
REMARK                         _______ _______ _______ _____ _____    ______ ____
ROOT
ATOM      1  C   LIG    1        5.536  -0.145   1.359  0.00  0.00    +0.560 C 
ATOM      2  N   LIG    1        4.753   0.539   0.501  0.00  0.00    -0.700 N 
ATOM      3  H   LIG    1        4.223   0.062  -0.157  0.00  0.00    +0.410 HD
ATOM      4  O   LIG    1        6.201   0.452   2.183  0.00  0.00    -0.530 OA
ENDROOT
BRANCH   1   7
ATOM      5  C   LIG    1        6.443  -3.711   2.129  0.00  0.00    +0.170 A 
ATOM      6  C   LIG    1        6.401  -2.328   2.183  0.00  0.00    +0.000 A 
ATOM      7  C   LIG    1        5.586  -1.622   1.298  0.00  0.00    -0.070 A 
ATOM      8  C   LIG    1        4.822  -2.308   0.351  0.00  0.00    +0.020 A 
ATOM      9  C   LIG    1        4.865  -3.682   0.290  0.00  0.00    +0.110 A 
ATOM     10  C   LIG    1        5.675  -4.396   1.177  0.00  0.00    -0.040 A 
BRANCH   5  12
ATOM     11  C   LIG    1        7.986  -3.637   3.934  0.00  0.00    +0.250 C 
ATOM     12  O   LIG    1        7.231  -4.401   2.992  0.00  0.00    -0.310 OA
ENDBRANCH   5  12
BRANCH  10  13
ATOM     13  C   LIG    1        5.721  -5.826   1.114  0.00  0.00    +0.260 C 
ATOM     14  N   LIG    1        5.757  -6.960   1.063  0.00  0.00    -0.400 NA
ENDBRANCH  10  13
ENDBRANCH   1   7
BRANCH   2  15
ATOM     15  C   LIG    1        4.704   2.002   0.561  0.00  0.00    +0.240 C 
ATOM     16  C   LIG    1        5.777   2.616  -0.359  0.00  0.00    +0.210 C 
ATOM     17  O   LIG    1        5.095   3.440  -1.320  0.00  0.00    -0.360 OA
ATOM     18  C   LIG    1        3.762   2.903  -1.465  0.00  0.00    +0.210 C 
ATOM     19  C   LIG    1        3.365   2.523  -0.016  0.00  0.00    +0.150 C 
BRANCH  19  20
ATOM     20  O   LIG    1        2.373   1.494  -0.012  0.00  0.00    -0.290 OA
BRANCH  20  21
ATOM     21  C   LIG    1        1.070   1.892   0.002  0.00  0.00    -0.030 A 
ATOM     22  C   LIG    1       -0.013   1.076   0.008  0.00  0.00    +0.210 A 
ATOM     23  N   LIG    1       -1.120   1.863   0.017  0.00  0.00    -0.370 N 
ATOM     24  N   LIG    1       -0.696   3.199   0.026  0.00  0.00    -0.270 NA
ATOM     25  C   LIG    1       -2.509   1.399   0.020  0.00  0.00    +0.360 C 
ATOM     26  C   LIG    1        0.612   3.216   0.013  0.00  0.00    +0.190 A 
ENDBRANCH  20  21
ENDBRANCH  19  20
ENDBRANCH   2  15
TORSDOF 6
