REMARK  Name = ZINCrg00001JduYa.0
REMARK                            x       y       z     vdW  Elec       q    Type
REMARK                         _______ _______ _______ _____ _____    ______ ____
ROOT
ATOM      1  C   LIG    1        3.220   4.982  -3.079  0.00  0.00    +0.290 C 
ENDROOT
BRANCH   1   3
ATOM      2  C   LIG    1        1.235   6.112  -4.184  0.00  0.00    +0.320 C 
ATOM      3  N   LIG    1        2.374   6.163  -3.264  0.00  0.00    -1.000 NA
BRANCH   3   4
ATOM      4  S   LIG    1        2.704   7.557  -2.432  0.00  0.00    +2.680 S 
ATOM      5  O   LIG    1        3.604   7.200  -1.392  0.00  0.00    -0.930 OA
ATOM      6  O   LIG    1        1.454   8.189  -2.195  0.00  0.00    -0.940 OA
BRANCH   4   7
ATOM      7  C   LIG    1        3.597   8.615  -3.522  0.00  0.00    -0.640 A 
ATOM      8  C   LIG    1        3.021   9.782  -3.978  0.00  0.00    +0.140 A 
ATOM      9  C   LIG    1        3.721  10.614  -4.834  0.00  0.00    +0.040 A 
ATOM     10  C   LIG    1        5.002  10.283  -5.237  0.00  0.00    +0.090 A 
ATOM     11  C   LIG    1        5.590   9.119  -4.788  0.00  0.00    +0.060 A 
ATOM     12  C   LIG    1        4.892   8.277  -3.920  0.00  0.00    +0.070 A 
BRANCH  12  13
ATOM     13  C   LIG    1        5.499   7.070  -3.445  0.00  0.00    +0.220 C 
ATOM     14  N   LIG    1        5.981   6.113  -3.068  0.00  0.00    -0.360 NA
ENDBRANCH  12  13
ENDBRANCH   4   7
ENDBRANCH   3   4
ENDBRANCH   1   3
BRANCH   1  15
ATOM     15  C   LIG    1        2.538   4.013  -2.111  0.00  0.00    +0.250 C 
BRANCH  15  16
ATOM     16  N   LIG    1        3.385   2.831  -1.927  0.00  0.00    -1.110 NA
ATOM     17  H   LIG    1        4.115   2.657  -2.541  0.00  0.00    +0.420 HD
BRANCH  16  18
ATOM     18  S   LIG    1        3.095   1.793  -0.669  0.00  0.00    +2.690 S 
ATOM     19  O   LIG    1        4.050   0.747  -0.784  0.00  0.00    -0.940 OA
ATOM     20  O   LIG    1        2.960   2.599   0.493  0.00  0.00    -0.940 OA
BRANCH  18  21
ATOM     21  C   LIG    1        1.518   1.060  -0.952  0.00  0.00    -0.640 A 
ATOM     22  C   LIG    1        1.418  -0.295  -1.189  0.00  0.00    +0.140 A 
ATOM     23  C   LIG    1        0.180  -0.873  -1.412  0.00  0.00    +0.030 A 
ATOM     24  C   LIG    1       -0.965  -0.097  -1.398  0.00  0.00    +0.090 A 
ATOM     25  C   LIG    1       -0.880   1.260  -1.161  0.00  0.00    +0.060 A 
ATOM     26  C   LIG    1        0.366   1.849  -0.936  0.00  0.00    +0.070 A 
BRANCH  26  27
ATOM     27  C   LIG    1        0.461   3.256  -0.689  0.00  0.00    +0.210 C 
ATOM     28  N   LIG    1        0.537   4.373  -0.493  0.00  0.00    -0.350 NA
ENDBRANCH  26  27
ENDBRANCH  18  21
ENDBRANCH  16  18
ENDBRANCH  15  16
ENDBRANCH   1  15
TORSDOF 9
