REMARK  Name = ZINCqH00000036OE.0
REMARK                            x       y       z     vdW  Elec       q    Type
REMARK                         _______ _______ _______ _____ _____    ______ ____
ROOT
ATOM      1  N   LIG    1       -1.822   0.936   1.688  0.00  0.00    -0.610 N 
ATOM      2  C   LIG    1       -0.718   1.572   1.248  0.00  0.00    +0.510 C 
ATOM      3  O   LIG    1       -0.292   2.535   1.849  0.00  0.00    -0.500 OA
ENDROOT
BRANCH   1   5
ATOM      4  C   LIG    1       -1.693  -1.500   1.516  0.00  0.00    +0.020 C 
ATOM      5  C   LIG    1       -2.336  -0.228   0.962  0.00  0.00    +0.260 C 
ENDBRANCH   1   5
BRANCH   2   6
ATOM      6  C   LIG    1       -0.013   1.086   0.008  0.00  0.00    +0.250 C 
BRANCH   6   7
ATOM      7  N   LIG    1        1.362   1.593  -0.002  0.00  0.00    -0.720 N 
ATOM      8  H   LIG    1        2.107   0.973  -0.013  0.00  0.00    +0.400 HD
ATOM      9  C   LIG    1        1.590   2.921   0.003  0.00  0.00    +0.520 C 
ATOM     10  O   LIG    1        0.658   3.697   0.016  0.00  0.00    -0.520 OA
ATOM     11  C   LIG    1        3.004   3.443  -0.008  0.00  0.00    +0.080 C 
ENDBRANCH   6   7
BRANCH   6  12
ATOM     12  C   LIG    1       -0.753   1.593  -1.232  0.00  0.00    +0.040 C 
BRANCH  12  13
ATOM     13  C   LIG    1       -0.111   0.998  -2.487  0.00  0.00    -0.010 C 
ATOM     14  C   LIG    1        1.063   1.828  -3.031  0.00  0.00    +0.010 C 
ATOM     15  C   LIG    1        0.523   1.526  -4.438  0.00  0.00    +0.010 C 
ATOM     16  C   LIG    1       -0.858   1.349  -3.785  0.00  0.00    +0.010 C 
ENDBRANCH  12  13
ENDBRANCH   6  12
ENDBRANCH   2   6
BRANCH   1  17
ATOM     17  C   LIG    1       -2.508   1.409   2.894  0.00  0.00    +0.340 C 
BRANCH  17  18
ATOM     18  C   LIG    1       -3.552   2.425   2.511  0.00  0.00    -0.080 A 
ATOM     19  C   LIG    1       -3.224   3.767   2.458  0.00  0.00    +0.050 A 
ATOM     20  C   LIG    1       -4.181   4.699   2.103  0.00  0.00    +0.070 A 
ATOM     21  C   LIG    1       -5.469   4.290   1.811  0.00  0.00    -0.180 A 
ATOM     22  C   LIG    1       -5.798   2.949   1.869  0.00  0.00    +0.070 A 
ATOM     23  C   LIG    1       -4.840   2.016   2.219  0.00  0.00    +0.020 A 
BRANCH  21  24
ATOM     24  C   LIG    1       -6.514   5.307   1.429  0.00  0.00    +0.510 C 
ATOM     25  F   LIG    1       -7.443   4.718   0.564  0.00  0.00    -0.180 F 
ATOM     26  F   LIG    1       -5.900   6.388   0.788  0.00  0.00    -0.180 F 
ATOM     27  F   LIG    1       -7.169   5.757   2.580  0.00  0.00    -0.180 F 
ENDBRANCH  21  24
ENDBRANCH  17  18
ENDBRANCH   1  17
TORSDOF 8
