REMARK  Name = ZINCnE000001PK5z.0
REMARK                            x       y       z     vdW  Elec       q    Type
REMARK                         _______ _______ _______ _____ _____    ______ ____
ROOT
ATOM      1  N   LIG    1       -0.700   1.566   1.216  0.00  0.00    -0.750 N 
ATOM      2  H   LIG    1       -1.377   2.256   1.132  0.00  0.00    +0.400 HD
ENDROOT
BRANCH   1   7
ATOM      3  C   LIG    1        1.336   0.156   6.330  0.00  0.00    +0.090 C 
ATOM      4  C   LIG    1        0.793   0.533   4.975  0.00  0.00    -0.100 A 
ATOM      5  C   LIG    1        1.260  -0.104   3.844  0.00  0.00    +0.010 A 
ATOM      6  C   LIG    1        0.766   0.237   2.599  0.00  0.00    -0.090 A 
ATOM      7  C   LIG    1       -0.205   1.225   2.477  0.00  0.00    +0.180 A 
ATOM      8  C   LIG    1       -0.677   1.876   3.607  0.00  0.00    -0.030 A 
ATOM      9  C   LIG    1       -0.182   1.527   4.865  0.00  0.00    -0.100 A 
BRANCH   9  10
ATOM     10  C   LIG    1       -0.683   2.210   6.073  0.00  0.00    +0.520 C 
ATOM     11  O   LIG    1       -0.167   1.989   7.159  0.00  0.00    -0.680 OA
ATOM     12  O   LIG    1       -1.615   2.998   5.988  0.00  0.00    -0.690 OA
ENDBRANCH   9  10
ENDBRANCH   1   7
BRANCH   1  13
ATOM     13  C   LIG    1       -0.197   0.883   0.022  0.00  0.00    +0.330 C 
BRANCH  13  14
ATOM     14  C   LIG    1       -0.888   1.432  -1.199  0.00  0.00    -0.240 A 
ATOM     15  C   LIG    1       -0.470   2.479  -1.948  0.00  0.00    +0.250 A 
ATOM     16  N   LIG    1       -1.363   2.652  -2.948  0.00  0.00    -0.320 N 
ATOM     17  N   LIG    1       -2.361   1.680  -2.808  0.00  0.00    -0.290 NA
ATOM     18  C   LIG    1       -2.073   0.945  -1.763  0.00  0.00    +0.270 A 
BRANCH  16  19
ATOM     19  C   LIG    1       -1.301   3.632  -3.949  0.00  0.00    +0.160 A 
ATOM     20  C   LIG    1       -0.253   4.542  -3.967  0.00  0.00    -0.010 A 
ATOM     21  C   LIG    1       -0.191   5.502  -4.958  0.00  0.00    +0.040 A 
ATOM     22  C   LIG    1       -1.178   5.565  -5.925  0.00  0.00    +0.000 A 
ATOM     23  C   LIG    1       -2.227   4.664  -5.905  0.00  0.00    +0.030 A 
ATOM     24  C   LIG    1       -2.291   3.698  -4.921  0.00  0.00    +0.020 A 
ENDBRANCH  16  19
ENDBRANCH  13  14
ENDBRANCH   1  13
TORSDOF 5
