REMARK  Name = ZINCrg00001Jdv2k.0
REMARK                            x       y       z     vdW  Elec       q    Type
REMARK                         _______ _______ _______ _____ _____    ______ ____
ROOT
ATOM      1  C   LIG    1       -2.767  -2.505   0.199  0.00  0.00    +0.670 C 
ATOM      2  N   LIG    1       -1.691  -1.741  -0.075  0.00  0.00    -0.610 N 
ATOM      3  C   LIG    1       -0.758  -1.941  -1.199  0.00  0.00    +0.320 C 
ATOM      4  C   LIG    1       -0.130  -0.547  -1.446  0.00  0.00    +0.000 C 
ATOM      5  C   LIG    1        0.002  -0.004   0.002  0.00  0.00    +0.280 C 
ATOM      6  C   LIG    1       -1.252  -0.571   0.700  0.00  0.00    +0.290 C 
ATOM      7  O   LIG    1       -3.036  -3.453  -0.513  0.00  0.00    -0.550 OA
ENDROOT
BRANCH   5   8
ATOM      8  N   LIG    1       -0.018   1.461   0.010  0.00  0.00    -0.290 N 
ATOM      9  C   LIG    1       -1.125   2.239   0.019  0.00  0.00    +0.180 A 
ATOM     10  C   LIG    1       -0.686   3.519   0.026  0.00  0.00    -0.030 A 
ATOM     11  N   LIG    1        0.650   3.463   0.014  0.00  0.00    -0.250 NA
ATOM     12  N   LIG    1        1.015   2.229   0.004  0.00  0.00    -0.070 NA
BRANCH  10  13
ATOM     13  C   LIG    1       -1.536   4.763   0.040  0.00  0.00    +0.360 C 
BRANCH  13  14
ATOM     14  O   LIG    1       -2.917   4.397   0.050  0.00  0.00    -0.290 OA
BRANCH  14  15
ATOM     15  C   LIG    1       -3.821   5.406   0.063  0.00  0.00    +0.510 A 
ATOM     16  N   LIG    1       -3.392   6.657   0.071  0.00  0.00    -0.570 NA
ATOM     17  C   LIG    1       -4.247   7.666   0.080  0.00  0.00    +0.370 A 
ATOM     18  C   LIG    1       -5.607   7.399   0.090  0.00  0.00    -0.120 A 
ATOM     19  C   LIG    1       -6.021   6.076   0.087  0.00  0.00    +0.370 A 
ATOM     20  N   LIG    1       -5.112   5.115   0.073  0.00  0.00    -0.520 NA
ENDBRANCH  14  15
ENDBRANCH  13  14
ENDBRANCH  10  13
ENDBRANCH   5   8
BRANCH   1  21
ATOM     21  O   LIG    1       -3.545  -2.218   1.259  0.00  0.00    -0.360 OA
BRANCH  21  23
ATOM     22  C   LIG    1       -4.203  -4.518   1.714  0.00  0.00    +0.040 C 
ATOM     23  C   LIG    1       -4.687  -3.084   1.493  0.00  0.00    +0.140 C 
ATOM     24  C   LIG    1       -5.617  -3.041   0.278  0.00  0.00    +0.030 C 
ATOM     25  C   LIG    1       -5.445  -2.604   2.732  0.00  0.00    +0.080 C 
ENDBRANCH  21  23
ENDBRANCH   1  21
BRANCH   4  26
ATOM     26  C   LIG    1        1.242  -0.673  -2.111  0.00  0.00    +0.210 C 
BRANCH  26  27
ATOM     27  O   LIG    1        1.075  -1.062  -3.476  0.00  0.00    -0.570 OA
ATOM     28  H   LIG    1        1.905  -1.162  -3.961  0.00  0.00    +0.390 HD
ENDBRANCH  26  27
ENDBRANCH   4  26
TORSDOF 8
