REMARK  Name = ZINCqH0000034ibF.1
REMARK                            x       y       z     vdW  Elec       q    Type
REMARK                         _______ _______ _______ _____ _____    ______ ____
ROOT
ATOM      1  C   LIG    1        1.058   2.623  -0.699  0.00  0.00    +0.210 A 
ATOM      2  C   LIG    1        2.165   1.796  -0.825  0.00  0.00    -0.040 A 
ATOM      3  C   LIG    1        2.007   0.486  -1.233  0.00  0.00    +0.070 A 
ATOM      4  C   LIG    1        0.747  -0.009  -1.518  0.00  0.00    +0.000 A 
ATOM      5  C   LIG    1       -0.364   0.802  -1.398  0.00  0.00    +0.100 A 
ATOM      6  C   LIG    1       -0.217   2.124  -0.988  0.00  0.00    -0.040 A 
ENDROOT
BRANCH   6   7
ATOM      7  C   LIG    1       -1.407   3.002  -0.863  0.00  0.00    +0.280 A 
ATOM      8  N   LIG    1       -1.393   4.262  -0.487  0.00  0.00    -0.320 NA
ATOM      9  N   LIG    1       -2.726   4.704  -0.508  0.00  0.00    -0.480 N 
ATOM     10  H   LIG    1       -3.047   5.591  -0.282  0.00  0.00    +0.440 HD
ATOM     11  C   LIG    1       -3.470   3.656  -0.905  0.00  0.00    +0.330 A 
ATOM     12  N   LIG    1       -2.672   2.644  -1.120  0.00  0.00    -0.520 NA
BRANCH  11  13
ATOM     13  C   LIG    1       -4.967   3.652  -1.078  0.00  0.00    +0.050 C 
ATOM     14  C   LIG    1       -5.757   4.792  -0.431  0.00  0.00    +0.040 C 
ATOM     15  C   LIG    1       -5.821   3.382   0.163  0.00  0.00    +0.060 C 
ENDBRANCH  11  13
ENDBRANCH   6   7
BRANCH   1  16
ATOM     16  N   LIG    1        1.216   3.947  -0.288  0.00  0.00    -1.040 N 
ATOM     17  H   LIG    1        0.545   4.363   0.275  0.00  0.00    +0.430 HD
BRANCH  16  18
ATOM     18  S   LIG    1        2.549   4.808  -0.761  0.00  0.00    +2.690 S 
ATOM     19  O   LIG    1        2.401   6.110  -0.212  0.00  0.00    -0.940 OA
ATOM     20  O   LIG    1        2.711   4.564  -2.152  0.00  0.00    -0.940 OA
BRANCH  18  26
ATOM     21  C   LIG    1        4.035   4.097   1.416  0.00  0.00    +0.030 A 
ATOM     22  C   LIG    1        5.130   3.532   2.041  0.00  0.00    -0.010 A 
ATOM     23  C   LIG    1        6.136   2.956   1.287  0.00  0.00    +0.070 A 
ATOM     24  C   LIG    1        6.046   2.945  -0.092  0.00  0.00    +0.000 A 
ATOM     25  C   LIG    1        4.948   3.507  -0.717  0.00  0.00    +0.130 A 
ATOM     26  C   LIG    1        3.946   4.087   0.036  0.00  0.00    -0.680 A 
BRANCH  21  28
ATOM     27  C   LIG    1        1.879   3.671   2.563  0.00  0.00    +0.030 C 
ATOM     28  C   LIG    1        2.939   4.725   2.238  0.00  0.00    +0.050 C 
ENDBRANCH  21  28
ENDBRANCH  18  26
ENDBRANCH  16  18
ENDBRANCH   1  16
TORSDOF 6
