REMARK  Name = ZINCtV00000L6kFQ.0
REMARK                            x       y       z     vdW  Elec       q    Type
REMARK                         _______ _______ _______ _____ _____    ______ ____
ROOT
ATOM      1  C   LIG    1        3.780   1.525  -1.709  0.00  0.00    +0.430 A 
ATOM      2  C   LIG    1        3.114   0.691  -0.839  0.00  0.00    -0.160 A 
ATOM      3  C   LIG    1        2.625  -0.536  -1.263  0.00  0.00    +0.060 A 
ATOM      4  C   LIG    1        2.817  -0.931  -2.587  0.00  0.00    -0.050 A 
ATOM      5  C   LIG    1        3.534  -0.029  -3.494  0.00  0.00    +0.340 A 
ATOM      6  N   LIG    1        3.854  -0.142  -4.770  0.00  0.00    -0.490 NA
ATOM      7  C   LIG    1        4.525   0.964  -5.171  0.00  0.00    +0.100 A 
ATOM      8  C   LIG    1        5.082   1.357  -6.394  0.00  0.00    +0.060 A 
ATOM      9  C   LIG    1        5.719   2.572  -6.495  0.00  0.00    +0.030 A 
ATOM     10  C   LIG    1        5.816   3.412  -5.395  0.00  0.00    +0.010 A 
ATOM     11  C   LIG    1        5.272   3.041  -4.183  0.00  0.00    +0.040 A 
ATOM     12  C   LIG    1        4.626   1.820  -4.060  0.00  0.00    +0.010 A 
ATOM     13  C   LIG    1        1.893  -1.436  -0.300  0.00  0.00    +0.130 C 
ATOM     14  N   LIG    1        3.993   1.173  -3.012  0.00  0.00    -0.410 N 
ENDROOT
BRANCH   1  15
ATOM     15  N   LIG    1        4.246   2.735  -1.256  0.00  0.00    -0.760 N 
ATOM     16  H   LIG    1        3.620   3.436  -1.014  0.00  0.00    +0.410 HD
BRANCH  15  17
ATOM     17  C   LIG    1        5.687   2.968  -1.138  0.00  0.00    +0.220 C 
ATOM     18  C   LIG    1        6.260   2.072  -0.038  0.00  0.00    +0.030 C 
BRANCH  17  20
ATOM     19  C   LIG    1        5.487   5.325  -1.943  0.00  0.00    +0.020 C 
ATOM     20  C   LIG    1        5.940   4.435  -0.784  0.00  0.00    +0.030 C 
ENDBRANCH  17  20
ENDBRANCH  15  17
ENDBRANCH   1  15
BRANCH   4  21
ATOM     21  C   LIG    1        2.323  -2.192  -3.051  0.00  0.00    +0.270 C 
ATOM     22  N   LIG    1        1.931  -3.193  -3.420  0.00  0.00    -0.400 NA
ENDBRANCH   4  21
BRANCH   2  23
ATOM     23  C   LIG    1        2.908   1.121   0.591  0.00  0.00    +0.170 C 
BRANCH  23  24
ATOM     24  C   LIG    1        1.555   1.770   0.731  0.00  0.00    -0.070 A 
ATOM     25  C   LIG    1        0.449   1.002   1.044  0.00  0.00    +0.030 A 
ATOM     26  C   LIG    1       -0.793   1.595   1.167  0.00  0.00    +0.040 A 
ATOM     27  C   LIG    1       -0.928   2.961   0.986  0.00  0.00    -0.040 A 
ATOM     28  C   LIG    1        0.179   3.729   0.671  0.00  0.00    +0.020 A 
ATOM     29 CL   LIG    1       -2.486   3.708   1.146  0.00  0.00    -0.070 Cl
ATOM     30  C   LIG    1        1.420   3.133   0.544  0.00  0.00    +0.020 A 
ENDBRANCH  23  24
ENDBRANCH   2  23
TORSDOF 6
