REMARK  Name = ZINCrg00000B0scq.0
REMARK                            x       y       z     vdW  Elec       q    Type
REMARK                         _______ _______ _______ _____ _____    ______ ____
ROOT
ATOM      1  C   LIG    1        0.832   4.397  -0.670  0.00  0.00    +0.100 A 
ATOM      2  N   LIG    1       -0.484   4.299  -0.550  0.00  0.00    -0.310 NA
ATOM      3  C   LIG    1       -1.067   5.320  -1.151  0.00  0.00    -0.570 A 
ATOM      4  C   LIG    1       -0.067   6.126  -1.693  0.00  0.00    +0.130 A 
ATOM      5  C   LIG    1       -0.085   7.322  -2.429  0.00  0.00    +0.060 A 
ATOM      6  C   LIG    1        1.096   7.877  -2.825  0.00  0.00    +0.090 A 
ATOM      7  C   LIG    1        2.304   7.245  -2.491  0.00  0.00    +0.030 A 
ATOM      8  C   LIG    1        2.302   6.094  -1.783  0.00  0.00    +0.270 A 
ATOM      9  N   LIG    1        1.129   5.533  -1.376  0.00  0.00    -0.320 N 
ENDROOT
BRANCH   1  16
ATOM     10  C   LIG    1        2.344   1.407   1.106  0.00  0.00    +0.310 C 
ATOM     11  C   LIG    1        2.209   0.002   0.511  0.00  0.00    +0.030 C 
ATOM     12  C   LIG    1        0.750  -0.450   0.605  0.00  0.00    +0.020 C 
ATOM     13  C   LIG    1       -0.134   0.503  -0.202  0.00  0.00    -0.000 C 
ATOM     14  C   LIG    1       -0.026   1.914   0.386  0.00  0.00    +0.280 C 
ATOM     15  N   LIG    1        1.391   2.299   0.432  0.00  0.00    -0.580 N 
ATOM     16  C   LIG    1        1.808   3.450  -0.132  0.00  0.00    +0.610 C 
ATOM     17  O   LIG    1        2.998   3.700  -0.194  0.00  0.00    -0.520 OA
BRANCH  10  21
ATOM     18  C   LIG    1        6.899   3.334   1.919  0.00  0.00    +0.350 C 
ATOM     19  N   LIG    1        5.729   2.753   1.254  0.00  0.00    -0.380 N 
ATOM     20  C   LIG    1        4.565   2.417   1.847  0.00  0.00    +0.220 A 
ATOM     21  C   LIG    1        3.747   1.913   0.894  0.00  0.00    -0.220 A 
ATOM     22  C   LIG    1        4.432   1.951  -0.325  0.00  0.00    +0.280 A 
ATOM     23  N   LIG    1        5.621   2.455  -0.110  0.00  0.00    -0.300 NA
ENDBRANCH  10  21
ENDBRANCH   1  16
BRANCH   3  24
ATOM     24  S   LIG    1       -2.801   5.612  -1.251  0.00  0.00    +2.740 S 
ATOM     25  O   LIG    1       -3.431   4.349  -1.084  0.00  0.00    -0.940 OA
ATOM     26  O   LIG    1       -3.005   6.438  -2.389  0.00  0.00    -0.960 OA
BRANCH  24  27
ATOM     27  N   LIG    1       -3.221   6.522   0.068  0.00  0.00    -1.250 NA
ATOM     28  H   LIG    1       -4.144   6.791   0.197  0.00  0.00    +0.420 HD
ATOM     29  H   LIG    1       -2.545   6.785   0.711  0.00  0.00    +0.420 HD
ENDBRANCH  24  27
ENDBRANCH   3  24
TORSDOF 4
