REMARK  Name = ZINCpe000000VaKf.0
REMARK                            x       y       z     vdW  Elec       q    Type
REMARK                         _______ _______ _______ _____ _____    ______ ____
ROOT
ATOM      1  N   LIG    1        2.627   4.014  -0.002  0.00  0.00    -0.710 N 
ATOM      2  H   LIG    1        3.077   4.223   0.832  0.00  0.00    +0.410 HD
ATOM      3  C   LIG    1        3.290   4.123  -1.170  0.00  0.00    +0.510 C 
ATOM      4  O   LIG    1        2.728   3.861  -2.212  0.00  0.00    -0.510 OA
ENDROOT
BRANCH   1   5
ATOM      5  C   LIG    1        1.228   3.579   0.010  0.00  0.00    +0.310 C 
BRANCH   5   6
ATOM      6  C   LIG    1        1.170   2.073   0.002  0.00  0.00    +0.450 C 
ATOM      7  O   LIG    1        2.192   1.429  -0.011  0.00  0.00    -0.490 OA
BRANCH   6   8
ATOM      8  O   LIG    1       -0.018   1.448   0.010  0.00  0.00    -0.360 OA
ATOM      9  C   LIG    1        0.002  -0.004   0.002  0.00  0.00    +0.290 C 
ENDBRANCH   6   8
ENDBRANCH   5   6
BRANCH   5  10
ATOM     10  C   LIG    1        0.539   4.110   1.268  0.00  0.00    +0.140 C 
BRANCH  10  11
ATOM     11  C   LIG    1        0.489   5.615   1.216  0.00  0.00    +0.460 C 
ATOM     12  O   LIG    1        0.956   6.203   0.270  0.00  0.00    -0.490 OA
BRANCH  11  14
ATOM     13  C   LIG    1       -0.088   7.750   2.105  0.00  0.00    +0.280 C 
ATOM     14  O   LIG    1       -0.075   6.303   2.222  0.00  0.00    -0.360 OA
ENDBRANCH  11  14
ENDBRANCH  10  11
ENDBRANCH   5  10
ENDBRANCH   1   5
BRANCH   3  15
ATOM     15  C   LIG    1        4.729   4.569  -1.181  0.00  0.00    +0.340 C 
BRANCH  15  16
ATOM     16  N   LIG    1        5.218   4.607  -2.562  0.00  0.00    -0.470 N 
ATOM     17  C   LIG    1        5.903   3.597  -3.181  0.00  0.00    +0.240 A 
ATOM     18  C   LIG    1        6.201   3.951  -4.441  0.00  0.00    -0.050 A 
ATOM     19  C   LIG    1        5.670   5.302  -4.644  0.00  0.00    -0.070 A 
ATOM     20  C   LIG    1        5.668   6.190  -5.721  0.00  0.00    +0.020 A 
ATOM     21  C   LIG    1        5.065   7.425  -5.585  0.00  0.00    +0.100 A 
ATOM     22  C   LIG    1        4.463   7.783  -4.383  0.00  0.00    -0.050 A 
ATOM     23  C   LIG    1        4.460   6.915  -3.313  0.00  0.00    +0.030 A 
ATOM     24  C   LIG    1        5.061   5.667  -3.430  0.00  0.00    +0.080 A 
BRANCH  21  25
ATOM     25  O   LIG    1        5.059   8.294  -6.631  0.00  0.00    -0.320 OA
ATOM     26  C   LIG    1        4.419   9.554  -6.424  0.00  0.00    +0.230 C 
ENDBRANCH  21  25
ENDBRANCH  15  16
ENDBRANCH   3  15
TORSDOF 9
