REMARK  Name = ZINCtV00001bB3Pp.0
REMARK                            x       y       z     vdW  Elec       q    Type
REMARK                         _______ _______ _______ _____ _____    ______ ____
ROOT
ATOM      1  N   LIG    1       -6.690  -0.471   2.437  0.00  0.00    -0.530 NA
ATOM      2  C   LIG    1       -5.548  -0.675   1.821  0.00  0.00    +0.440 C 
ATOM      3  S   LIG    1       -4.869   0.359   0.560  0.00  0.00    -0.120 S 
ATOM      4  C   LIG    1       -3.358  -0.622   0.296  0.00  0.00    +0.060 C 
ATOM      5  C   LIG    1       -3.484  -1.786   1.284  0.00  0.00    +0.300 C 
ATOM      6  N   LIG    1       -4.705  -1.713   2.054  0.00  0.00    -0.590 N 
ENDROOT
BRANCH   1  14
ATOM      7  C   LIG    1       -7.656   1.320   4.420  0.00  0.00    +0.110 C 
ATOM      8  C   LIG    1       -8.019   1.453   2.964  0.00  0.00    -0.080 A 
ATOM      9  C   LIG    1       -8.849   2.474   2.548  0.00  0.00    -0.020 A 
ATOM     10  C   LIG    1       -9.182   2.598   1.209  0.00  0.00    +0.010 A 
ATOM     11  C   LIG    1       -8.686   1.700   0.281  0.00  0.00    +0.040 A 
ATOM     12  C   LIG    1       -7.851   0.677   0.683  0.00  0.00    -0.020 A 
ATOM     13 CL   LIG    1       -9.477   3.606   3.705  0.00  0.00    -0.070 Cl
ATOM     14  C   LIG    1       -7.515   0.544   2.031  0.00  0.00    +0.140 A 
ENDBRANCH   1  14
BRANCH   6  15
ATOM     15  C   LIG    1       -5.024  -2.731   3.059  0.00  0.00    +0.250 C 
ATOM     16  C   LIG    1       -6.341  -3.416   2.690  0.00  0.00    +0.030 C 
ATOM     17  C   LIG    1       -5.161  -2.068   4.431  0.00  0.00    +0.040 C 
ENDBRANCH   6  15
BRANCH   4  18
ATOM     18  C   LIG    1       -2.116   0.214   0.611  0.00  0.00    +0.240 C 
BRANCH  18  19
ATOM     19  O   LIG    1       -0.954  -0.615   0.543  0.00  0.00    -0.310 OA
BRANCH  19  20
ATOM     20  C   LIG    1        0.241  -0.022   0.798  0.00  0.00    +0.150 A 
ATOM     21  C   LIG    1        0.299   1.308   1.103  0.00  0.00    -0.090 A 
ATOM     22  C   LIG    1        1.516   1.930   1.367  0.00  0.00    +0.050 A 
ATOM     23  C   LIG    1        2.685   1.232   1.328  0.00  0.00    -0.010 A 
ATOM     24  C   LIG    1        2.668  -0.139   1.019  0.00  0.00    -0.020 A 
ATOM     25  C   LIG    1        3.855  -0.890   0.971  0.00  0.00    +0.010 A 
ATOM     26  C   LIG    1        3.801  -2.216   0.667  0.00  0.00    +0.030 A 
ATOM     27  C   LIG    1        2.585  -2.842   0.402  0.00  0.00    +0.000 A 
ATOM     28  C   LIG    1        1.415  -2.146   0.440  0.00  0.00    +0.040 A 
ATOM     29  C   LIG    1        1.432  -0.777   0.750  0.00  0.00    -0.070 A 
ENDBRANCH  19  20
ENDBRANCH  18  19
ENDBRANCH   4  18
TORSDOF 5
