REMARK  Name = ZINCvU0000000Ddu.0
REMARK                            x       y       z     vdW  Elec       q    Type
REMARK                         _______ _______ _______ _____ _____    ______ ____
ROOT
ATOM      1  N   LIG    1        4.127  -3.221  -1.071  0.00  0.00    -0.450 N 
ATOM      2  C   LIG    1        3.595  -2.074  -1.591  0.00  0.00    +0.180 A 
ATOM      3  N   LIG    1        4.576  -1.234  -1.763  0.00  0.00    -0.250 NA
ATOM      4  N   LIG    1        5.684  -1.769  -1.394  0.00  0.00    -0.290 NA
ATOM      5  C   LIG    1        5.468  -2.990  -0.963  0.00  0.00    +0.150 A 
ENDROOT
BRANCH   1   6
ATOM      6  C   LIG    1        3.408  -4.444  -0.707  0.00  0.00    +0.350 C 
BRANCH   6   8
ATOM      7  C   LIG    1        3.803  -6.596  -1.790  0.00  0.00    +0.070 C 
ATOM      8  C   LIG    1        3.357  -5.369  -1.895  0.00  0.00    -0.070 C 
ENDBRANCH   6   8
ENDBRANCH   1   6
BRANCH   2   9
ATOM      9  C   LIG    1        2.141  -1.825  -1.902  0.00  0.00    +0.330 C 
BRANCH   9  10
ATOM     10  O   LIG    1        1.868  -2.220  -3.248  0.00  0.00    -0.310 OA
BRANCH  10  11
ATOM     11  C   LIG    1        0.593  -2.060  -3.691  0.00  0.00    +0.120 A 
ATOM     12  C   LIG    1        0.258  -2.422  -4.988  0.00  0.00    -0.010 A 
ATOM     13  C   LIG    1       -1.038  -2.253  -5.438  0.00  0.00    +0.050 A 
ATOM     14  C   LIG    1       -2.002  -1.734  -4.594  0.00  0.00    -0.120 A 
ATOM     15  C   LIG    1       -1.670  -1.372  -3.301  0.00  0.00    +0.050 A 
ATOM     16  C   LIG    1       -0.375  -1.534  -2.848  0.00  0.00    -0.070 A 
BRANCH  14  17
ATOM     17  C   LIG    1       -3.415  -1.557  -5.085  0.00  0.00    +0.060 C 
ATOM     18  C   LIG    1       -3.568  -0.168  -5.708  0.00  0.00    +0.030 C 
ENDBRANCH  14  17
ENDBRANCH  10  11
ENDBRANCH   9  10
ENDBRANCH   2   9
BRANCH   5  19
ATOM     19  S   LIG    1        6.680  -4.116  -0.354  0.00  0.00    +0.090 S 
BRANCH  19  20
ATOM     20  C   LIG    1        8.166  -3.097  -0.519  0.00  0.00    +0.110 C 
BRANCH  20  21
ATOM     21  C   LIG    1        9.365  -3.877  -0.043  0.00  0.00    +0.550 C 
ATOM     22  N   LIG    1       10.590  -3.315  -0.074  0.00  0.00    -0.680 N 
ATOM     23  H   LIG    1       10.711  -2.438  -0.468  0.00  0.00    +0.420 HD
ATOM     24  O   LIG    1        9.228  -5.010   0.366  0.00  0.00    -0.500 OA
BRANCH  22  25
ATOM     25  C   LIG    1       11.687  -3.999   0.465  0.00  0.00    +0.150 A 
ATOM     26  C   LIG    1       12.014  -3.844   1.806  0.00  0.00    -0.020 A 
ATOM     27  C   LIG    1       13.095  -4.525   2.335  0.00  0.00    +0.050 A 
ATOM     28  C   LIG    1       13.856  -5.351   1.529  0.00  0.00    +0.070 A 
ATOM     29  C   LIG    1       13.537  -5.503   0.192  0.00  0.00    +0.050 A 
ATOM     30 CL   LIG    1       11.064  -2.802   2.817  0.00  0.00    -0.040 Cl
ATOM     31  C   LIG    1       12.454  -4.830  -0.343  0.00  0.00    -0.020 A 
ATOM     32 CL   LIG    1       12.055  -5.021  -2.021  0.00  0.00    -0.040 Cl
ENDBRANCH  22  25
ENDBRANCH  20  21
ENDBRANCH  19  20
ENDBRANCH   5  19
TORSDOF 10
