REMARK  Name = ZINCpk00000kSG4v.0
REMARK                            x       y       z     vdW  Elec       q    Type
REMARK                         _______ _______ _______ _____ _____    ______ ____
ROOT
ATOM      1  C   LIG    1       -4.802  -1.438   0.013  0.00  0.00    +0.050 A 
ATOM      2  C   LIG    1       -4.195  -2.566  -0.456  0.00  0.00    +0.190 A 
ATOM      3  N   LIG    1       -5.074  -3.575  -0.253  0.00  0.00    -0.290 N 
ATOM      4  N   LIG    1       -6.131  -3.090   0.296  0.00  0.00    -0.080 NA
ATOM      5  N   LIG    1       -6.005  -1.823   0.475  0.00  0.00    -0.250 NA
ENDROOT
BRANCH   1   8
ATOM      6  C   LIG    1       -6.536   1.038   0.032  0.00  0.00    +0.170 C 
ATOM      7  C   LIG    1       -5.029   1.032   0.027  0.00  0.00    -0.180 A 
ATOM      8  C   LIG    1       -4.244  -0.061   0.018  0.00  0.00    +0.140 A 
ATOM      9  N   LIG    1       -2.943   0.173   0.010  0.00  0.00    -0.460 NA
ATOM     10  C   LIG    1       -2.568   1.418   0.020  0.00  0.00    +0.170 A 
ATOM     11  S   LIG    1       -3.990   2.456   0.030  0.00  0.00    +0.090 S 
BRANCH  10  12
ATOM     12  C   LIG    1       -1.165   1.889   0.017  0.00  0.00    -0.180 A 
ATOM     13  C   LIG    1       -0.749   3.191   0.025  0.00  0.00    +0.270 A 
ATOM     14  N   LIG    1        0.598   3.188   0.013  0.00  0.00    -0.360 N 
ATOM     15  N   LIG    1        1.034   1.857   0.002  0.00  0.00    -0.290 NA
ATOM     16  C   LIG    1        1.459   4.373   0.011  0.00  0.00    +0.370 C 
ATOM     17  C   LIG    1       -0.013   1.076   0.008  0.00  0.00    +0.290 A 
ENDBRANCH  10  12
ENDBRANCH   1   8
BRANCH   3  18
ATOM     18  C   LIG    1       -4.858  -4.981  -0.602  0.00  0.00    +0.340 C 
BRANCH  18  19
ATOM     19  C   LIG    1       -5.066  -5.852   0.639  0.00  0.00    +0.190 C 
BRANCH  19  20
ATOM     20  N   LIG    1       -4.850  -7.262   0.289  0.00  0.00    -0.530 NA
ATOM     21  C   LIG    1       -5.883  -7.739  -0.641  0.00  0.00    +0.150 C 
ATOM     22  C   LIG    1       -5.586  -9.191  -1.024  0.00  0.00    +0.220 C 
ATOM     23  O   LIG    1       -5.517  -9.988   0.161  0.00  0.00    -0.380 OA
ATOM     24  C   LIG    1       -4.520  -9.552   1.090  0.00  0.00    +0.220 C 
ATOM     25  C   LIG    1       -4.806  -8.103   1.495  0.00  0.00    +0.160 C 
ENDBRANCH  19  20
ENDBRANCH  18  19
ENDBRANCH   3  18
TORSDOF 5
