REMARK  Name = ZINCtV00000tRTn2.0
REMARK                            x       y       z     vdW  Elec       q    Type
REMARK                         _______ _______ _______ _____ _____    ______ ____
ROOT
ATOM      1  O   LIG    1       -0.254  -0.237   0.025  0.00  0.00    -0.530 OA
ATOM      2  C   LIG    1       -0.205   0.978   0.046  0.00  0.00    +0.710 C 
ATOM      3  N   LIG    1       -1.343   1.698   0.082  0.00  0.00    -0.620 N 
ATOM      4  C   LIG    1       -1.282   3.156  -0.033  0.00  0.00    +0.300 C 
ATOM      5  C   LIG    1       -1.759   3.798   1.267  0.00  0.00    +0.100 C 
ATOM      6  S   LIG    1       -3.447   3.223   1.620  0.00  0.00    -0.230 S 
ATOM      7  C   LIG    1       -3.257   1.416   1.581  0.00  0.00    +0.110 C 
ATOM      8  C   LIG    1       -2.628   1.015   0.243  0.00  0.00    +0.310 C 
ATOM      9  N   LIG    1        0.989   1.604   0.027  0.00  0.00    -0.680 N 
ATOM     10  H   LIG    1        1.028   2.571  -0.035  0.00  0.00    +0.410 HD
ENDROOT
BRANCH   8  11
ATOM     11  C   LIG    1       -2.410  -0.476   0.217  0.00  0.00    -0.040 A 
ATOM     12  C   LIG    1       -2.559  -1.176  -0.965  0.00  0.00    +0.040 A 
ATOM     13  C   LIG    1       -2.356  -2.543  -0.989  0.00  0.00    +0.020 A 
ATOM     14  C   LIG    1       -2.012  -3.212   0.171  0.00  0.00    +0.060 A 
ATOM     15  C   LIG    1       -1.867  -2.512   1.354  0.00  0.00    -0.170 A 
ATOM     16  C   LIG    1       -2.066  -1.145   1.378  0.00  0.00    +0.070 A 
BRANCH  15  17
ATOM     17  C   LIG    1       -1.492  -3.240   2.619  0.00  0.00    +0.510 C 
ATOM     18  F   LIG    1       -0.763  -2.384   3.452  0.00  0.00    -0.180 F 
ATOM     19  F   LIG    1       -0.711  -4.356   2.300  0.00  0.00    -0.180 F 
ATOM     20  F   LIG    1       -2.653  -3.657   3.279  0.00  0.00    -0.180 F 
ENDBRANCH  15  17
ENDBRANCH   8  11
BRANCH   9  21
ATOM     21  C   LIG    1        2.171   0.859   0.097  0.00  0.00    +0.200 A 
ATOM     22  C   LIG    1        2.123  -0.528   0.053  0.00  0.00    +0.030 A 
ATOM     23  C   LIG    1        3.292  -1.261   0.119  0.00  0.00    +0.100 A 
ATOM     24  C   LIG    1        4.509  -0.615   0.237  0.00  0.00    -0.210 A 
ATOM     25  C   LIG    1        4.560   0.766   0.286  0.00  0.00    +0.100 A 
ATOM     26  C   LIG    1        3.394   1.504   0.216  0.00  0.00    -0.020 A 
BRANCH  24  27
ATOM     27  C   LIG    1        5.782  -1.418   0.313  0.00  0.00    +0.510 C 
ATOM     28  F   LIG    1        6.833  -0.679  -0.240  0.00  0.00    -0.180 F 
ATOM     29  F   LIG    1        5.624  -2.611  -0.400  0.00  0.00    -0.180 F 
ATOM     30  F   LIG    1        6.070  -1.708   1.651  0.00  0.00    -0.180 F 
ENDBRANCH  24  27
ENDBRANCH   9  21
TORSDOF 4
