REMARK  Name = ZINCqH0000008w28.0
REMARK                            x       y       z     vdW  Elec       q    Type
REMARK                         _______ _______ _______ _____ _____    ______ ____
ROOT
ATOM      1  C   LIG    1       -1.274   1.492   4.351  0.00  0.00    +0.080 C 
ATOM      2  C   LIG    1       -0.709   2.689   3.584  0.00  0.00    +0.000 C 
ENDROOT
BRANCH   2   3
ATOM      3  C   LIG    1       -0.003   2.203   2.344  0.00  0.00    +0.540 C 
ATOM      4  N   LIG    1       -0.704   1.975   1.216  0.00  0.00    -0.600 N 
ATOM      5  C   LIG    1       -2.152   2.200   1.194  0.00  0.00    +0.290 C 
ATOM      6  O   LIG    1        1.195   2.017   2.362  0.00  0.00    -0.510 OA
BRANCH   4   7
ATOM      7  C   LIG    1       -0.018   1.503   0.010  0.00  0.00    +0.350 C 
BRANCH   7   8
ATOM      8  C   LIG    1        0.002  -0.004   0.002  0.00  0.00    -0.080 A 
ATOM      9  C   LIG    1        1.057  -0.684   0.582  0.00  0.00    +0.040 A 
ATOM     10  C   LIG    1        1.074  -2.066   0.579  0.00  0.00    +0.040 A 
ATOM     11  C   LIG    1        0.043  -2.770  -0.012  0.00  0.00    -0.010 A 
ATOM     12  C   LIG    1       -1.012  -2.090  -0.598  0.00  0.00    +0.090 A 
ATOM     13  F   LIG    1       -2.021  -2.777  -1.177  0.00  0.00    -0.140 F 
ATOM     14  C   LIG    1       -1.031  -0.706  -0.591  0.00  0.00    -0.010 A 
ENDBRANCH   7   8
ENDBRANCH   4   7
ENDBRANCH   2   3
BRANCH   2  15
ATOM     15  S   LIG    1        0.467   3.582   4.638  0.00  0.00    +0.100 S 
BRANCH  15  16
ATOM     16  C   LIG    1       -0.551   4.193   5.939  0.00  0.00    +0.200 A 
ATOM     17  N   LIG    1       -1.847   4.008   6.047  0.00  0.00    -0.320 NA
ATOM     18  N   LIG    1       -2.252   4.658   7.224  0.00  0.00    -0.470 N 
ATOM     19  H   LIG    1       -3.152   4.703   7.582  0.00  0.00    +0.440 HD
ATOM     20  C   LIG    1       -1.147   5.209   7.755  0.00  0.00    +0.300 A 
ATOM     21  N   LIG    1       -0.134   4.925   6.977  0.00  0.00    -0.500 NA
BRANCH  20  22
ATOM     22  C   LIG    1       -1.086   6.016   9.026  0.00  0.00    +0.250 C 
BRANCH  22  23
ATOM     23  C   LIG    1       -0.069   5.409   9.958  0.00  0.00    -0.190 A 
ATOM     24  C   LIG    1        1.227   5.724   9.993  0.00  0.00    +0.050 A 
ATOM     25  C   LIG    1        1.970   5.036  10.937  0.00  0.00    +0.000 A 
ATOM     26  C   LIG    1        1.279   4.155  11.662  0.00  0.00    -0.030 A 
ATOM     27  S   LIG    1       -0.407   4.170  11.160  0.00  0.00    +0.090 S 
ENDBRANCH  22  23
ENDBRANCH  20  22
ENDBRANCH  15  16
ENDBRANCH   2  15
TORSDOF 7
