REMARK  Name = ZINCrD000000CHzb.0
REMARK                            x       y       z     vdW  Elec       q    Type
REMARK                         _______ _______ _______ _____ _____    ______ ____
ROOT
ATOM      1  O   LIG    1        4.967  -3.820  -0.063  0.00  0.00    -0.510 OA
ATOM      2  C   LIG    1        4.938  -2.605  -0.057  0.00  0.00    +0.590 C 
ATOM      3  N   LIG    1        6.088  -1.903  -0.064  0.00  0.00    -0.590 N 
ATOM      4  C   LIG    1        6.198  -0.433  -0.064  0.00  0.00    +0.270 C 
ATOM      5  C   LIG    1        7.584  -0.136  -0.682  0.00  0.00    +0.030 C 
ATOM      6  C   LIG    1        8.438  -1.298  -0.110  0.00  0.00    +0.050 C 
ATOM      7  C   LIG    1        7.442  -2.477  -0.079  0.00  0.00    +0.270 C 
ENDROOT
BRANCH   7   8
ATOM      8  C   LIG    1        7.663  -3.302   1.163  0.00  0.00    -0.080 A 
ATOM      9  C   LIG    1        7.156  -2.873   2.375  0.00  0.00    +0.030 A 
ATOM     10  C   LIG    1        7.357  -3.627   3.516  0.00  0.00    +0.020 A 
ATOM     11  C   LIG    1        8.069  -4.815   3.448  0.00  0.00    +0.050 A 
ATOM     12  O   LIG    1        8.265  -5.543   4.581  0.00  0.00    -0.310 OA
ATOM     13  C   LIG    1        8.659  -6.909   4.409  0.00  0.00    +0.220 C 
ATOM     14  C   LIG    1        9.778  -6.958   3.360  0.00  0.00    +0.220 C 
ATOM     15  O   LIG    1        9.270  -6.415   2.136  0.00  0.00    -0.310 OA
ATOM     16  C   LIG    1        8.576  -5.248   2.228  0.00  0.00    +0.050 A 
ATOM     17  C   LIG    1        8.367  -4.489   1.086  0.00  0.00    +0.030 A 
ENDBRANCH   7   8
BRANCH   2  18
ATOM     18  C   LIG    1        3.636  -1.896  -0.042  0.00  0.00    +0.060 A 
ATOM     19  N   LIG    1        3.610  -0.574  -0.035  0.00  0.00    -0.390 NA
ATOM     20  C   LIG    1        2.439   0.063  -0.021  0.00  0.00    +0.070 A 
ATOM     21  C   LIG    1        2.378   1.469  -0.013  0.00  0.00    +0.060 A 
ATOM     22  C   LIG    1        1.169   2.092   0.002  0.00  0.00    +0.040 A 
ATOM     23  C   LIG    1       -0.016   1.357   0.009  0.00  0.00    +0.050 A 
ATOM     24  C   LIG    1        0.002  -0.004   0.002  0.00  0.00    +0.050 A 
ATOM     25  C   LIG    1        1.231  -0.685  -0.013  0.00  0.00    +0.090 A 
ATOM     26  N   LIG    1        1.278  -2.022  -0.021  0.00  0.00    -0.420 NA
ATOM     27  C   LIG    1        2.440  -2.633  -0.034  0.00  0.00    +0.320 A 
ENDBRANCH   2  18
TORSDOF 2
