REMARK  Name = ZINCkj00000y7IK3.0
REMARK                            x       y       z     vdW  Elec       q    Type
REMARK                         _______ _______ _______ _____ _____    ______ ____
ROOT
ATOM      1  N   LIG    1        3.600   1.680  -0.312  0.00  0.00    -0.730 N 
ATOM      2  H   LIG    1        3.601   2.635  -0.483  0.00  0.00    +0.410 HD
ATOM      3  C   LIG    1        2.436   1.032  -0.112  0.00  0.00    +0.570 C 
ATOM      4  O   LIG    1        2.436  -0.167   0.102  0.00  0.00    -0.520 OA
ENDROOT
BRANCH   1  11
ATOM      5  C   LIG    1        6.026   1.890   0.098  0.00  0.00    +0.170 C 
ATOM      6  C   LIG    1        6.982   1.845  -1.113  0.00  0.00    +0.260 C 
ATOM      7  N   LIG    1        6.123   1.433  -2.253  0.00  0.00    -0.510 N 
ATOM      8  C   LIG    1        5.218   0.405  -1.675  0.00  0.00    +0.280 C 
ATOM      9  H   LIG    1        6.684   1.036  -2.992  0.00  0.00    +0.440 HD
ATOM     10  H   LIG    1        5.591   2.218  -2.596  0.00  0.00    +0.430 HD
ATOM     11  C   LIG    1        4.866   0.943  -0.271  0.00  0.00    +0.270 C 
BRANCH   5  13
ATOM     12  C   LIG    1        7.268   2.464   2.066  0.00  0.00    +0.240 C 
ATOM     13  O   LIG    1        6.692   1.424   1.274  0.00  0.00    -0.360 OA
ENDBRANCH   5  13
ENDBRANCH   1  11
BRANCH   3  14
ATOM     14  C   LIG    1        1.172   1.768  -0.153  0.00  0.00    -0.210 C 
ATOM     15  C   LIG    1        0.006   1.119   0.048  0.00  0.00    +0.150 C 
ATOM     16  C   LIG    1        1.172   3.251  -0.418  0.00  0.00    +0.110 C 
BRANCH  15  17
ATOM     17  C   LIG    1       -1.249   1.878   0.153  0.00  0.00    -0.100 A 
ATOM     18  C   LIG    1       -1.252   3.157   0.720  0.00  0.00    +0.070 A 
ATOM     19  C   LIG    1       -2.431   3.864   0.811  0.00  0.00    -0.020 A 
ATOM     20  C   LIG    1       -3.615   3.306   0.353  0.00  0.00    +0.120 A 
ATOM     21  C   LIG    1       -3.620   2.037  -0.205  0.00  0.00    -0.020 A 
ATOM     22  F   LIG    1       -4.768   4.003   0.451  0.00  0.00    -0.130 F 
ATOM     23  C   LIG    1       -2.447   1.321  -0.307  0.00  0.00    +0.080 A 
ENDBRANCH  15  17
ENDBRANCH   3  14
TORSDOF 4
