REMARK  Name = ZINCrD00000s9nxb.0
REMARK                            x       y       z     vdW  Elec       q    Type
REMARK                         _______ _______ _______ _____ _____    ______ ____
ROOT
ATOM      1  O   LIG    1        3.816   2.162  -1.144  0.00  0.00    -0.560 OA
ATOM      2  C   LIG    1        2.863   2.718  -1.655  0.00  0.00    +0.710 C 
ATOM      3  N   LIG    1        1.624   2.518  -1.164  0.00  0.00    -0.730 N 
ATOM      4  H   LIG    1        0.863   2.961  -1.571  0.00  0.00    +0.400 HD
ATOM      5  N   LIG    1        3.045   3.536  -2.711  0.00  0.00    -0.680 N 
ATOM      6  H   LIG    1        2.279   3.928  -3.158  0.00  0.00    +0.410 HD
ENDROOT
BRANCH   5   7
ATOM      7  C   LIG    1        4.340   3.818  -3.161  0.00  0.00    +0.180 A 
ATOM      8  C   LIG    1        5.325   2.845  -3.096  0.00  0.00    +0.060 A 
ATOM      9  C   LIG    1        6.611   3.130  -3.551  0.00  0.00    -0.020 A 
ATOM     10  C   LIG    1        6.903   4.394  -4.058  0.00  0.00    +0.030 A 
ATOM     11  C   LIG    1        5.919   5.361  -4.115  0.00  0.00    +0.050 A 
ATOM     12  C   LIG    1        4.641   5.078  -3.669  0.00  0.00    -0.070 A 
ATOM     13 CL   LIG    1        3.408   6.298  -3.743  0.00  0.00    -0.060 Cl
BRANCH   9  14
ATOM     14  C   LIG    1        7.668   2.090  -3.489  0.00  0.00    -0.050 A 
ATOM     15  C   LIG    1        7.378   0.827  -2.977  0.00  0.00    +0.030 A 
ATOM     16  C   LIG    1        8.364  -0.138  -2.927  0.00  0.00    +0.010 A 
ATOM     17  C   LIG    1        9.640   0.151  -3.374  0.00  0.00    +0.010 A 
ATOM     18  C   LIG    1        9.935   1.405  -3.878  0.00  0.00    +0.010 A 
ATOM     19  C   LIG    1        8.956   2.375  -3.938  0.00  0.00    +0.020 A 
ENDBRANCH   9  14
ENDBRANCH   5   7
BRANCH   3  20
ATOM     20  C   LIG    1        1.425   1.629  -0.016  0.00  0.00    +0.260 C 
ATOM     21  C   LIG    1        1.517   2.424   1.306  0.00  0.00    +0.220 C 
ATOM     22  O   LIG    1        0.519   1.829   2.164  0.00  0.00    -0.350 OA
ATOM     23  C   LIG    1       -0.618   1.579   1.309  0.00  0.00    +0.240 C 
ATOM     24  C   LIG    1       -0.011   1.060  -0.013  0.00  0.00    +0.240 C 
BRANCH  24  25
ATOM     25  N   LIG    1       -0.767   1.568  -1.161  0.00  0.00    -0.290 N 
ATOM     26  C   LIG    1       -1.409   2.758  -1.224  0.00  0.00    +0.120 A 
ATOM     27  C   LIG    1       -1.967   2.820  -2.456  0.00  0.00    +0.160 A 
ATOM     28  N   LIG    1       -1.649   1.678  -3.075  0.00  0.00    -0.260 NA
ATOM     29  N   LIG    1       -0.938   0.958  -2.281  0.00  0.00    -0.070 NA
ENDBRANCH  24  25
ENDBRANCH   3  20
TORSDOF 4
