REMARK  Name = ZINCrD0000071Kch.0
REMARK                            x       y       z     vdW  Elec       q    Type
REMARK                         _______ _______ _______ _____ _____    ______ ____
ROOT
ATOM      1  O   LIG    1        6.460  -2.519  -0.143  0.00  0.00    -0.310 OA
ENDROOT
BRANCH   1   2
ATOM      2  C   LIG    1        7.809  -2.693  -0.652  0.00  0.00    +0.190 C 
ATOM      3  C   LIG    1        7.837  -2.360  -2.145  0.00  0.00    +0.080 C 
BRANCH   2   5
ATOM      4  N   LIG    1       10.075  -1.990   0.046  0.00  0.00    -0.540 N 
ATOM      5  C   LIG    1        8.746  -1.772   0.086  0.00  0.00    +0.520 C 
ATOM      6  O   LIG    1        8.304  -0.834   0.715  0.00  0.00    -0.480 OA
BRANCH   4   7
ATOM      7  C   LIG    1       10.936  -1.212   0.829  0.00  0.00    +0.150 A 
ATOM      8  C   LIG    1       12.311  -1.326   0.674  0.00  0.00    -0.030 A 
ATOM      9  C   LIG    1       13.158  -0.554   1.445  0.00  0.00    +0.030 A 
ATOM     10  C   LIG    1       12.637   0.325   2.377  0.00  0.00    -0.020 A 
ATOM     11  C   LIG    1       11.268   0.437   2.537  0.00  0.00    +0.030 A 
ATOM     12  C   LIG    1       10.416  -0.329   1.766  0.00  0.00    +0.010 A 
ENDBRANCH   4   7
BRANCH   4  14
ATOM     13  C   LIG    1       11.082  -2.428  -2.139  0.00  0.00    +0.040 C 
ATOM     14  C   LIG    1       10.619  -3.042  -0.817  0.00  0.00    +0.270 C 
ENDBRANCH   4  14
ENDBRANCH   2   5
ENDBRANCH   1   2
BRANCH   1  15
ATOM     15  C   LIG    1        5.646  -3.592  -0.189  0.00  0.00    +0.530 C 
ATOM     16  O   LIG    1        6.053  -4.643  -0.641  0.00  0.00    -0.460 OA
BRANCH  15  17
ATOM     17  C   LIG    1        4.256  -3.490   0.312  0.00  0.00    +0.110 A 
ATOM     18  C   LIG    1        3.462  -4.587   0.253  0.00  0.00    -0.030 A 
ATOM     19  C   LIG    1        2.076  -4.470   0.739  0.00  0.00    +0.420 A 
ATOM     20  C   LIG    1        1.588  -3.098   0.980  0.00  0.00    -0.230 A 
ATOM     21  C   LIG    1        0.236  -2.831   1.189  0.00  0.00    +0.110 A 
ATOM     22  C   LIG    1       -0.174  -1.534   1.403  0.00  0.00    +0.000 A 
ATOM     23  C   LIG    1        0.751  -0.500   1.409  0.00  0.00    +0.090 A 
ATOM     24  C   LIG    1        2.091  -0.751   1.206  0.00  0.00    +0.010 A 
ATOM     25  C   LIG    1        2.530  -2.054   0.993  0.00  0.00    +0.150 A 
ATOM     26  O   LIG    1        1.374  -5.448   0.929  0.00  0.00    -0.440 OA
ATOM     27  O   LIG    1        3.837  -2.316   0.806  0.00  0.00    -0.200 OA
ENDBRANCH  15  17
ENDBRANCH   1  15
TORSDOF 6
