REMARK  Name = ZINCvU00000007XV.0
REMARK                            x       y       z     vdW  Elec       q    Type
REMARK                         _______ _______ _______ _____ _____    ______ ____
ROOT
ATOM      1  C   LIG    1       -3.421   3.833  -0.941  0.00  0.00    +0.280 A 
ATOM      2  N   LIG    1       -4.398   4.601  -0.518  0.00  0.00    -0.270 NA
ATOM      3  N   LIG    1       -4.118   5.067   0.646  0.00  0.00    -0.290 NA
ATOM      4  C   LIG    1       -2.949   4.622   1.044  0.00  0.00    +0.150 A 
ATOM      5  N   LIG    1       -2.459   3.824   0.044  0.00  0.00    -0.410 N 
ENDROOT
BRANCH   1   8
ATOM      6  C   LIG    1       -5.621   3.847  -3.174  0.00  0.00    +0.200 C 
ATOM      7  C   LIG    1       -4.309   3.107  -3.211  0.00  0.00    +0.070 A 
ATOM      8  C   LIG    1       -3.365   3.113  -2.232  0.00  0.00    -0.140 A 
ATOM      9  C   LIG    1       -2.280   2.250  -2.719  0.00  0.00    -0.040 A 
ATOM     10  C   LIG    1       -2.667   1.818  -3.931  0.00  0.00    +0.180 A 
ATOM     11  O   LIG    1       -3.872   2.335  -4.216  0.00  0.00    -0.170 OA
ENDBRANCH   1   8
BRANCH   5  12
ATOM     12  C   LIG    1       -1.236   3.138   0.030  0.00  0.00    +0.100 A 
ATOM     13  C   LIG    1       -1.218   1.749   0.017  0.00  0.00    +0.030 A 
ATOM     14  C   LIG    1       -0.013   1.076   0.008  0.00  0.00    +0.030 A 
ATOM     15  C   LIG    1        1.176   1.783   0.000  0.00  0.00    +0.040 A 
ATOM     16  C   LIG    1        1.161   3.165   0.007  0.00  0.00    +0.040 A 
ATOM     17  C   LIG    1       -0.042   3.845   0.022  0.00  0.00    +0.030 A 
ENDBRANCH   5  12
BRANCH   4  18
ATOM     18  S   LIG    1       -2.156   4.987   2.575  0.00  0.00    +0.090 S 
BRANCH  18  19
ATOM     19  C   LIG    1       -3.399   6.070   3.321  0.00  0.00    +0.110 C 
BRANCH  19  20
ATOM     20  C   LIG    1       -2.922   6.519   4.679  0.00  0.00    +0.540 C 
ATOM     21  N   LIG    1       -3.690   7.338   5.425  0.00  0.00    -0.600 N 
ATOM     22  C   LIG    1       -4.993   7.804   4.932  0.00  0.00    +0.270 C 
ATOM     23  C   LIG    1       -6.066   7.475   5.975  0.00  0.00    +0.010 C 
ATOM     24  C   LIG    1       -5.657   8.060   7.329  0.00  0.00    +0.020 C 
ATOM     25  C   LIG    1       -4.331   7.440   7.771  0.00  0.00    -0.020 C 
ATOM     26  C   LIG    1       -3.934   7.973   9.145  0.00  0.00    +0.030 C 
ATOM     27  C   LIG    1       -3.735   9.488   9.075  0.00  0.00    +0.010 C 
ATOM     28  C   LIG    1       -2.630   9.805   8.065  0.00  0.00    +0.010 C 
ATOM     29  C   LIG    1       -3.042   9.288   6.686  0.00  0.00    +0.010 C 
ATOM     30  C   LIG    1       -3.244   7.783   6.756  0.00  0.00    +0.250 C 
ATOM     31  O   LIG    1       -1.849   6.144   5.100  0.00  0.00    -0.530 OA
ENDBRANCH  19  20
ENDBRANCH  18  19
ENDBRANCH   4  18
TORSDOF 5
