REMARK  Name = ZINCtV00000tRTxI.1
REMARK                            x       y       z     vdW  Elec       q    Type
REMARK                         _______ _______ _______ _____ _____    ______ ____
ROOT
ATOM      1  C   LIG    1        1.284   1.813  -0.001  0.00  0.00    +0.060 A 
ATOM      2  C   LIG    1       -0.017   1.397   0.010  0.00  0.00    +0.030 A 
ATOM      3  C   LIG    1        0.002  -0.004   0.002  0.00  0.00    -0.010 A 
ATOM      4  C   LIG    1        1.311  -0.385  -0.013  0.00  0.00    +0.030 A 
ATOM      5  O   LIG    1        2.077   0.722  -0.014  0.00  0.00    -0.170 OA
ENDROOT
BRANCH   1  11
ATOM      6  C   LIG    1        1.203   6.792   0.028  0.00  0.00    +0.150 C 
ATOM      7  C   LIG    1        1.715   5.375   0.016  0.00  0.00    +0.040 A 
ATOM      8  C   LIG    1        3.026   5.001   0.001  0.00  0.00    +0.030 A 
ATOM      9  N   LIG    1        3.045   3.622  -0.002  0.00  0.00    -0.550 N 
ATOM     10  H   LIG    1        3.832   3.055  -0.009  0.00  0.00    +0.430 HD
ATOM     11  C   LIG    1        1.741   3.208   0.003  0.00  0.00    +0.280 A 
ATOM     12  N   LIG    1        0.964   4.274   0.016  0.00  0.00    -0.450 NA
BRANCH   8  13
ATOM     13  C   LIG    1        4.199   5.899  -0.005  0.00  0.00    -0.020 A 
ATOM     14  C   LIG    1        4.232   7.005  -0.857  0.00  0.00    +0.030 A 
ATOM     15  C   LIG    1        5.327   7.843  -0.852  0.00  0.00    +0.020 A 
ATOM     16  C   LIG    1        6.398   7.582  -0.016  0.00  0.00    +0.020 A 
ATOM     17  C   LIG    1        6.375   6.485   0.827  0.00  0.00    +0.020 A 
ATOM     18  C   LIG    1        5.283   5.642   0.837  0.00  0.00    +0.010 A 
ENDBRANCH   8  13
ENDBRANCH   1  11
BRANCH   4  19
ATOM     19  C   LIG    1        1.805  -1.776  -0.025  0.00  0.00    +0.030 A 
ATOM     20  C   LIG    1        0.901  -2.841  -0.017  0.00  0.00    +0.050 A 
ATOM     21  C   LIG    1        1.366  -4.140  -0.035  0.00  0.00    +0.090 A 
ATOM     22  C   LIG    1        2.727  -4.392  -0.049  0.00  0.00    -0.040 A 
ATOM     23  C   LIG    1        3.634  -3.339  -0.051  0.00  0.00    +0.120 A 
ATOM     24 CL   LIG    1        3.303  -6.030  -0.064  0.00  0.00    -0.040 Cl
ATOM     25  C   LIG    1        3.178  -2.032  -0.040  0.00  0.00    -0.020 A 
BRANCH  23  26
ATOM     26  O   LIG    1        4.969  -3.592  -0.066  0.00  0.00    -0.300 OA
BRANCH  26  27
ATOM     27  C   LIG    1        5.844  -2.462  -0.068  0.00  0.00    +0.600 C 
ATOM     28  F   LIG    1        5.597  -1.683  -1.204  0.00  0.00    -0.160 F 
ATOM     29  F   LIG    1        7.172  -2.901  -0.084  0.00  0.00    -0.120 F 
ATOM     30  F   LIG    1        5.619  -1.696   1.081  0.00  0.00    -0.160 F 
ENDBRANCH  26  27
ENDBRANCH  23  26
ENDBRANCH   4  19
TORSDOF 5
