REMARK  Name = ZINCtV00000tRTxI.0
REMARK                            x       y       z     vdW  Elec       q    Type
REMARK                         _______ _______ _______ _____ _____    ______ ____
ROOT
ATOM      1  C   LIG    1        1.283   1.813  -0.001  0.00  0.00    +0.060 A 
ATOM      2  C   LIG    1       -0.017   1.398   0.010  0.00  0.00    +0.030 A 
ATOM      3  C   LIG    1        0.002  -0.004   0.002  0.00  0.00    -0.010 A 
ATOM      4  C   LIG    1        1.311  -0.385  -0.013  0.00  0.00    +0.030 A 
ATOM      5  O   LIG    1        2.076   0.723  -0.014  0.00  0.00    -0.170 OA
ENDROOT
BRANCH   1  10
ATOM      6  C   LIG    1        4.239   5.898  -0.006  0.00  0.00    +0.150 C 
ATOM      7  C   LIG    1        3.034   4.992   0.001  0.00  0.00    +0.020 A 
ATOM      8  C   LIG    1        1.730   5.379   0.016  0.00  0.00    +0.050 A 
ATOM      9  N   LIG    1        0.964   4.273   0.017  0.00  0.00    -0.440 NA
ATOM     10  C   LIG    1        1.741   3.210   0.003  0.00  0.00    +0.270 A 
ATOM     11  N   LIG    1        3.044   3.624  -0.002  0.00  0.00    -0.560 N 
ATOM     12  H   LIG    1        3.829   3.054  -0.007  0.00  0.00    +0.430 HD
BRANCH   8  13
ATOM     13  C   LIG    1        1.238   6.779   0.028  0.00  0.00    -0.000 A 
ATOM     14  C   LIG    1        1.941   7.761   0.723  0.00  0.00    +0.010 A 
ATOM     15  C   LIG    1        1.481   9.063   0.727  0.00  0.00    +0.010 A 
ATOM     16  C   LIG    1        0.319   9.390   0.052  0.00  0.00    +0.000 A 
ATOM     17  C   LIG    1       -0.386   8.418  -0.634  0.00  0.00    +0.000 A 
ATOM     18  C   LIG    1        0.067   7.115  -0.650  0.00  0.00    +0.040 A 
ENDBRANCH   8  13
ENDBRANCH   1  10
BRANCH   4  19
ATOM     19  C   LIG    1        1.805  -1.776  -0.025  0.00  0.00    +0.030 A 
ATOM     20  C   LIG    1        0.902  -2.841  -0.018  0.00  0.00    +0.050 A 
ATOM     21  C   LIG    1        1.367  -4.140  -0.035  0.00  0.00    +0.090 A 
ATOM     22  C   LIG    1        2.728  -4.391  -0.049  0.00  0.00    -0.040 A 
ATOM     23  C   LIG    1        3.634  -3.338  -0.051  0.00  0.00    +0.120 A 
ATOM     24 CL   LIG    1        3.304  -6.029  -0.063  0.00  0.00    -0.040 Cl
ATOM     25  C   LIG    1        3.178  -2.032  -0.040  0.00  0.00    -0.020 A 
BRANCH  23  26
ATOM     26  O   LIG    1        4.970  -3.591  -0.066  0.00  0.00    -0.300 OA
BRANCH  26  27
ATOM     27  C   LIG    1        5.844  -2.461  -0.068  0.00  0.00    +0.600 C 
ATOM     28  F   LIG    1        5.597  -1.682  -1.204  0.00  0.00    -0.160 F 
ATOM     29  F   LIG    1        7.173  -2.899  -0.084  0.00  0.00    -0.120 F 
ATOM     30  F   LIG    1        5.619  -1.694   1.080  0.00  0.00    -0.160 F 
ENDBRANCH  26  27
ENDBRANCH  23  26
ENDBRANCH   4  19
TORSDOF 5
