REMARK  Name = ZINCrD00000hQ7uf.0
REMARK                            x       y       z     vdW  Elec       q    Type
REMARK                         _______ _______ _______ _____ _____    ______ ____
ROOT
ATOM      1  N   LIG    1       -4.657   5.968  -2.598  0.00  0.00    -0.650 N 
ATOM      2  H   LIG    1       -3.971   6.500  -3.033  0.00  0.00    +0.420 HD
ATOM      3  C   LIG    1       -4.330   5.153  -1.576  0.00  0.00    +0.530 C 
ATOM      4  O   LIG    1       -5.186   4.488  -1.033  0.00  0.00    -0.460 OA
ENDROOT
BRANCH   1   9
ATOM      5  C   LIG    1       -6.280   9.334  -6.883  0.00  0.00    +0.200 C 
ATOM      6  C   LIG    1       -6.552   8.327  -5.796  0.00  0.00    +0.040 A 
ATOM      7  C   LIG    1       -5.625   7.818  -4.971  0.00  0.00    -0.150 A 
ATOM      8  C   LIG    1       -6.334   6.890  -4.088  0.00  0.00    -0.260 A 
ATOM      9  C   LIG    1       -5.974   6.048  -3.028  0.00  0.00    +0.460 A 
ATOM     10  N   LIG    1       -6.926   5.323  -2.448  0.00  0.00    -0.520 NA
ATOM     11  C   LIG    1       -8.180   5.401  -2.853  0.00  0.00    +0.580 A 
ATOM     12  N   LIG    1       -8.561   6.178  -3.845  0.00  0.00    -0.530 NA
ATOM     13  C   LIG    1       -7.681   6.938  -4.490  0.00  0.00    +0.320 A 
ATOM     14  C   LIG    1       -4.152   8.135  -4.958  0.00  0.00    +0.130 C 
ATOM     15  O   LIG    1       -7.760   7.808  -5.510  0.00  0.00    -0.170 OA
ENDBRANCH   1   9
BRANCH   3  16
ATOM     16  C   LIG    1       -2.900   5.066  -1.109  0.00  0.00    -0.060 C 
ATOM     17  C   LIG    1       -2.571   5.636   0.273  0.00  0.00    +0.080 C 
ATOM     18  C   LIG    1       -2.592   4.122   0.055  0.00  0.00    +0.060 C 
BRANCH  18  19
ATOM     19  C   LIG    1       -1.268   3.403   0.037  0.00  0.00    -0.050 A 
ATOM     20  C   LIG    1       -0.090   4.126   0.032  0.00  0.00    +0.020 A 
ATOM     21  C   LIG    1        1.126   3.470   0.015  0.00  0.00    +0.030 A 
ATOM     22  C   LIG    1        1.168   2.084   0.002  0.00  0.00    +0.050 A 
ATOM     23  O   LIG    1        2.373   1.453  -0.019  0.00  0.00    -0.310 OA
ATOM     24  C   LIG    1        2.381   0.069   0.347  0.00  0.00    +0.220 C 
ATOM     25  C   LIG    1        1.229  -0.629  -0.390  0.00  0.00    +0.220 C 
ATOM     26  O   LIG    1        0.002  -0.004   0.002  0.00  0.00    -0.310 OA
ATOM     27  C   LIG    1       -0.016   1.357   0.009  0.00  0.00    +0.050 A 
ATOM     28  C   LIG    1       -1.233   2.021   0.030  0.00  0.00    +0.040 A 
ENDBRANCH  18  19
ENDBRANCH   3  16
TORSDOF 3
