REMARK  Name = ZINCqH0000038wmZ.0
REMARK                            x       y       z     vdW  Elec       q    Type
REMARK                         _______ _______ _______ _____ _____    ______ ____
ROOT
ATOM      1  C   LIG    1        4.846   1.092  -0.038  0.00  0.00    +0.040 A 
ATOM      2  C   LIG    1        6.072   1.698  -0.052  0.00  0.00    -0.180 A 
ATOM      3  C   LIG    1        7.178   0.758  -0.063  0.00  0.00    -0.040 A 
ATOM      4  C   LIG    1        6.765  -0.515  -0.066  0.00  0.00    -0.240 A 
ATOM      5  C   LIG    1        7.693  -1.714  -0.082  0.00  0.00    +0.120 C 
ATOM      6  C   LIG    1        9.089  -1.251  -0.508  0.00  0.00    -0.010 C 
ATOM      7  C   LIG    1        9.492  -0.039   0.337  0.00  0.00    +0.030 C 
ATOM      8  C   LIG    1       10.093  -2.386  -0.292  0.00  0.00    +0.030 C 
ATOM      9  C   LIG    1        8.643   1.165  -0.074  0.00  0.00    +0.100 C 
ATOM     10  S   LIG    1        5.011  -0.602  -0.050  0.00  0.00    +0.310 S 
ENDROOT
BRANCH   1  12
ATOM     11  C   LIG    1        2.479   1.072  -0.016  0.00  0.00    +0.580 C 
ATOM     12  N   LIG    1        3.635   1.765  -0.023  0.00  0.00    -0.610 N 
ATOM     13  H   LIG    1        3.619   2.735  -0.018  0.00  0.00    +0.430 HD
ATOM     14  O   LIG    1        2.499  -0.143  -0.022  0.00  0.00    -0.490 OA
BRANCH  11  19
ATOM     15  C   LIG    1       -2.499   3.776   0.045  0.00  0.00    +0.160 C 
ATOM     16  C   LIG    1       -1.183   3.043   0.029  0.00  0.00    +0.120 A 
ATOM     17  C   LIG    1        0.007   3.757   0.021  0.00  0.00    +0.240 A 
ATOM     18  N   LIG    1        1.161   3.121   0.007  0.00  0.00    -0.410 NA
ATOM     19  C   LIG    1        1.185   1.791   0.000  0.00  0.00    +0.010 A 
ATOM     20  C   LIG    1       -0.013   1.076   0.008  0.00  0.00    +0.320 A 
ATOM     21  N   LIG    1       -1.165   1.722   0.017  0.00  0.00    -0.440 NA
ENDBRANCH  11  19
ENDBRANCH   1  12
BRANCH   2  22
ATOM     22  C   LIG    1        6.252   3.152  -0.052  0.00  0.00    +0.540 C 
ATOM     23  O   LIG    1        6.339   3.754   1.001  0.00  0.00    -0.490 OA
BRANCH  22  24
ATOM     24  O   LIG    1        6.320   3.823  -1.220  0.00  0.00    -0.340 OA
BRANCH  24  25
ATOM     25  C   LIG    1        6.498   5.262  -1.144  0.00  0.00    +0.170 C 
ATOM     26  C   LIG    1        5.838   5.923  -2.356  0.00  0.00    +0.060 C 
ATOM     27  C   LIG    1        7.993   5.590  -1.136  0.00  0.00    +0.040 C 
ENDBRANCH  24  25
ENDBRANCH  22  24
ENDBRANCH   2  22
TORSDOF 5
