REMARK  Name = ZINCpe00000VVGj0.0
REMARK                            x       y       z     vdW  Elec       q    Type
REMARK                         _______ _______ _______ _____ _____    ______ ____
ROOT
ATOM      1  O   LIG    1       -0.601   5.039   2.110  0.00  0.00    -0.540 OA
ATOM      2  C   LIG    1       -0.478   3.836   2.198  0.00  0.00    +0.520 C 
ATOM      3  N   LIG    1       -0.872   3.042   1.182  0.00  0.00    -0.620 N 
ATOM      4  C   LIG    1       -0.731   1.581   1.268  0.00  0.00    +0.290 C 
ATOM      5  C   LIG    1       -0.013   1.086   0.008  0.00  0.00    +0.210 C 
ATOM      6  N   LIG    1       -0.724   1.573  -1.181  0.00  0.00    -0.480 N 
ATOM      7  C   LIG    1       -0.705   3.040  -1.250  0.00  0.00    +0.200 C 
ATOM      8  C   LIG    1       -1.452   3.615  -0.042  0.00  0.00    +0.300 C 
ENDROOT
BRANCH   6   9
ATOM      9  C   LIG    1       -0.199   1.013  -2.340  0.00  0.00    +0.310 A 
ATOM     10  C   LIG    1       -0.741   1.351  -3.576  0.00  0.00    -0.050 A 
ATOM     11  C   LIG    1       -0.208   0.786  -4.721  0.00  0.00    +0.090 A 
ATOM     12  C   LIG    1        0.852  -0.101  -4.591  0.00  0.00    -0.060 A 
ATOM     13  C   LIG    1        1.340  -0.392  -3.333  0.00  0.00    +0.290 A 
ATOM     14  N   LIG    1        0.816   0.166  -2.258  0.00  0.00    -0.520 NA
ENDBRANCH   6   9
BRANCH   2  15
ATOM     15  C   LIG    1        0.114   3.227   3.443  0.00  0.00    +0.070 C 
BRANCH  15  16
ATOM     16  C   LIG    1        0.473   4.338   4.432  0.00  0.00    +0.190 C 
BRANCH  16  17
ATOM     17  N   LIG    1        1.050   3.745   5.646  0.00  0.00    -0.460 NA
ATOM     18  C   LIG    1        0.014   3.533   6.674  0.00  0.00    +0.170 C 
ATOM     19  C   LIG    1        1.025   4.033   7.716  0.00  0.00    +0.270 C 
ATOM     20  C   LIG    1        1.625   4.785   6.520  0.00  0.00    +0.170 C 
BRANCH  19  21
ATOM     21  N   LIG    1        0.447   4.903   8.743  0.00  0.00    -0.370 N 
ATOM     22  C   LIG    1       -0.801   5.416   8.739  0.00  0.00    +0.220 A 
ATOM     23  C   LIG    1       -0.945   6.160   9.860  0.00  0.00    -0.120 A 
ATOM     24  C   LIG    1        0.260   6.108  10.569  0.00  0.00    +0.230 A 
ATOM     25  N   LIG    1        1.095   5.355   9.900  0.00  0.00    -0.290 NA
ENDBRANCH  19  21
ENDBRANCH  16  17
ENDBRANCH  15  16
ENDBRANCH   2  15
TORSDOF 5
