REMARK  Name = ZINCpk00000SpRSm.0
REMARK                            x       y       z     vdW  Elec       q    Type
REMARK                         _______ _______ _______ _____ _____    ______ ____
ROOT
ATOM      1  N   LIG    1        2.128  -0.028   1.255  0.00  0.00    -0.490 N 
ATOM      2  C   LIG    1        2.813  -0.584   0.081  0.00  0.00    +0.200 C 
ATOM      3  C   LIG    1        2.099  -0.120  -1.193  0.00  0.00    -0.070 C 
ATOM      4  C   LIG    1        0.638  -0.577  -1.142  0.00  0.00    +0.220 C 
ATOM      5  O   LIG    1        0.002  -0.004   0.002  0.00  0.00    -0.350 OA
ATOM      6  C   LIG    1       -0.017   1.425   0.010  0.00  0.00    +0.240 C 
ATOM      7  C   LIG    1        1.421   1.953  -0.001  0.00  0.00    -0.080 C 
ATOM      8  C   LIG    1        2.134   1.413  -1.248  0.00  0.00    +0.170 C 
ATOM      9  C   LIG    1        2.151   1.440   1.244  0.00  0.00    +0.220 C 
ENDROOT
BRANCH   1  13
ATOM     10  C   LIG    1        3.761  -1.518   4.775  0.00  0.00    -0.130 A 
ATOM     11  C   LIG    1        4.578  -0.871   3.843  0.00  0.00    +0.100 A 
ATOM     12  C   LIG    1        4.036  -0.381   2.682  0.00  0.00    -0.040 A 
ATOM     13  C   LIG    1        2.674  -0.526   2.432  0.00  0.00    +0.130 A 
ATOM     14  C   LIG    1        1.857  -1.165   3.361  0.00  0.00    +0.040 A 
ATOM     15  C   LIG    1        2.393  -1.662   4.521  0.00  0.00    +0.090 A 
BRANCH  10  16
ATOM     16  C   LIG    1        4.340  -2.045   6.024  0.00  0.00    +0.510 C 
ATOM     17  O   LIG    1        5.528  -1.918   6.244  0.00  0.00    -0.500 OA
BRANCH  16  18
ATOM     18  O   LIG    1        3.551  -2.668   6.922  0.00  0.00    -0.350 OA
BRANCH  18  20
ATOM     19  C   LIG    1        4.828  -1.994   8.883  0.00  0.00    +0.030 C 
ATOM     20  C   LIG    1        4.190  -3.162   8.129  0.00  0.00    +0.120 C 
ATOM     21  C   LIG    1        5.270  -4.179   7.755  0.00  0.00    +0.030 C 
ATOM     22  C   LIG    1        3.143  -3.834   9.021  0.00  0.00    +0.080 C 
ENDBRANCH  18  20
ENDBRANCH  16  18
ENDBRANCH  10  16
ENDBRANCH   1  13
BRANCH   8  23
ATOM     23  O   LIG    1        1.461   1.869  -2.423  0.00  0.00    -0.560 OA
ATOM     24  H   LIG    1        1.849   1.547  -3.249  0.00  0.00    +0.380 HD
ENDBRANCH   8  23
BRANCH   7  25
ATOM     25  C   LIG    1        1.415   3.482  -0.010  0.00  0.00    +0.200 C 
BRANCH  25  26
ATOM     26  O   LIG    1        0.746   3.963   1.158  0.00  0.00    -0.570 OA
ATOM     27  H   LIG    1        0.705   4.927   1.219  0.00  0.00    +0.380 HD
ENDBRANCH  25  26
ENDBRANCH   7  25
TORSDOF 7
