REMARK  Name = ZINCkj000005hc7f.2
REMARK                            x       y       z     vdW  Elec       q    Type
REMARK                         _______ _______ _______ _____ _____    ______ ____
ROOT
ATOM      1  C   LIG    1        6.236   0.768  -0.056  0.00  0.00    -0.180 A 
ATOM      2  C   LIG    1        5.554  -0.435  -0.055  0.00  0.00    +0.080 A 
ATOM      3  C   LIG    1        4.173  -0.447  -0.041  0.00  0.00    +0.030 A 
ATOM      4  C   LIG    1        3.469   0.750  -0.028  0.00  0.00    +0.210 A 
ATOM      5  C   LIG    1        4.157   1.956  -0.034  0.00  0.00    -0.010 A 
ATOM      6  C   LIG    1        5.538   1.962  -0.043  0.00  0.00    +0.080 A 
ENDROOT
BRANCH   4   7
ATOM      7  N   LIG    1        2.068   0.741  -0.014  0.00  0.00    -0.340 N 
ATOM      8  C   LIG    1        1.265   1.829  -0.000  0.00  0.00    +0.230 A 
ATOM      9  C   LIG    1       -0.017   1.395   0.010  0.00  0.00    -0.080 A 
ATOM     10  C   LIG    1        0.002  -0.004   0.002  0.00  0.00    +0.270 A 
ATOM     11  N   LIG    1        1.250  -0.397  -0.012  0.00  0.00    -0.290 NA
ENDBRANCH   4   7
BRANCH   1  12
ATOM     12  C   LIG    1        7.743   0.778  -0.071  0.00  0.00    +0.330 C 
BRANCH  12  13
ATOM     13  N   LIG    1        8.218   0.787  -1.461  0.00  0.00    -0.370 N 
ATOM     14  C   LIG    1        7.831  -0.467  -2.120  0.00  0.00    +0.330 C 
ATOM     15  H   LIG    1        7.806   1.566  -1.952  0.00  0.00    +0.430 HD
BRANCH  13  16
ATOM     16  C   LIG    1        9.681   0.917  -1.477  0.00  0.00    +0.290 C 
BRANCH  16  19
ATOM     17  C   LIG    1       11.938   1.313  -4.545  0.00  0.00    +0.330 C 
ATOM     18  N   LIG    1       11.474   1.183  -3.161  0.00  0.00    -0.590 N 
ATOM     19  C   LIG    1       10.158   1.051  -2.901  0.00  0.00    +0.500 C 
ATOM     20  O   LIG    1        9.358   1.038  -3.812  0.00  0.00    -0.530 OA
ATOM     21  C   LIG    1       12.441   1.198  -2.060  0.00  0.00    +0.300 C 
ENDBRANCH  16  19
ENDBRANCH  13  16
ENDBRANCH  12  13
ENDBRANCH   1  12
TORSDOF 5
