REMARK  Name = ZINCkj000005hc7f.1
REMARK                            x       y       z     vdW  Elec       q    Type
REMARK                         _______ _______ _______ _____ _____    ______ ____
ROOT
ATOM      1  C   LIG    1        6.236   0.768  -0.056  0.00  0.00    -0.180 A 
ATOM      2  C   LIG    1        5.554  -0.435  -0.055  0.00  0.00    +0.080 A 
ATOM      3  C   LIG    1        4.173  -0.447  -0.041  0.00  0.00    +0.030 A 
ATOM      4  C   LIG    1        3.469   0.750  -0.028  0.00  0.00    +0.210 A 
ATOM      5  C   LIG    1        4.157   1.956  -0.034  0.00  0.00    -0.010 A 
ATOM      6  C   LIG    1        5.538   1.962  -0.043  0.00  0.00    +0.080 A 
ENDROOT
BRANCH   4   7
ATOM      7  N   LIG    1        2.068   0.741  -0.014  0.00  0.00    -0.340 N 
ATOM      8  C   LIG    1        1.265   1.829  -0.000  0.00  0.00    +0.230 A 
ATOM      9  C   LIG    1       -0.017   1.395   0.010  0.00  0.00    -0.080 A 
ATOM     10  C   LIG    1        0.002  -0.004   0.002  0.00  0.00    +0.270 A 
ATOM     11  N   LIG    1        1.250  -0.397  -0.012  0.00  0.00    -0.290 NA
ENDBRANCH   4   7
BRANCH   1  12
ATOM     12  C   LIG    1        7.743   0.778  -0.072  0.00  0.00    +0.330 C 
BRANCH  12  13
ATOM     13  N   LIG    1        8.217   0.788  -1.462  0.00  0.00    -0.370 N 
ATOM     14  C   LIG    1        7.814   2.044  -2.109  0.00  0.00    +0.330 C 
ATOM     15  H   LIG    1        7.815   0.009  -1.961  0.00  0.00    +0.430 HD
BRANCH  13  16
ATOM     16  C   LIG    1        9.682   0.677  -1.481  0.00  0.00    +0.290 C 
BRANCH  16  19
ATOM     17  C   LIG    1       11.941   0.340  -4.553  0.00  0.00    +0.330 C 
ATOM     18  N   LIG    1       11.477   0.450  -3.168  0.00  0.00    -0.590 N 
ATOM     19  C   LIG    1       10.159   0.563  -2.906  0.00  0.00    +0.500 C 
ATOM     20  O   LIG    1        9.359   0.574  -3.816  0.00  0.00    -0.530 OA
ATOM     21  C   LIG    1       12.444   0.437  -2.068  0.00  0.00    +0.310 C 
ENDBRANCH  16  19
ENDBRANCH  13  16
ENDBRANCH  12  13
ENDBRANCH   1  12
TORSDOF 5
