REMARK  Name = ZINCvU0000000Fvx.0
REMARK                            x       y       z     vdW  Elec       q    Type
REMARK                         _______ _______ _______ _____ _____    ______ ____
ROOT
ATOM      1  O   LIG    1        7.166  -3.079   0.093  0.00  0.00    -0.480 OA
ATOM      2  C   LIG    1        7.131  -4.293   0.034  0.00  0.00    +0.570 C 
ATOM      3  N   LIG    1        5.950  -4.926  -0.110  0.00  0.00    -0.660 N 
ATOM      4  H   LIG    1        5.929  -5.881  -0.277  0.00  0.00    +0.410 HD
ENDROOT
BRANCH   2   5
ATOM      5  C   LIG    1        8.382  -5.073   0.121  0.00  0.00    -0.180 A 
ATOM      6  C   LIG    1        8.364  -6.466   0.062  0.00  0.00    +0.140 A 
ATOM      7  C   LIG    1        9.565  -7.174   0.144  0.00  0.00    -0.120 A 
ATOM      8  C   LIG    1       10.741  -6.483   0.278  0.00  0.00    +0.180 A 
ATOM      9  N   LIG    1       10.716  -5.146   0.338  0.00  0.00    -0.480 NA
ATOM     10  C   LIG    1       12.119  -7.079   0.354  0.00  0.00    +0.170 C 
ATOM     11  C   LIG    1       12.121  -8.544   0.764  0.00  0.00    -0.310 C 
ATOM     12  S   LIG    1       11.006  -9.442  -0.359  0.00  0.00    +2.420 S 
ATOM     13  O   LIG    1       10.976 -10.812   0.020  0.00  0.00    -0.920 OA
ATOM     14  O   LIG    1       11.324  -9.094  -1.699  0.00  0.00    -0.920 OA
ATOM     15  C   LIG    1        9.426  -8.674   0.088  0.00  0.00    -0.260 C 
ATOM     16  C   LIG    1        9.618  -4.437   0.270  0.00  0.00    +0.250 A 
ATOM     17 CL   LIG    1        9.696  -2.705   0.366  0.00  0.00    +0.030 Cl
ENDBRANCH   2   5
BRANCH   3  18
ATOM     18  C   LIG    1        4.753  -4.206  -0.018  0.00  0.00    +0.150 A 
ATOM     19  C   LIG    1        3.595  -4.836   0.418  0.00  0.00    +0.020 A 
ATOM     20  C   LIG    1        2.415  -4.123   0.514  0.00  0.00    +0.060 A 
ATOM     21  C   LIG    1        2.385  -2.781   0.166  0.00  0.00    +0.090 A 
ATOM     22  C   LIG    1        3.543  -2.150  -0.269  0.00  0.00    -0.090 A 
ATOM     23 BR   LIG    1        3.502  -0.318  -0.737  0.00  0.00    -0.020 Br
ATOM     24  C   LIG    1        4.724  -2.860  -0.361  0.00  0.00    +0.080 A 
BRANCH  21  25
ATOM     25  O   LIG    1        1.223  -2.081   0.257  0.00  0.00    -0.240 OA
BRANCH  25  26
ATOM     26  C   LIG    1        0.572  -1.773  -0.895  0.00  0.00    +0.150 A 
ATOM     27  C   LIG    1        1.139  -2.095  -2.120  0.00  0.00    -0.070 A 
ATOM     28  C   LIG    1        0.476  -1.781  -3.292  0.00  0.00    +0.090 A 
ATOM     29  C   LIG    1       -0.750  -1.146  -3.245  0.00  0.00    -0.040 A 
ATOM     30  C   LIG    1       -1.319  -0.823  -2.024  0.00  0.00    +0.140 A 
ATOM     31  F   LIG    1       -2.521  -0.207  -1.980  0.00  0.00    -0.130 F 
ATOM     32  C   LIG    1       -0.659  -1.135  -0.849  0.00  0.00    -0.030 A 
ENDBRANCH  25  26
ENDBRANCH  21  25
ENDBRANCH   3  18
TORSDOF 4
