REMARK  Name = ZINCvU00000009e9.0
REMARK                            x       y       z     vdW  Elec       q    Type
REMARK                         _______ _______ _______ _____ _____    ______ ____
ROOT
ATOM      1  C   LIG    1        2.671   1.486  -6.587  0.00  0.00    +0.260 C 
ENDROOT
BRANCH   1   2
ATOM      2  C   LIG    1        2.788  -0.006  -6.768  0.00  0.00    -0.100 A 
ATOM      3  C   LIG    1        1.817  -0.694  -7.472  0.00  0.00    +0.030 A 
ATOM      4  C   LIG    1        1.926  -2.062  -7.642  0.00  0.00    +0.000 A 
ATOM      5  C   LIG    1        3.001  -2.742  -7.101  0.00  0.00    +0.010 A 
ATOM      6  C   LIG    1        3.969  -2.054  -6.393  0.00  0.00    +0.000 A 
ATOM      7  C   LIG    1        3.862  -0.686  -6.227  0.00  0.00    +0.010 A 
ENDBRANCH   1   2
BRANCH   1   9
ATOM      8  O   LIG    1        2.338   2.676  -8.599  0.00  0.00    -0.460 OA
ATOM      9  C   LIG    1        3.144   2.182  -7.837  0.00  0.00    +0.430 C 
BRANCH   9  10
ATOM     10  C   LIG    1        4.530   2.261  -8.122  0.00  0.00    -0.270 A 
ATOM     11  C   LIG    1        5.563   1.760  -7.359  0.00  0.00    +0.320 A 
ATOM     12  N   LIG    1        6.739   2.027  -7.958  0.00  0.00    -0.560 N 
ATOM     13  H   LIG    1        7.607   1.770  -7.608  0.00  0.00    +0.420 HD
ATOM     14  C   LIG    1        6.542   2.723  -9.133  0.00  0.00    +0.070 A 
ATOM     15  C   LIG    1        7.410   3.227 -10.096  0.00  0.00    +0.000 A 
ATOM     16  C   LIG    1        6.910   3.897 -11.191  0.00  0.00    +0.030 A 
ATOM     17  C   LIG    1        5.543   4.073 -11.348  0.00  0.00    +0.000 A 
ATOM     18  C   LIG    1        4.666   3.580 -10.405  0.00  0.00    +0.060 A 
ATOM     19  C   LIG    1        5.159   2.903  -9.294  0.00  0.00    -0.060 A 
ENDBRANCH   9  10
ENDBRANCH   1   9
BRANCH   1  20
ATOM     20  N   LIG    1        1.273   1.839  -6.331  0.00  0.00    -0.730 N 
ATOM     21  H   LIG    1        0.701   2.116  -7.063  0.00  0.00    +0.410 HD
BRANCH  20  22
ATOM     22  C   LIG    1        0.762   1.776  -5.030  0.00  0.00    +0.200 A 
ATOM     23  C   LIG    1       -0.564   2.110  -4.787  0.00  0.00    -0.030 A 
ATOM     24  C   LIG    1       -1.067   2.048  -3.503  0.00  0.00    +0.010 A 
ATOM     25  C   LIG    1       -0.248   1.652  -2.454  0.00  0.00    +0.100 A 
ATOM     26  C   LIG    1        1.079   1.322  -2.696  0.00  0.00    +0.050 A 
ATOM     27  C   LIG    1        1.581   1.379  -3.981  0.00  0.00    -0.050 A 
BRANCH  25  28
ATOM     28  N   LIG    1       -0.759   1.590  -1.151  0.00  0.00    -0.560 N 
ATOM     29  C   LIG    1       -2.103   2.035  -0.766  0.00  0.00    +0.260 C 
ATOM     30  C   LIG    1       -2.376   1.390   0.611  0.00  0.00    +0.060 C 
ATOM     31  C   LIG    1       -0.938   1.190   1.152  0.00  0.00    +0.070 C 
ATOM     32  C   LIG    1       -0.080   1.116  -0.092  0.00  0.00    +0.510 C 
ATOM     33  O   LIG    1        1.055   0.691  -0.128  0.00  0.00    -0.520 OA
ENDBRANCH  25  28
ENDBRANCH  20  22
ENDBRANCH   1  20
TORSDOF 6
