REMARK  Name = ZINCrD0000071VoJ.0
REMARK                            x       y       z     vdW  Elec       q    Type
REMARK                         _______ _______ _______ _____ _____    ______ ____
ROOT
ATOM      1  C   LIG    1        4.581   2.152   0.457  0.00  0.00    +0.550 C 
ATOM      2  O   LIG    1        4.794   1.143   1.101  0.00  0.00    -0.490 OA
ENDROOT
BRANCH   1   5
ATOM      3  C   LIG    1        7.346   4.439  -0.272  0.00  0.00    -0.050 A 
ATOM      4  C   LIG    1        6.632   3.318  -0.577  0.00  0.00    -0.010 A 
ATOM      5  C   LIG    1        5.603   3.209   0.385  0.00  0.00    -0.220 A 
ATOM      6  C   LIG    1        5.734   4.286   1.243  0.00  0.00    +0.130 A 
ATOM      7  C   LIG    1        4.847   4.585   2.424  0.00  0.00    +0.160 C 
ATOM      8  C   LIG    1        6.892   2.374  -1.723  0.00  0.00    +0.140 C 
ATOM      9  N   LIG    1        6.786   5.019   0.846  0.00  0.00    -0.510 N 
ATOM     10  H   LIG    1        7.100   5.829   1.276  0.00  0.00    +0.430 HD
BRANCH   3  11
ATOM     11  C   LIG    1        8.511   4.943  -1.008  0.00  0.00    +0.540 C 
ATOM     12  O   LIG    1        8.917   4.345  -1.985  0.00  0.00    -0.490 OA
BRANCH  11  13
ATOM     13  O   LIG    1        9.130   6.069  -0.600  0.00  0.00    -0.360 OA
BRANCH  13  15
ATOM     14  C   LIG    1       10.843   7.793  -0.767  0.00  0.00    +0.070 C 
ATOM     15  C   LIG    1       10.276   6.509  -1.376  0.00  0.00    +0.210 C 
ENDBRANCH  13  15
ENDBRANCH  11  13
ENDBRANCH   3  11
ENDBRANCH   1   5
BRANCH   1  16
ATOM     16  O   LIG    1        3.409   2.302  -0.191  0.00  0.00    -0.320 OA
BRANCH  16  17
ATOM     17  C   LIG    1        2.448   1.220  -0.076  0.00  0.00    +0.190 C 
ATOM     18  C   LIG    1        2.677   0.212  -1.205  0.00  0.00    +0.070 C 
BRANCH  17  19
ATOM     19  C   LIG    1        1.051   1.776  -0.174  0.00  0.00    +0.520 C 
ATOM     20  N   LIG    1       -0.011   0.966   0.007  0.00  0.00    -0.670 N 
ATOM     21  H   LIG    1        0.121   0.012   0.124  0.00  0.00    +0.410 HD
ATOM     22  O   LIG    1        0.882   2.952  -0.417  0.00  0.00    -0.490 OA
BRANCH  20  23
ATOM     23  C   LIG    1       -1.304   1.500   0.022  0.00  0.00    +0.150 A 
ATOM     24  C   LIG    1       -1.526   2.771   0.536  0.00  0.00    +0.000 A 
ATOM     25  C   LIG    1       -2.803   3.297   0.545  0.00  0.00    +0.030 A 
ATOM     26  C   LIG    1       -3.861   2.557   0.052  0.00  0.00    -0.010 A 
ATOM     27  C   LIG    1       -3.644   1.289  -0.456  0.00  0.00    -0.070 A 
ATOM     28  C   LIG    1       -4.801   0.485  -0.993  0.00  0.00    +0.090 C 
ATOM     29  C   LIG    1       -2.369   0.759  -0.472  0.00  0.00    -0.010 A 
ENDBRANCH  20  23
ENDBRANCH  17  19
ENDBRANCH  16  17
ENDBRANCH   1  16
TORSDOF 8
