REMARK  Name = ZINCrH000004mFtK.1
REMARK                            x       y       z     vdW  Elec       q    Type
REMARK                         _______ _______ _______ _____ _____    ______ ____
ROOT
ATOM      1  N   LIG    1       -1.255   3.128  -0.697  0.00  0.00    -0.720 N 
ATOM      2  H   LIG    1       -0.397   3.017  -1.135  0.00  0.00    +0.400 HD
ATOM      3  C   LIG    1       -1.959   2.045  -0.310  0.00  0.00    +0.560 C 
ATOM      4  O   LIG    1       -3.037   2.184   0.234  0.00  0.00    -0.530 OA
ENDROOT
BRANCH   3   5
ATOM      5  C   LIG    1       -1.423   0.689  -0.554  0.00  0.00    -0.100 A 
ATOM      6  C   LIG    1       -0.191   0.527  -1.190  0.00  0.00    +0.010 A 
ATOM      7  C   LIG    1        0.310  -0.740  -1.412  0.00  0.00    +0.040 A 
ATOM      8  C   LIG    1       -0.410  -1.851  -1.017  0.00  0.00    -0.010 A 
ATOM      9  C   LIG    1       -1.641  -1.701  -0.388  0.00  0.00    +0.170 A 
ATOM     10  C   LIG    1       -2.150  -0.433  -0.156  0.00  0.00    +0.040 A 
BRANCH   9  11
ATOM     11  N   LIG    1       -2.365  -2.829   0.010  0.00  0.00    -0.680 N 
ATOM     12  H   LIG    1       -2.276  -3.660  -0.481  0.00  0.00    +0.410 HD
BRANCH  11  13
ATOM     13  C   LIG    1       -3.213  -2.758   1.112  0.00  0.00    +0.220 A 
ATOM     14  C   LIG    1       -2.936  -1.898   2.174  0.00  0.00    -0.090 A 
ATOM     15  C   LIG    1       -3.804  -1.855   3.245  0.00  0.00    +0.290 A 
ATOM     16  N   LIG    1       -4.879  -2.620   3.276  0.00  0.00    -0.510 NA
ATOM     17  C   LIG    1       -5.173  -3.450   2.293  0.00  0.00    +0.290 A 
ATOM     18  C   LIG    1       -4.359  -3.550   1.184  0.00  0.00    -0.080 A 
ENDBRANCH  11  13
ENDBRANCH   9  11
ENDBRANCH   3   5
BRANCH   1  19
ATOM     19  C   LIG    1       -1.786   4.472  -0.455  0.00  0.00    +0.330 C 
BRANCH  19  23
ATOM     20  C   LIG    1        0.975   7.384  -1.932  0.00  0.00    +0.110 A 
ATOM     21  C   LIG    1        1.072   6.934  -0.626  0.00  0.00    -0.030 A 
ATOM     22  C   LIG    1        0.174   5.996  -0.149  0.00  0.00    +0.040 A 
ATOM     23  C   LIG    1       -0.814   5.498  -0.977  0.00  0.00    -0.110 A 
ATOM     24  C   LIG    1       -0.916   5.943  -2.282  0.00  0.00    -0.010 A 
ATOM     25  C   LIG    1       -0.024   6.886  -2.764  0.00  0.00    +0.100 A 
BRANCH  20  27
ATOM     26  C   LIG    1        2.852   8.776  -1.490  0.00  0.00    +0.240 C 
ATOM     27  O   LIG    1        1.853   8.310  -2.400  0.00  0.00    -0.310 OA
ENDBRANCH  20  27
BRANCH  25  28
ATOM     28  O   LIG    1       -0.123   7.325  -4.048  0.00  0.00    -0.310 OA
ATOM     29  C   LIG    1       -1.172   6.770  -4.844  0.00  0.00    +0.240 C 
ENDBRANCH  25  28
ENDBRANCH  19  23
ENDBRANCH   1  19
TORSDOF 7
