REMARK  Name = ZINCvU00000003OW.0
REMARK                            x       y       z     vdW  Elec       q    Type
REMARK                         _______ _______ _______ _____ _____    ______ ____
ROOT
ATOM      1  N   LIG    1        1.068   2.583   0.006  0.00  0.00    -0.460 N 
ATOM      2  C   LIG    1       -0.022   1.758   0.012  0.00  0.00    +0.160 A 
ATOM      3  N   LIG    1       -1.090   2.522   0.020  0.00  0.00    -0.280 NA
ATOM      4  N   LIG    1       -0.748   3.761   0.029  0.00  0.00    -0.260 NA
ATOM      5  C   LIG    1        0.563   3.865   0.018  0.00  0.00    +0.260 A 
ENDROOT
BRANCH   5   6
ATOM      6  C   LIG    1        1.342   5.113   0.016  0.00  0.00    -0.130 A 
ATOM      7  C   LIG    1        0.852   6.335  -0.262  0.00  0.00    +0.090 A 
ATOM      8  C   LIG    1        1.769   7.374  -0.199  0.00  0.00    -0.100 A 
ATOM      9  C   LIG    1        3.018   6.979   0.124  0.00  0.00    -0.160 A 
ATOM     10  C   LIG    1        4.208   7.906   0.256  0.00  0.00    +0.110 C 
ATOM     11  C   LIG    1        3.699   9.346   0.372  0.00  0.00    +0.030 C 
ATOM     12  C   LIG    1        2.693   9.610  -0.752  0.00  0.00    -0.020 C 
ATOM     13  C   LIG    1        1.408   8.828  -0.475  0.00  0.00    +0.110 C 
ATOM     14  S   LIG    1        3.059   5.239   0.370  0.00  0.00    +0.120 S 
BRANCH  12  15
ATOM     15  C   LIG    1        2.377  11.106  -0.813  0.00  0.00    +0.000 C 
ATOM     16  C   LIG    1        1.470  11.387  -2.013  0.00  0.00    +0.000 C 
ENDBRANCH  12  15
ENDBRANCH   5   6
BRANCH   1  17
ATOM     17  C   LIG    1        2.479   2.188  -0.009  0.00  0.00    +0.340 C 
BRANCH  17  19
ATOM     18  C   LIG    1        3.998   2.732  -1.842  0.00  0.00    +0.070 C 
ATOM     19  C   LIG    1        2.949   2.060  -1.435  0.00  0.00    -0.070 C 
ENDBRANCH  17  19
ENDBRANCH   1  17
BRANCH   2  20
ATOM     20  S   LIG    1        0.002  -0.004   0.002  0.00  0.00    +0.040 S 
BRANCH  20  21
ATOM     21  C   LIG    1       -1.776  -0.343   0.017  0.00  0.00    +0.200 C 
BRANCH  21  22
ATOM     22  C   LIG    1       -2.004  -1.832   0.011  0.00  0.00    +0.220 A 
ATOM     23  C   LIG    1       -2.402  -2.482   1.160  0.00  0.00    -0.110 A 
ATOM     24  C   LIG    1       -2.607  -3.862   1.128  0.00  0.00    +0.530 A 
ATOM     25  N   LIG    1       -2.411  -4.550  -0.035  0.00  0.00    -0.470 N 
ATOM     26  C   LIG    1       -2.567  -5.899  -0.233  0.00  0.00    +0.240 A 
ATOM     27  C   LIG    1       -2.333  -6.402  -1.433  0.00  0.00    +0.020 A 
ATOM     28  S   LIG    1       -1.859  -5.023  -2.439  0.00  0.00    +0.190 S 
ATOM     29  C   LIG    1       -2.018  -3.841  -1.128  0.00  0.00    +0.320 A 
ATOM     30  O   LIG    1       -2.960  -4.453   2.137  0.00  0.00    -0.510 OA
ATOM     31  N   LIG    1       -1.828  -2.535  -1.101  0.00  0.00    -0.500 NA
ENDBRANCH  21  22
ENDBRANCH  20  21
ENDBRANCH   2  20
TORSDOF 7
