REMARK  Name = ZINCc70000000hqx.0
REMARK                            x       y       z     vdW  Elec       q    Type
REMARK                         _______ _______ _______ _____ _____    ______ ____
ROOT
ATOM      1  C   LIG    1       -2.736   2.251   2.434  0.00  0.00    +0.230 C 
ATOM      2  C   LIG    1       -3.157   1.053   3.316  0.00  0.00    +0.030 C 
ATOM      3  C   LIG    1       -4.554   1.482   3.834  0.00  0.00    +0.170 C 
ATOM      4  N   LIG    1       -5.151   2.182   2.668  0.00  0.00    -0.510 NA
ATOM      5  C   LIG    1       -4.050   2.959   2.058  0.00  0.00    +0.180 C 
ENDROOT
BRANCH   1   8
ATOM      6  C   LIG    1       -0.013   1.086   0.008  0.00  0.00    +0.090 C 
ATOM      7  C   LIG    1       -0.718   1.572   1.248  0.00  0.00    +0.510 C 
ATOM      8  N   LIG    1       -2.050   1.778   1.228  0.00  0.00    -0.720 N 
ATOM      9  H   LIG    1       -2.554   1.615   0.416  0.00  0.00    +0.400 HD
ATOM     10  O   LIG    1       -0.087   1.777   2.263  0.00  0.00    -0.550 OA
ENDBRANCH   1   8
BRANCH   4  11
ATOM     11  C   LIG    1       -6.248   3.064   3.089  0.00  0.00    +0.150 C 
BRANCH  11  12
ATOM     12  C   LIG    1       -7.461   2.218   3.481  0.00  0.00    +0.220 C 
ATOM     13  F   LIG    1       -8.505   3.058   3.882  0.00  0.00    -0.220 F 
ENDBRANCH  11  12
ENDBRANCH   4  11
TORSDOF 3
