REMARK  Name = ZINCpe000000Umdh.0
REMARK                            x       y       z     vdW  Elec       q    Type
REMARK                         _______ _______ _______ _____ _____    ______ ____
ROOT
ATOM      1  C   LIG    1        1.242  -0.386  -0.024  0.00  0.00    +0.210 C 
ATOM      2  N   LIG    1       -0.160   0.065  -0.019  0.00  0.00    -0.720 N 
ATOM      3  H   LIG    1       -0.950  -0.498  -0.022  0.00  0.00    +0.440 HD
ATOM      4  C   LIG    1       -0.132   1.410  -0.010  0.00  0.00    +0.710 C 
ATOM      5  N   LIG    1        1.115   1.895  -0.009  0.00  0.00    -0.560 N 
ATOM      6  O   LIG    1       -1.128   2.107  -0.009  0.00  0.00    -0.540 OA
ATOM      7  C   LIG    1        1.542  -1.197  -1.286  0.00  0.00    +0.100 C 
ATOM      8  C   LIG    1        2.032   0.907  -0.016  0.00  0.00    +0.540 C 
ATOM      9  O   LIG    1        3.239   1.028  -0.017  0.00  0.00    -0.460 OA
ENDROOT
BRANCH   1  13
ATOM     10  C   LIG    1        0.752  -3.459   3.906  0.00  0.00    +0.360 C 
ATOM     11  N   LIG    1        1.322  -2.537   2.920  0.00  0.00    -0.370 N 
ATOM     12  C   LIG    1        0.667  -1.986   1.876  0.00  0.00    +0.270 A 
ATOM     13  C   LIG    1        1.542  -1.198   1.210  0.00  0.00    -0.250 A 
ATOM     14  C   LIG    1        2.775  -1.275   1.865  0.00  0.00    +0.260 A 
ATOM     15  N   LIG    1        2.643  -2.072   2.893  0.00  0.00    -0.290 NA
ENDBRANCH   1  13
BRANCH   5  16
ATOM     16  C   LIG    1        1.443   3.322  -0.000  0.00  0.00    +0.360 C 
BRANCH  16  17
ATOM     17  C   LIG    1        1.557   3.804   1.423  0.00  0.00    +0.500 C 
ATOM     18  N   LIG    1        1.854   5.094   1.677  0.00  0.00    -0.570 N 
ATOM     19  C   LIG    1        2.179   6.001   0.573  0.00  0.00    +0.300 C 
ATOM     20  O   LIG    1        1.382   3.030   2.341  0.00  0.00    -0.510 OA
BRANCH  18  21
ATOM     21  C   LIG    1        1.852   5.566   2.994  0.00  0.00    +0.140 A 
ATOM     22  C   LIG    1        0.902   6.495   3.398  0.00  0.00    +0.010 A 
ATOM     23  C   LIG    1        0.899   6.955   4.700  0.00  0.00    +0.020 A 
ATOM     24  C   LIG    1        1.847   6.501   5.598  0.00  0.00    +0.010 A 
ATOM     25  C   LIG    1        2.798   5.580   5.197  0.00  0.00    +0.020 A 
ATOM     26  C   LIG    1        2.803   5.111   3.898  0.00  0.00    +0.020 A 
ENDBRANCH  18  21
ENDBRANCH  16  17
ENDBRANCH   5  16
TORSDOF 4
