REMARK  Name = ZINCrD00000l5Ju2.0
REMARK                            x       y       z     vdW  Elec       q    Type
REMARK                         _______ _______ _______ _____ _____    ______ ____
ROOT
ATOM      1  C   LIG    1       -0.549   1.271   3.950  0.00  0.00    +0.050 C 
ATOM      2  C   LIG    1        0.064   1.115   2.557  0.00  0.00    +0.180 C 
ATOM      3  C   LIG    1       -1.042   1.165   1.496  0.00  0.00    +0.030 C 
ATOM      4  C   LIG    1       -0.417   0.803   0.146  0.00  0.00    +0.040 C 
ATOM      5  C   LIG    1        0.859   1.584  -0.047  0.00  0.00    -0.110 A 
ATOM      6  C   LIG    1        1.398   1.649  -1.322  0.00  0.00    +0.010 A 
ATOM      7  C   LIG    1        2.567   2.347  -1.553  0.00  0.00    -0.010 A 
ATOM      8  C   LIG    1        3.207   2.986  -0.507  0.00  0.00    +0.010 A 
ATOM      9  C   LIG    1        2.675   2.928   0.763  0.00  0.00    +0.020 A 
ATOM     10  C   LIG    1        1.492   2.226   1.003  0.00  0.00    +0.120 A 
ATOM     11  N   LIG    1        1.002   2.212   2.308  0.00  0.00    -0.490 N 
ENDROOT
BRANCH   4  12
ATOM     12  C   LIG    1       -1.383   1.140  -0.960  0.00  0.00    +0.530 C 
ATOM     13  O   LIG    1       -2.128   2.090  -0.846  0.00  0.00    -0.530 OA
ATOM     14  N   LIG    1       -1.420   0.385  -2.075  0.00  0.00    -0.860 N 
ATOM     15  H   LIG    1       -2.091   0.555  -2.754  0.00  0.00    +0.400 HD
ATOM     16  H   LIG    1       -0.775  -0.329  -2.200  0.00  0.00    +0.400 HD
ENDBRANCH   4  12
BRANCH  11  17
ATOM     17  C   LIG    1        0.404   3.506   2.660  0.00  0.00    +0.310 C 
BRANCH  17  18
ATOM     18  C   LIG    1        1.476   4.565   2.685  0.00  0.00    +0.090 A 
ATOM     19  N   LIG    1        2.274   4.824   3.689  0.00  0.00    -0.260 NA
ATOM     20  N   LIG    1        3.123   5.874   3.315  0.00  0.00    -0.330 N 
ATOM     21  C   LIG    1        2.805   6.234   2.051  0.00  0.00    +0.230 A 
ATOM     22  C   LIG    1        1.794   5.435   1.637  0.00  0.00    -0.090 A 
BRANCH  20  23
ATOM     23  C   LIG    1        4.124   6.449   4.109  0.00  0.00    +0.200 A 
ATOM     24  C   LIG    1        4.900   7.486   3.608  0.00  0.00    -0.010 A 
ATOM     25  C   LIG    1        5.883   8.055   4.394  0.00  0.00    +0.090 A 
ATOM     26  C   LIG    1        6.103   7.587   5.676  0.00  0.00    -0.030 A 
ATOM     27  C   LIG    1        5.334   6.549   6.178  0.00  0.00    +0.130 A 
ATOM     28  F   LIG    1        5.551   6.094   7.432  0.00  0.00    -0.130 F 
ATOM     29  C   LIG    1        4.345   5.980   5.397  0.00  0.00    -0.010 A 
ENDBRANCH  20  23
ENDBRANCH  17  18
ENDBRANCH  11  17
TORSDOF 4
