REMARK  Name = ZINCpk00000xJvEe.0
REMARK                            x       y       z     vdW  Elec       q    Type
REMARK                         _______ _______ _______ _____ _____    ______ ____
ROOT
ATOM      1  C   LIG    1        0.692  -3.698   1.061  0.00  0.00    +0.600 C 
ATOM      2  N   LIG    1        0.557  -2.514   0.430  0.00  0.00    -0.610 N 
ATOM      3  C   LIG    1       -0.685  -2.173  -0.280  0.00  0.00    +0.320 C 
ATOM      4  C   LIG    1       -1.338  -0.962   0.396  0.00  0.00    +0.300 C 
ATOM      5  N   LIG    1       -0.317   0.052   0.655  0.00  0.00    -0.470 N 
ATOM      6  C   LIG    1        1.021  -0.174   0.685  0.00  0.00    +0.150 A 
ATOM      7  N   LIG    1        1.603   0.953   0.955  0.00  0.00    -0.280 NA
ATOM      8  N   LIG    1        0.711   1.874   1.091  0.00  0.00    -0.290 NA
ATOM      9  C   LIG    1       -0.481   1.364   0.913  0.00  0.00    +0.190 A 
ATOM     10  C   LIG    1        1.650  -1.524   0.433  0.00  0.00    +0.450 C 
ATOM     11  O   LIG    1       -0.258  -4.450   1.152  0.00  0.00    -0.510 OA
ENDROOT
BRANCH   1  14
ATOM     12  N   LIG    1        4.212  -3.628   1.899  0.00  0.00    -0.330 N 
ATOM     13  N   LIG    1        3.057  -3.338   1.418  0.00  0.00    -0.180 NA
ATOM     14  C   LIG    1        1.997  -4.081   1.641  0.00  0.00    +0.010 A 
ATOM     15  C   LIG    1        2.099  -5.245   2.441  0.00  0.00    +0.130 A 
ATOM     16  C   LIG    1        3.319  -5.570   2.955  0.00  0.00    -0.010 A 
ATOM     17  C   LIG    1        4.407  -4.716   2.666  0.00  0.00    +0.480 A 
ATOM     18  O   LIG    1        5.516  -4.965   3.109  0.00  0.00    -0.510 OA
BRANCH  12  19
ATOM     19  C   LIG    1        5.347  -2.750   1.605  0.00  0.00    +0.320 C 
BRANCH  19  20
ATOM     20  C   LIG    1        6.038  -3.221   0.325  0.00  0.00    +0.010 C 
BRANCH  20  22
ATOM     21  C   LIG    1        7.916  -2.776  -1.263  0.00  0.00    +0.010 C 
ATOM     22  C   LIG    1        7.224  -2.304   0.018  0.00  0.00    +0.020 C 
ENDBRANCH  20  22
ENDBRANCH  19  20
ENDBRANCH  12  19
ENDBRANCH   1  14
BRANCH   9  23
ATOM     23  C   LIG    1       -1.791   2.107   0.979  0.00  0.00    +0.070 C 
ATOM     24  C   LIG    1       -1.799   3.219  -0.072  0.00  0.00    +0.060 C 
ATOM     25  C   LIG    1       -1.962   2.719   2.371  0.00  0.00    +0.050 C 
ENDBRANCH   9  23
TORSDOF 5
