REMARK  Name = ZINCpe00000VVGax.0
REMARK                            x       y       z     vdW  Elec       q    Type
REMARK                         _______ _______ _______ _____ _____    ______ ____
ROOT
ATOM      1  C   LIG    1       -0.027  12.081   0.917  0.00  0.00    +0.280 C 
ATOM      2  N   LIG    1       -1.380  11.587   0.649  0.00  0.00    -0.620 N 
ATOM      3  C   LIG    1       -2.176  11.216   1.671  0.00  0.00    +0.720 C 
ATOM      4  N   LIG    1       -1.728  11.298   2.940  0.00  0.00    -0.710 N 
ATOM      5  H   LIG    1       -0.832  11.625   3.117  0.00  0.00    +0.410 HD
ATOM      6  O   LIG    1       -3.299  10.806   1.449  0.00  0.00    -0.590 OA
ENDROOT
BRANCH   4   7
ATOM      7  C   LIG    1       -2.594  10.895   4.050  0.00  0.00    +0.260 C 
BRANCH   7   8
ATOM      8  C   LIG    1       -2.169  11.613   5.305  0.00  0.00    +0.530 C 
ATOM      9  O   LIG    1       -1.033  12.024   5.414  0.00  0.00    -0.520 OA
ATOM     10  N   LIG    1       -3.051  11.798   6.307  0.00  0.00    -0.840 N 
ATOM     11  H   LIG    1       -2.760  12.197   7.142  0.00  0.00    +0.410 HD
ATOM     12  H   LIG    1       -3.977  11.533   6.193  0.00  0.00    +0.400 HD
ENDBRANCH   7   8
BRANCH   7  13
ATOM     13  C   LIG    1       -2.481   9.407   4.260  0.00  0.00    +0.510 C 
ATOM     14  O   LIG    1       -1.473   8.822   3.925  0.00  0.00    -0.510 OA
ATOM     15  N   LIG    1       -3.500   8.726   4.821  0.00  0.00    -0.850 N 
ATOM     16  H   LIG    1       -3.400   7.782   5.022  0.00  0.00    +0.410 HD
ATOM     17  H   LIG    1       -4.333   9.179   5.022  0.00  0.00    +0.400 HD
ENDBRANCH   7  13
ENDBRANCH   4   7
BRANCH   2  18
ATOM     18  C   LIG    1       -1.867  11.497  -0.729  0.00  0.00    +0.360 C 
BRANCH  18  19
ATOM     19  C   LIG    1       -1.532  10.140  -1.293  0.00  0.00    -0.110 A 
ATOM     20  C   LIG    1       -2.428   9.096  -1.152  0.00  0.00    +0.040 A 
ATOM     21  C   LIG    1       -2.127   7.851  -1.667  0.00  0.00    +0.010 A 
ATOM     22  C   LIG    1       -0.918   7.648  -2.329  0.00  0.00    -0.040 A 
ATOM     23  C   LIG    1       -0.017   8.702  -2.463  0.00  0.00    +0.020 A 
ATOM     24  C   LIG    1       -0.331   9.944  -1.949  0.00  0.00    +0.020 A 
BRANCH  22  25
ATOM     25  C   LIG    1       -0.588   6.312  -2.884  0.00  0.00    -0.050 A 
ATOM     26  C   LIG    1        0.621   6.109  -3.546  0.00  0.00    +0.020 A 
ATOM     27  C   LIG    1        0.922   4.864  -4.061  0.00  0.00    +0.000 A 
ATOM     28  C   LIG    1        0.026   3.819  -3.920  0.00  0.00    +0.000 A 
ATOM     29  C   LIG    1       -1.178   4.017  -3.269  0.00  0.00    +0.000 A 
ATOM     30  C   LIG    1       -1.487   5.256  -2.745  0.00  0.00    +0.010 A 
ENDBRANCH  22  25
ENDBRANCH  18  19
ENDBRANCH   2  18
TORSDOF 6
