REMARK  Name = ZINCrD0000071VxI.0
REMARK                            x       y       z     vdW  Elec       q    Type
REMARK                         _______ _______ _______ _____ _____    ______ ____
ROOT
ATOM      1  C   LIG    1       -1.651   4.748   0.050  0.00  0.00    +0.540 C 
ATOM      2  O   LIG    1       -1.201   5.878   0.060  0.00  0.00    -0.490 OA
ENDROOT
BRANCH   1   7
ATOM      3  C   LIG    1        1.091   2.323   0.011  0.00  0.00    -0.220 A 
ATOM      4  C   LIG    1       -0.021   1.500   0.007  0.00  0.00    +0.130 A 
ATOM      5  N   LIG    1       -1.119   2.272   0.016  0.00  0.00    -0.510 N 
ATOM      6  H   LIG    1       -2.033   1.948   0.012  0.00  0.00    +0.430 HD
ATOM      7  C   LIG    1       -0.742   3.598   0.033  0.00  0.00    -0.050 A 
ATOM      8  C   LIG    1       -0.002  -0.006  -0.010  0.00  0.00    +0.160 C 
ATOM      9  C   LIG    1        0.621   3.656   0.027  0.00  0.00    -0.010 A 
ATOM     10  C   LIG    1        1.465   4.904   0.037  0.00  0.00    +0.140 C 
BRANCH   3  11
ATOM     11  C   LIG    1        2.499   1.892  -0.001  0.00  0.00    +0.550 C 
ATOM     12  O   LIG    1        3.075   1.725  -1.058  0.00  0.00    -0.500 OA
BRANCH  11  13
ATOM     13  O   LIG    1        3.149   1.682   1.161  0.00  0.00    -0.350 OA
BRANCH  13  15
ATOM     14  C   LIG    1        5.100   1.072   2.484  0.00  0.00    +0.070 C 
ATOM     15  C   LIG    1        4.535   1.258   1.074  0.00  0.00    +0.200 C 
ENDBRANCH  13  15
ENDBRANCH  11  13
ENDBRANCH   3  11
ENDBRANCH   1   7
BRANCH   1  16
ATOM     16  O   LIG    1       -2.985   4.554   0.055  0.00  0.00    -0.330 OA
BRANCH  16  17
ATOM     17  C   LIG    1       -3.824   5.739   0.071  0.00  0.00    +0.200 C 
ATOM     18  C   LIG    1       -4.126   6.171  -1.365  0.00  0.00    +0.070 C 
BRANCH  17  19
ATOM     19  C   LIG    1       -5.115   5.431   0.785  0.00  0.00    +0.520 C 
ATOM     20  N   LIG    1       -6.054   6.388   0.923  0.00  0.00    -0.670 N 
ATOM     21  H   LIG    1       -5.872   7.292   0.623  0.00  0.00    +0.410 HD
ATOM     22  O   LIG    1       -5.309   4.321   1.235  0.00  0.00    -0.500 OA
BRANCH  20  23
ATOM     23  C   LIG    1       -7.291   6.077   1.499  0.00  0.00    +0.130 A 
ATOM     24  C   LIG    1       -8.445   6.702   1.047  0.00  0.00    -0.010 A 
ATOM     25  C   LIG    1       -9.665   6.390   1.615  0.00  0.00    +0.030 A 
ATOM     26  C   LIG    1       -9.736   5.462   2.638  0.00  0.00    -0.100 A 
ATOM     27  C   LIG    1       -8.588   4.841   3.093  0.00  0.00    +0.030 A 
ATOM     28  C   LIG    1      -11.068   5.128   3.259  0.00  0.00    +0.090 C 
ATOM     29  C   LIG    1       -7.365   5.146   2.527  0.00  0.00    +0.020 A 
ENDBRANCH  20  23
ENDBRANCH  17  19
ENDBRANCH  16  17
ENDBRANCH   1  16
TORSDOF 8
