REMARK  Name = ZINC5c0000003ZsG.0
REMARK                            x       y       z     vdW  Elec       q    Type
REMARK                         _______ _______ _______ _____ _____    ______ ____
ROOT
ATOM      1  C   LIG    1       -0.019   1.526   0.010  0.00  0.00    +0.120 C 
ATOM      2  C   LIG    1        0.002  -0.004   0.002  0.00  0.00    +0.200 C 
ATOM      3  O   LIG    1        1.198   0.777  -0.005  0.00  0.00    -0.350 OA
ENDROOT
BRANCH   1   5
ATOM      4 CL   LIG    1       -0.521   4.016  -0.978  0.00  0.00    -0.170 Cl
ATOM      5  C   LIG    1       -0.433   2.240  -1.278  0.00  0.00    +0.180 C 
ENDBRANCH   1   5
TORSDOF 1
