REMARK  Name = ZINCrD00000hQ5EH.0
REMARK                            x       y       z     vdW  Elec       q    Type
REMARK                         _______ _______ _______ _____ _____    ______ ____
ROOT
ATOM      1  C   LIG    1       -2.127   3.576   1.538  0.00  0.00    +0.400 A 
ATOM      2  N   LIG    1       -1.837   4.821   1.187  0.00  0.00    -0.540 NA
ATOM      3  C   LIG    1       -2.071   5.840   1.999  0.00  0.00    +0.270 A 
ATOM      4  N   LIG    1       -2.598   5.697   3.191  0.00  0.00    -0.470 NA
ATOM      5  C   LIG    1       -2.930   4.479   3.646  0.00  0.00    +0.170 A 
ATOM      6  C   LIG    1       -3.496   4.290   4.914  0.00  0.00    +0.060 A 
ATOM      7  C   LIG    1       -3.828   3.031   5.321  0.00  0.00    +0.070 A 
ATOM      8  C   LIG    1       -3.601   1.929   4.502  0.00  0.00    +0.030 A 
ATOM      9  C   LIG    1       -3.048   2.078   3.264  0.00  0.00    +0.070 A 
ATOM     10  C   LIG    1       -2.704   3.357   2.813  0.00  0.00    -0.140 A 
ENDROOT
BRANCH   1  18
ATOM     11  C   LIG    1       -1.015   3.916  -4.034  0.00  0.00    +0.540 C 
ATOM     12  N   LIG    1       -1.082   3.248  -2.866  0.00  0.00    -0.620 N 
ATOM     13  C   LIG    1       -2.043   3.516  -1.751  0.00  0.00    +0.300 C 
ATOM     14  C   LIG    1       -1.296   2.987  -0.552  0.00  0.00    +0.130 C 
ATOM     15  C   LIG    1       -0.803   1.616  -1.162  0.00  0.00    -0.020 C 
ATOM     16  C   LIG    1       -0.013   1.086   0.008  0.00  0.00    +0.060 C 
ATOM     17  C   LIG    1       -0.807   1.621   1.239  0.00  0.00    +0.230 C 
ATOM     18  N   LIG    1       -1.878   2.523   0.683  0.00  0.00    -0.430 N 
ATOM     19  C   LIG    1       -0.212   2.107  -2.455  0.00  0.00    +0.280 C 
ATOM     20  O   LIG    1       -0.189   3.604  -4.865  0.00  0.00    -0.530 OA
BRANCH  11  22
ATOM     21  C   LIG    1       -1.679   5.636  -5.692  0.00  0.00    +0.050 C 
ATOM     22  C   LIG    1       -1.966   5.053  -4.307  0.00  0.00    -0.010 C 
ATOM     23  C   LIG    1       -3.405   4.536  -4.260  0.00  0.00    +0.040 C 
ENDBRANCH  11  22
ENDBRANCH   1  18
BRANCH   3  24
ATOM     24  C   LIG    1       -1.715   7.228   1.532  0.00  0.00    +0.550 C 
ATOM     25  F   LIG    1       -0.873   7.144   0.418  0.00  0.00    -0.160 F 
ATOM     26  F   LIG    1       -1.059   7.913   2.561  0.00  0.00    -0.160 F 
ATOM     27  F   LIG    1       -2.882   7.917   1.184  0.00  0.00    -0.160 F 
ENDBRANCH   3  24
TORSDOF 3
