REMARK  Name = ZINCpk00000y6vj8.0
REMARK                            x       y       z     vdW  Elec       q    Type
REMARK                         _______ _______ _______ _____ _____    ______ ____
ROOT
ATOM      1  C   LIG    1       -1.332   2.095   0.020  0.00  0.00    +0.050 C 
ATOM      2  C   LIG    1       -1.426   3.051   1.238  0.00  0.00    +0.060 C 
ATOM      3  C   LIG    1       -2.404   4.140   0.748  0.00  0.00    +0.230 C 
ATOM      4  N   LIG    1       -2.382   4.117  -0.722  0.00  0.00    -0.620 N 
ATOM      5  C   LIG    1       -3.117   4.906  -1.531  0.00  0.00    +0.610 C 
ATOM      6  O   LIG    1       -3.016   4.801  -2.738  0.00  0.00    -0.530 OA
ATOM      7  C   LIG    1       -1.423   3.089  -1.165  0.00  0.00    +0.280 C 
ENDROOT
BRANCH   1  10
ATOM      8  C   LIG    1        2.292   1.430  -0.012  0.00  0.00    +0.640 A 
ATOM      9  N   LIG    1        1.126   2.044   0.002  0.00  0.00    -0.590 NA
ATOM     10  C   LIG    1       -0.016   1.360   0.009  0.00  0.00    +0.240 A 
ATOM     11  C   LIG    1        0.002  -0.004   0.002  0.00  0.00    -0.190 A 
ATOM     12  C   LIG    1        1.242  -0.667  -0.013  0.00  0.00    +0.540 A 
ATOM     13  O   LIG    1        1.296  -1.886  -0.021  0.00  0.00    -0.540 OA
ATOM     14  N   LIG    1        2.373   0.072  -0.020  0.00  0.00    -0.650 N 
ATOM     15  H   LIG    1        3.239  -0.365  -0.031  0.00  0.00    +0.410 HD
BRANCH   8  17
ATOM     16  C   LIG    1        3.371   3.635  -0.010  0.00  0.00    +0.330 C 
ATOM     17  N   LIG    1        3.443   2.172  -0.019  0.00  0.00    -0.590 N 
ATOM     18  C   LIG    1        4.746   1.502  -0.034  0.00  0.00    +0.300 C 
ENDBRANCH   8  17
ENDBRANCH   1  10
BRANCH   5  19
ATOM     19  C   LIG    1       -4.042   5.898  -0.952  0.00  0.00    -0.280 A 
ATOM     20  C   LIG    1       -4.263   6.125   0.392  0.00  0.00    +0.290 A 
ATOM     21  N   LIG    1       -5.173   7.108   0.488  0.00  0.00    -0.460 N 
ATOM     22  H   LIG    1       -5.520   7.479   1.314  0.00  0.00    +0.450 HD
ATOM     23  N   LIG    1       -5.539   7.502  -0.804  0.00  0.00    -0.290 NA
ATOM     24  C   LIG    1       -4.872   6.789  -1.668  0.00  0.00    +0.170 A 
BRANCH  24  25
ATOM     25  C   LIG    1       -4.969   6.896  -3.168  0.00  0.00    +0.050 C 
ATOM     26  C   LIG    1       -5.775   8.063  -3.742  0.00  0.00    +0.030 C 
ATOM     27  C   LIG    1       -6.336   6.640  -3.807  0.00  0.00    +0.030 C 
ENDBRANCH  24  25
ENDBRANCH   5  19
TORSDOF 4
