REMARK  Name = ZINCqH0000033h2o.0
REMARK                            x       y       z     vdW  Elec       q    Type
REMARK                         _______ _______ _______ _____ _____    ______ ____
ROOT
ATOM      1  C   LIG    1        0.492  -5.216  -3.619  0.00  0.00    -0.700 A 
ATOM      2  C   LIG    1        1.301  -5.662  -4.651  0.00  0.00    +0.190 A 
ATOM      3  C   LIG    1        2.571  -5.141  -4.817  0.00  0.00    -0.010 A 
ATOM      4  C   LIG    1        3.042  -4.171  -3.952  0.00  0.00    +0.210 A 
ATOM      5  C   LIG    1        2.229  -3.717  -2.908  0.00  0.00    -0.180 A 
ATOM      6  F   LIG    1        4.283  -3.663  -4.114  0.00  0.00    -0.110 F 
ATOM      7  C   LIG    1        0.950  -4.253  -2.745  0.00  0.00    +0.200 A 
ENDROOT
BRANCH   5   8
ATOM      8  C   LIG    1        2.724  -2.681  -1.979  0.00  0.00    +0.570 C 
ATOM      9  N   LIG    1        2.593  -2.852  -0.648  0.00  0.00    -0.600 N 
ATOM     10  C   LIG    1        1.873  -4.016  -0.126  0.00  0.00    +0.290 C 
ATOM     11  O   LIG    1        3.249  -1.675  -2.414  0.00  0.00    -0.510 OA
BRANCH   9  12
ATOM     12  C   LIG    1        3.171  -1.873   0.276  0.00  0.00    +0.330 C 
ATOM     13  C   LIG    1        4.193  -2.566   1.179  0.00  0.00    +0.050 C 
BRANCH  12  14
ATOM     14  C   LIG    1        2.077  -1.274   1.123  0.00  0.00    -0.200 A 
ATOM     15  C   LIG    1        1.990   0.010   1.471  0.00  0.00    +0.020 A 
ATOM     16  C   LIG    1        0.894   0.329   2.254  0.00  0.00    +0.010 A 
ATOM     17  C   LIG    1        0.092  -0.697   2.543  0.00  0.00    -0.050 A 
ATOM     18  S   LIG    1        0.720  -2.163   1.802  0.00  0.00    +0.110 S 
ENDBRANCH  12  14
ENDBRANCH   9  12
ENDBRANCH   5   8
BRANCH   1  19
ATOM     19  S   LIG    1       -1.124  -5.888  -3.418  0.00  0.00    +2.690 S 
ATOM     20  O   LIG    1       -1.511  -6.391  -4.689  0.00  0.00    -0.950 OA
ATOM     21  O   LIG    1       -1.877  -4.916  -2.705  0.00  0.00    -0.940 OA
BRANCH  19  22
ATOM     22  N   LIG    1       -0.989  -7.200  -2.417  0.00  0.00    -0.990 NA
BRANCH  22  24
ATOM     23  C   LIG    1       -2.557  -7.317  -0.544  0.00  0.00    +0.010 C 
ATOM     24  C   LIG    1       -1.115  -7.032  -0.967  0.00  0.00    +0.280 C 
ENDBRANCH  22  24
BRANCH  22  25
ATOM     25  C   LIG    1       -0.743  -8.530  -2.982  0.00  0.00    +0.300 C 
ATOM     26  C   LIG    1        0.759  -8.821  -2.965  0.00  0.00    +0.000 C 
ENDBRANCH  22  25
ENDBRANCH  19  22
ENDBRANCH   1  19
TORSDOF 7
