REMARK  Name = ZINCtV000002IzrZ.0
REMARK                            x       y       z     vdW  Elec       q    Type
REMARK                         _______ _______ _______ _____ _____    ______ ____
ROOT
ATOM      1  C   LIG    1        2.916   4.539  -1.275  0.00  0.00    +0.240 C 
ENDROOT
BRANCH   1   2
ATOM      2  C   LIG    1        4.194   5.315  -1.086  0.00  0.00    +0.530 C 
ATOM      3  N   LIG    1        4.885   5.746  -2.160  0.00  0.00    -0.680 N 
ATOM      4  H   LIG    1        4.596   5.503  -3.053  0.00  0.00    +0.420 HD
ATOM      5  O   LIG    1        4.602   5.550   0.032  0.00  0.00    -0.480 OA
BRANCH   3   6
ATOM      6  C   LIG    1        6.021   6.546  -1.987  0.00  0.00    +0.210 A 
ATOM      7  C   LIG    1        6.854   6.344  -0.895  0.00  0.00    +0.050 A 
ATOM      8  C   LIG    1        7.976   7.131  -0.729  0.00  0.00    +0.100 A 
ATOM      9  C   LIG    1        8.264   8.129  -1.643  0.00  0.00    -0.050 A 
ATOM     10  C   LIG    1        7.433   8.337  -2.729  0.00  0.00    +0.110 A 
ATOM     11 CL   LIG    1        9.672   9.122  -1.427  0.00  0.00    -0.050 Cl
ATOM     12  C   LIG    1        6.312   7.548  -2.903  0.00  0.00    -0.200 A 
BRANCH  12  13
ATOM     13  C   LIG    1        5.406   7.776  -4.086  0.00  0.00    +0.510 C 
ATOM     14  F   LIG    1        4.121   8.094  -3.635  0.00  0.00    -0.170 F 
ATOM     15  F   LIG    1        5.353   6.613  -4.862  0.00  0.00    -0.180 F 
ATOM     16  F   LIG    1        5.904   8.830  -4.859  0.00  0.00    -0.170 F 
ENDBRANCH  12  13
ENDBRANCH   3   6
ENDBRANCH   1   2
BRANCH   1  17
ATOM     17  O   LIG    1        2.375   4.196   0.002  0.00  0.00    -0.280 OA
BRANCH  17  22
ATOM     18  C   LIG    1        3.763  -0.600  -0.032  0.00  0.00    +0.140 C 
ATOM     19  C   LIG    1        2.429   0.102  -0.017  0.00  0.00    +0.170 A 
ATOM     20  N   LIG    1        2.398   1.413  -0.010  0.00  0.00    -0.460 NA
ATOM     21  C   LIG    1        1.240   2.080   0.004  0.00  0.00    +0.140 A 
ATOM     22  C   LIG    1        1.214   3.490   0.011  0.00  0.00    +0.130 A 
ATOM     23  C   LIG    1        0.003   4.146   0.025  0.00  0.00    -0.030 A 
ATOM     24  C   LIG    1       -1.195   3.435   0.033  0.00  0.00    +0.070 A 
ATOM     25  C   LIG    1       -1.200   2.072   0.033  0.00  0.00    -0.000 A 
ATOM     26 CL   LIG    1       -2.706   1.208   0.050  0.00  0.00    -0.040 Cl
ATOM     27 CL   LIG    1       -0.030   5.881   0.034  0.00  0.00    -0.030 Cl
ATOM     28  C   LIG    1        0.015   1.368   0.012  0.00  0.00    -0.100 A 
ATOM     29  C   LIG    1        0.045  -0.039   0.005  0.00  0.00    +0.100 A 
ATOM     30  C   LIG    1        1.262  -0.658  -0.009  0.00  0.00    -0.010 A 
ENDBRANCH  17  22
ENDBRANCH   1  17
TORSDOF 5
