REMARK  Name = ZINCqH0000008ZRH.0
REMARK                            x       y       z     vdW  Elec       q    Type
REMARK                         _______ _______ _______ _____ _____    ______ ____
ROOT
ATOM      1  N   LIG    1       -0.778  -6.810  -1.279  0.00  0.00    -0.740 N 
ATOM      2  H   LIG    1       -0.814  -6.250  -2.070  0.00  0.00    +0.390 HD
ATOM      3  C   LIG    1       -0.196  -8.024  -1.339  0.00  0.00    +0.700 C 
ATOM      4  N   LIG    1        0.336  -8.460  -2.498  0.00  0.00    -0.740 N 
ATOM      5  H   LIG    1        0.299  -7.900  -3.289  0.00  0.00    +0.390 HD
ATOM      6  O   LIG    1       -0.150  -8.726  -0.347  0.00  0.00    -0.590 OA
ENDROOT
BRANCH   1   8
ATOM      7  C   LIG    1       -2.785  -6.866   0.118  0.00  0.00    +0.020 C 
ATOM      8  C   LIG    1       -1.356  -6.336  -0.019  0.00  0.00    +0.250 C 
BRANCH   8   9
ATOM      9  C   LIG    1       -1.376  -4.806  -0.010  0.00  0.00    +0.030 C 
BRANCH   9  10
ATOM     10  C   LIG    1        0.059  -4.277  -0.021  0.00  0.00    +0.060 C 
BRANCH  10  11
ATOM     11  C   LIG    1        0.039  -2.770  -0.013  0.00  0.00    -0.090 A 
ATOM     12  C   LIG    1        0.042  -2.087   1.189  0.00  0.00    +0.030 A 
ATOM     13  C   LIG    1        0.023  -0.705   1.199  0.00  0.00    -0.010 A 
ATOM     14  C   LIG    1        0.002  -0.004   0.002  0.00  0.00    +0.100 A 
ATOM     15  C   LIG    1       -0.006  -0.692  -1.202  0.00  0.00    -0.010 A 
ATOM     16  C   LIG    1        0.018  -2.074  -1.207  0.00  0.00    +0.020 A 
BRANCH  14  17
ATOM     17  O   LIG    1       -0.016   1.355   0.009  0.00  0.00    -0.500 OA
ATOM     18  H   LIG    1        0.862   1.760   0.003  0.00  0.00    +0.390 HD
ENDBRANCH  14  17
ENDBRANCH  10  11
ENDBRANCH   9  10
ENDBRANCH   8   9
ENDBRANCH   1   8
BRANCH   4  19
ATOM     19  C   LIG    1        0.969  -9.779  -2.563  0.00  0.00    +0.250 C 
ATOM     20  C   LIG    1        2.425  -9.670  -2.106  0.00  0.00    +0.020 C 
BRANCH  19  21
ATOM     21  C   LIG    1        0.923 -10.296  -4.003  0.00  0.00    +0.030 C 
BRANCH  21  22
ATOM     22  C   LIG    1       -0.532 -10.524  -4.417  0.00  0.00    +0.060 C 
BRANCH  22  23
ATOM     23  C   LIG    1       -0.577 -11.033  -5.834  0.00  0.00    -0.090 A 
ATOM     24  C   LIG    1       -0.665 -10.140  -6.886  0.00  0.00    +0.020 A 
ATOM     25  C   LIG    1       -0.701 -10.604  -8.187  0.00  0.00    -0.010 A 
ATOM     26  C   LIG    1       -0.660 -11.968  -8.437  0.00  0.00    +0.100 A 
ATOM     27  C   LIG    1       -0.577 -12.863  -7.380  0.00  0.00    -0.010 A 
ATOM     28  C   LIG    1       -0.535 -12.393  -6.081  0.00  0.00    +0.030 A 
BRANCH  26  29
ATOM     29  O   LIG    1       -0.702 -12.427  -9.715  0.00  0.00    -0.500 OA
ATOM     30  H   LIG    1       -1.596 -12.594 -10.044  0.00  0.00    +0.390 HD
ENDBRANCH  26  29
ENDBRANCH  22  23
ENDBRANCH  21  22
ENDBRANCH  19  21
ENDBRANCH   4  19
TORSDOF 10
