REMARK  Name = ZINCrH000004sKwo.0
REMARK                            x       y       z     vdW  Elec       q    Type
REMARK                         _______ _______ _______ _____ _____    ______ ____
ROOT
ATOM      1  C   LIG    1        1.709  -3.261   6.114  0.00  0.00    +0.150 C 
ATOM      2  C   LIG    1        2.211  -1.846   5.982  0.00  0.00    +0.090 A 
ATOM      3  N   LIG    1        3.401  -1.419   6.320  0.00  0.00    -0.290 NA
ATOM      4  N   LIG    1        3.468  -0.047   6.046  0.00  0.00    -0.360 N 
ATOM      5  C   LIG    1        2.281   0.331   5.527  0.00  0.00    +0.130 A 
ATOM      6  C   LIG    1        1.907   1.723   5.087  0.00  0.00    +0.140 C 
ATOM      7  C   LIG    1        1.487  -0.763   5.473  0.00  0.00    -0.280 A 
ENDROOT
BRANCH   4   8
ATOM      8  C   LIG    1        4.622   0.823   6.280  0.00  0.00    +0.390 C 
BRANCH   8   9
ATOM      9  C   LIG    1        4.538   1.407   7.667  0.00  0.00    -0.120 A 
ATOM     10  C   LIG    1        3.889   2.610   7.873  0.00  0.00    +0.040 A 
ATOM     11  C   LIG    1        3.807   3.143   9.145  0.00  0.00    +0.030 A 
ATOM     12  C   LIG    1        4.385   2.478  10.212  0.00  0.00    -0.020 A 
ATOM     13  C   LIG    1        5.039   1.276  10.005  0.00  0.00    +0.030 A 
ATOM     14 CL   LIG    1        4.289   3.150  11.809  0.00  0.00    -0.060 Cl
ATOM     15  C   LIG    1        5.115   0.741   8.733  0.00  0.00    +0.060 A 
ENDBRANCH   8   9
ENDBRANCH   4   8
BRANCH   7  16
ATOM     16  C   LIG    1        0.070  -0.806   4.962  0.00  0.00    +0.390 C 
BRANCH  16  17
ATOM     17  N   LIG    1        0.066  -1.270   3.572  0.00  0.00    -0.530 N 
ATOM     18  C   LIG    1        0.084  -2.602   3.311  0.00  0.00    +0.620 A 
ATOM     19  N   LIG    1        0.083  -3.074   2.097  0.00  0.00    -0.500 NA
ATOM     20  C   LIG    1        0.063  -2.269   1.031  0.00  0.00    +0.100 A 
ATOM     21  C   LIG    1        0.043  -0.872   1.184  0.00  0.00    -0.290 A 
ATOM     22  C   LIG    1        0.025  -0.201  -0.043  0.00  0.00    +0.190 A 
ATOM     23  N   LIG    1        0.023  -0.895  -1.131  0.00  0.00    -0.460 NA
ATOM     24  C   LIG    1        0.002   1.305  -0.093  0.00  0.00    +0.180 C 
ATOM     25  S   LIG    1        0.056  -2.539  -0.715  0.00  0.00    +0.290 S 
ATOM     26  C   LIG    1        0.045  -0.367   2.569  0.00  0.00    +0.580 A 
ATOM     27  O   LIG    1        0.028   0.829   2.801  0.00  0.00    -0.500 OA
ENDBRANCH  16  17
ENDBRANCH   7  16
TORSDOF 4
