REMARK  Name = ZINCqH0000035R7N.0
REMARK                            x       y       z     vdW  Elec       q    Type
REMARK                         _______ _______ _______ _____ _____    ______ ____
ROOT
ATOM      1  C   LIG    1       -1.210   2.012   0.137  0.00  0.00    +0.130 A 
ATOM      2  C   LIG    1       -0.080   1.257   0.418  0.00  0.00    -0.060 A 
ATOM      3  C   LIG    1        1.169   1.839   0.383  0.00  0.00    +0.110 A 
ATOM      4  C   LIG    1        1.299   3.194   0.068  0.00  0.00    -0.150 A 
ATOM      5  C   LIG    1        0.162   3.957  -0.210  0.00  0.00    +0.100 A 
ATOM      6  C   LIG    1       -1.088   3.368  -0.173  0.00  0.00    +0.130 A 
ENDROOT
BRANCH   6   7
ATOM      7  N   LIG    1       -2.231   4.129  -0.451  0.00  0.00    -0.680 N 
ATOM      8  H   LIG    1       -3.072   3.919  -0.016  0.00  0.00    +0.410 HD
ATOM      9  C   LIG    1       -2.162   5.154  -1.324  0.00  0.00    +0.710 C 
ATOM     10  N   LIG    1       -3.219   5.975  -1.484  0.00  0.00    -0.610 N 
ATOM     11  C   LIG    1       -4.453   5.756  -0.717  0.00  0.00    +0.270 C 
ATOM     12  C   LIG    1       -4.178   6.060   0.755  0.00  0.00    +0.000 C 
ATOM     13  C   LIG    1       -4.037   7.580   0.942  0.00  0.00    +0.010 C 
ATOM     14  C   LIG    1       -2.657   8.023   0.471  0.00  0.00    +0.000 C 
ATOM     15  C   LIG    1       -2.768   8.921  -0.774  0.00  0.00    +0.000 C 
ATOM     16  C   LIG    1       -3.771   8.319  -1.758  0.00  0.00    +0.010 C 
ATOM     17  C   LIG    1       -3.153   7.083  -2.423  0.00  0.00    +0.280 C 
ATOM     18  O   LIG    1       -1.146   5.338  -1.966  0.00  0.00    -0.580 OA
ENDBRANCH   6   7
BRANCH   4  19
ATOM     19  C   LIG    1        2.636   3.819   0.030  0.00  0.00    +0.580 C 
ATOM     20  N   LIG    1        2.753   5.153  -0.117  0.00  0.00    -0.610 N 
ATOM     21  C   LIG    1        1.647   6.086  -0.381  0.00  0.00    +0.260 C 
ATOM     22  C   LIG    1        2.257   7.499  -0.496  0.00  0.00    +0.040 C 
ATOM     23  C   LIG    1        3.736   7.207  -0.862  0.00  0.00    +0.040 C 
ATOM     24  C   LIG    1        4.010   5.919  -0.047  0.00  0.00    +0.250 C 
ATOM     25  O   LIG    1        3.632   3.129   0.132  0.00  0.00    -0.540 OA
ENDBRANCH   4  19
BRANCH   1  27
ATOM     26  C   LIG    1       -2.491   0.043   0.498  0.00  0.00    +0.250 C 
ATOM     27  O   LIG    1       -2.438   1.432   0.169  0.00  0.00    -0.320 OA
ENDBRANCH   1  27
TORSDOF 3
