REMARK  Name = ZINCqH0000002y4a.0
REMARK                            x       y       z     vdW  Elec       q    Type
REMARK                         _______ _______ _______ _____ _____    ______ ____
ROOT
ATOM      1  N   LIG    1        4.682   1.377  -5.109  0.00  0.00    -0.360 N 
ATOM      2  N   LIG    1        4.237   1.261  -3.915  0.00  0.00    -0.190 NA
ATOM      3  C   LIG    1        4.857   0.618  -2.955  0.00  0.00    +0.050 A 
ATOM      4  C   LIG    1        6.154  -0.019  -3.238  0.00  0.00    -0.030 A 
ATOM      5  C   LIG    1        6.877  -0.714  -2.276  0.00  0.00    +0.070 A 
ATOM      6  C   LIG    1        8.086  -1.282  -2.618  0.00  0.00    +0.050 A 
ATOM      7  C   LIG    1        8.586  -1.168  -3.908  0.00  0.00    +0.020 A 
ATOM      8  C   LIG    1        7.878  -0.493  -4.881  0.00  0.00    +0.090 A 
ATOM      9  C   LIG    1        6.660   0.093  -4.554  0.00  0.00    -0.140 A 
ATOM     10  C   LIG    1        5.851   0.846  -5.523  0.00  0.00    +0.520 A 
ATOM     11  O   LIG    1        6.226   0.986  -6.672  0.00  0.00    -0.500 OA
ENDROOT
BRANCH   3  12
ATOM     12  C   LIG    1        4.264   0.537  -1.606  0.00  0.00    +0.600 C 
ATOM     13  N   LIG    1        3.078   1.127  -1.354  0.00  0.00    -0.700 N 
ATOM     14  H   LIG    1        2.615   1.605  -2.060  0.00  0.00    +0.410 HD
ATOM     15  O   LIG    1        4.845  -0.062  -0.721  0.00  0.00    -0.520 OA
BRANCH  13  16
ATOM     16  C   LIG    1        2.490   1.047  -0.015  0.00  0.00    +0.340 C 
BRANCH  16  17
ATOM     17  C   LIG    1        1.175   1.783   0.000  0.00  0.00    -0.100 A 
ATOM     18  C   LIG    1       -0.013   1.076   0.008  0.00  0.00    +0.050 A 
ATOM     19  C   LIG    1       -1.219   1.751   0.017  0.00  0.00    +0.010 A 
ATOM     20  C   LIG    1       -1.239   3.133   0.030  0.00  0.00    +0.030 A 
ATOM     21  C   LIG    1       -0.052   3.841   0.022  0.00  0.00    +0.030 A 
ATOM     22  C   LIG    1        1.156   3.166   0.008  0.00  0.00    -0.020 A 
ATOM     23 CL   LIG    1        2.647   4.055  -0.001  0.00  0.00    -0.060 Cl
ENDBRANCH  16  17
ENDBRANCH  13  16
ENDBRANCH   3  12
BRANCH   1  24
ATOM     24  C   LIG    1        3.879   2.127  -6.078  0.00  0.00    +0.320 C 
BRANCH  24  25
ATOM     25  C   LIG    1        2.916   1.173  -6.788  0.00  0.00    +0.010 C 
BRANCH  25  27
ATOM     26  C   LIG    1        1.115   1.003  -8.511  0.00  0.00    +0.010 C 
ATOM     27  C   LIG    1        2.078   1.956  -7.801  0.00  0.00    +0.020 C 
ENDBRANCH  25  27
ENDBRANCH  24  25
ENDBRANCH   1  24
TORSDOF 6
