REMARK  Name = ZINCrH00000tj1fa.0
REMARK                            x       y       z     vdW  Elec       q    Type
REMARK                         _______ _______ _______ _____ _____    ______ ____
ROOT
ATOM      1  C   LIG    1       -4.045  -5.004   4.043  0.00  0.00    -0.030 C 
ATOM      2  C   LIG    1       -4.060  -6.039   2.914  0.00  0.00    +0.070 C 
ATOM      3  C   LIG    1       -4.310  -5.329   1.582  0.00  0.00    +0.200 C 
ATOM      4  N   LIG    1       -3.252  -4.338   1.348  0.00  0.00    -0.550 NA
ATOM      5  C   LIG    1       -3.248  -3.307   2.394  0.00  0.00    +0.180 C 
ATOM      6  C   LIG    1       -2.967  -3.957   3.751  0.00  0.00    +0.060 C 
ENDROOT
BRANCH   1   8
ATOM      7  O   LIG    1       -3.049  -6.686   5.366  0.00  0.00    -0.450 OA
ATOM      8  C   LIG    1       -3.740  -5.690   5.350  0.00  0.00    +0.400 C 
BRANCH   8   9
ATOM      9  C   LIG    1       -4.282  -5.150   6.608  0.00  0.00    -0.170 A 
ATOM     10  C   LIG    1       -5.075  -3.999   6.595  0.00  0.00    +0.060 A 
ATOM     11  C   LIG    1       -5.582  -3.502   7.777  0.00  0.00    +0.000 A 
ATOM     12  C   LIG    1       -5.301  -4.135   8.975  0.00  0.00    +0.040 A 
ATOM     13  C   LIG    1       -4.512  -5.272   8.997  0.00  0.00    +0.000 A 
ATOM     14  C   LIG    1       -4.001  -5.784   7.823  0.00  0.00    +0.070 A 
ENDBRANCH   8   9
ENDBRANCH   1   8
BRANCH   4  15
ATOM     15  C   LIG    1       -3.381  -3.734   0.015  0.00  0.00    +0.520 C 
BRANCH  15  16
ATOM     16  N   LIG    1       -2.757  -2.408   0.017  0.00  0.00    -0.370 N 
ATOM     17  N   LIG    1       -1.381  -2.128   0.004  0.00  0.00    -0.490 N 
ATOM     18  H   LIG    1       -0.656  -2.772  -0.007  0.00  0.00    +0.450 HD
ATOM     19  C   LIG    1       -1.264  -0.763   0.011  0.00  0.00    +0.440 A 
ATOM     20  N   LIG    1       -2.475  -0.243   0.031  0.00  0.00    -0.500 NA
ATOM     21  C   LIG    1       -3.392  -1.218   0.029  0.00  0.00    +0.470 A 
ATOM     22  S   LIG    1       -5.089  -0.993   0.047  0.00  0.00    -0.550 S 
BRANCH  19  23
ATOM     23  C   LIG    1        0.002  -0.004   0.002  0.00  0.00    -0.060 A 
ATOM     24  C   LIG    1       -0.017   1.393   0.010  0.00  0.00    +0.100 A 
ATOM     25  C   LIG    1        1.170   2.095   0.002  0.00  0.00    +0.020 A 
ATOM     26  C   LIG    1        2.378   1.420  -0.013  0.00  0.00    +0.050 A 
ATOM     27  C   LIG    1        2.404   0.036  -0.021  0.00  0.00    +0.020 A 
ATOM     28  C   LIG    1        1.225  -0.679  -0.013  0.00  0.00    +0.040 A 
ENDBRANCH  19  23
ENDBRANCH  15  16
ENDBRANCH   4  15
TORSDOF 5
