REMARK  Name = ZINCAx0000000eG3.0
REMARK                            x       y       z     vdW  Elec       q    Type
REMARK                         _______ _______ _______ _____ _____    ______ ____
ROOT
ATOM      1  N   LIG    1       -0.697   1.510   1.169  0.00  0.00    -0.470 N 
ATOM      2  C   LIG    1       -1.611   0.656   1.730  0.00  0.00    +0.490 A 
ATOM      3  C   LIG    1       -2.235   0.997   2.954  0.00  0.00    -0.330 A 
ATOM      4  C   LIG    1       -3.205   0.061   3.523  0.00  0.00    +0.560 A 
ATOM      5  N   LIG    1       -3.453  -1.083   2.844  0.00  0.00    -0.440 N 
ATOM      6  C   LIG    1       -4.353  -1.972   3.351  0.00  0.00    +0.300 A 
ATOM      7  C   LIG    1       -4.627  -3.126   2.702  0.00  0.00    +0.000 A 
ATOM      8  C   LIG    1       -3.983  -3.420   1.492  0.00  0.00    +0.160 A 
ATOM      9  C   LIG    1       -3.082  -2.537   0.977  0.00  0.00    +0.020 A 
ATOM     10  C   LIG    1       -2.808  -1.339   1.666  0.00  0.00    +0.450 A 
ATOM     11  O   LIG    1       -3.772   0.304   4.573  0.00  0.00    -0.470 OA
ATOM     12  C   LIG    1       -1.922   2.200   3.593  0.00  0.00    +0.290 A 
ATOM     13  C   LIG    1       -0.990   3.055   3.007  0.00  0.00    -0.120 A 
ATOM     14  N   LIG    1       -1.924  -0.490   1.143  0.00  0.00    -0.570 NA
ATOM     15  C   LIG    1       -0.376   2.688   1.784  0.00  0.00    +0.530 A 
ATOM     16  N   LIG    1        0.519   3.501   1.227  0.00  0.00    -0.650 NA
ENDROOT
BRANCH  13  17
ATOM     17  C   LIG    1       -0.650   4.293   3.641  0.00  0.00    +0.280 C 
ATOM     18  N   LIG    1       -0.381   5.276   4.143  0.00  0.00    -0.400 NA
ENDBRANCH  13  17
BRANCH  16  19
ATOM     19  C   LIG    1        1.561   2.992   0.561  0.00  0.00    +0.560 C 
ATOM     20  O   LIG    1        2.276   2.160   1.092  0.00  0.00    -0.500 OA
BRANCH  19  21
ATOM     21  C   LIG    1        1.845   3.438  -0.820  0.00  0.00    -0.140 A 
ATOM     22  C   LIG    1        1.089   4.460  -1.396  0.00  0.00    +0.100 A 
ATOM     23  C   LIG    1        1.365   4.877  -2.686  0.00  0.00    +0.090 A 
ATOM     24  C   LIG    1        2.383   4.273  -3.412  0.00  0.00    -0.010 A 
ATOM     25  C   LIG    1        3.132   3.257  -2.851  0.00  0.00    -0.050 A 
ATOM     26  C   LIG    1        2.871   2.833  -1.557  0.00  0.00    +0.140 A 
BRANCH  23  27
ATOM     27  O   LIG    1        0.633   5.876  -3.247  0.00  0.00    -0.310 OA
ATOM     28  C   LIG    1        0.967   6.253  -4.584  0.00  0.00    +0.230 C 
ENDBRANCH  23  27
BRANCH  26  29
ATOM     29  O   LIG    1        3.608   1.835  -1.006  0.00  0.00    -0.290 OA
ATOM     30  C   LIG    1        4.637   1.265  -1.817  0.00  0.00    +0.230 C 
ENDBRANCH  26  29
ENDBRANCH  19  21
ENDBRANCH  16  19
BRANCH   1  31
ATOM     31  C   LIG    1       -0.053   1.153  -0.098  0.00  0.00    +0.300 C 
BRANCH  31  32
ATOM     32  C   LIG    1       -0.764   1.866  -1.250  0.00  0.00    +0.040 C 
BRANCH  32  33
ATOM     33  C   LIG    1       -0.035   1.570  -2.562  0.00  0.00    +0.180 C 
BRANCH  33  34
ATOM     34  O   LIG    1       -0.630   2.325  -3.619  0.00  0.00    -0.380 OA
BRANCH  34  36
ATOM     35  C   LIG    1       -0.733   2.973  -5.945  0.00  0.00    +0.040 C 
ATOM     36  C   LIG    1       -0.019   2.120  -4.894  0.00  0.00    +0.160 C 
ENDBRANCH  34  36
ENDBRANCH  33  34
ENDBRANCH  32  33
ENDBRANCH  31  32
ENDBRANCH   1  31
TORSDOF 10
