REMARK  Name = ZINCpk00000xIkKM.0
REMARK                            x       y       z     vdW  Elec       q    Type
REMARK                         _______ _______ _______ _____ _____    ______ ____
ROOT
ATOM      1  C   LIG    1        0.162   0.960  -4.895  0.00  0.00    +0.090 C 
ENDROOT
BRANCH   1   3
ATOM      2  O   LIG    1       -1.540   2.130  -3.753  0.00  0.00    -0.520 OA
ATOM      3  C   LIG    1       -0.543   1.446  -3.655  0.00  0.00    +0.540 C 
ATOM      4  N   LIG    1       -0.067   1.120  -2.437  0.00  0.00    -0.720 N 
ATOM      5  H   LIG    1        0.730   0.573  -2.358  0.00  0.00    +0.410 HD
BRANCH   4   6
ATOM      6  C   LIG    1       -0.753   1.593  -1.232  0.00  0.00    +0.260 C 
BRANCH   6   7
ATOM      7  C   LIG    1       -0.013   1.086   0.008  0.00  0.00    +0.070 C 
BRANCH   7   8
ATOM      8  C   LIG    1       -0.718   1.572   1.248  0.00  0.00    -0.090 A 
ATOM      9  C   LIG    1       -0.360   2.779   1.819  0.00  0.00    +0.010 A 
ATOM     10  C   LIG    1       -1.010   3.227   2.953  0.00  0.00    +0.000 A 
ATOM     11  C   LIG    1       -2.012   2.463   3.523  0.00  0.00    +0.000 A 
ATOM     12  C   LIG    1       -2.366   1.254   2.955  0.00  0.00    +0.000 A 
ATOM     13  C   LIG    1       -1.719   0.808   1.818  0.00  0.00    +0.010 A 
ENDBRANCH   7   8
ENDBRANCH   6   7
ENDBRANCH   4   6
ENDBRANCH   1   3
BRANCH   1  14
ATOM     14  S   LIG    1       -0.714   1.560  -6.361  0.00  0.00    +0.160 S 
BRANCH  14  15
ATOM     15  C   LIG    1        0.297   0.864  -7.626  0.00  0.00    +0.120 A 
ATOM     16  N   LIG    1        1.371   0.133  -7.450  0.00  0.00    -0.290 NA
ATOM     17  N   LIG    1        1.849  -0.203  -8.596  0.00  0.00    -0.260 NA
ATOM     18  C   LIG    1        1.112   0.302  -9.541  0.00  0.00    +0.180 A 
ATOM     19  O   LIG    1        0.113   0.989  -8.954  0.00  0.00    -0.200 OA
BRANCH  18  20
ATOM     20  C   LIG    1        1.336   0.147 -11.023  0.00  0.00    +0.140 C 
ATOM     21  C   LIG    1        1.361  -1.345 -11.399  0.00  0.00    +0.090 C 
ATOM     22  C   LIG    1        1.922  -1.485 -12.828  0.00  0.00    -0.290 C 
ATOM     23  S   LIG    1        3.026  -0.043 -13.050  0.00  0.00    +2.400 S 
ATOM     24  O   LIG    1        4.375  -0.485 -13.116  0.00  0.00    -0.920 OA
ATOM     25  O   LIG    1        2.505   0.796 -14.071  0.00  0.00    -0.930 OA
ATOM     26  C   LIG    1        2.720   0.726 -11.415  0.00  0.00    -0.290 C 
ENDBRANCH  18  20
ENDBRANCH  14  15
ENDBRANCH   1  14
TORSDOF 7
