REMARK  Name = ZINCrH000004l5jF.0
REMARK                            x       y       z     vdW  Elec       q    Type
REMARK                         _______ _______ _______ _____ _____    ______ ____
ROOT
ATOM      1  C   LIG    1        0.134  -0.455   6.581  0.00  0.00    -0.030 A 
ATOM      2  C   LIG    1        1.154   0.316   7.139  0.00  0.00    +0.080 A 
ATOM      3  C   LIG    1        1.488   1.528   6.571  0.00  0.00    +0.020 A 
ATOM      4  C   LIG    1        0.814   1.979   5.450  0.00  0.00    +0.050 A 
ATOM      5  C   LIG    1       -0.198   1.219   4.892  0.00  0.00    -0.110 A 
ATOM      6  C   LIG    1       -0.546   0.008   5.454  0.00  0.00    +0.050 A 
ENDROOT
BRANCH   1  10
ATOM      7  C   LIG    1       -0.142  -3.455   8.618  0.00  0.00    +0.030 A 
ATOM      8  C   LIG    1       -1.155  -3.945   7.849  0.00  0.00    -0.010 A 
ATOM      9  S   LIG    1       -1.495  -2.829   6.598  0.00  0.00    +0.210 S 
ATOM     10  C   LIG    1       -0.230  -1.756   7.185  0.00  0.00    +0.090 A 
ATOM     11  N   LIG    1        0.331  -2.277   8.233  0.00  0.00    -0.410 NA
BRANCH   7  12
ATOM     12  C   LIG    1        0.387  -4.177   9.786  0.00  0.00    +0.540 C 
ATOM     13  O   LIG    1       -0.082  -5.255  10.097  0.00  0.00    -0.500 OA
BRANCH  12  15
ATOM     14  C   LIG    1        1.861  -4.412  11.649  0.00  0.00    +0.280 C 
ATOM     15  O   LIG    1        1.390  -3.644  10.511  0.00  0.00    -0.340 OA
ENDBRANCH  12  15
ENDBRANCH   7  12
ENDBRANCH   1  10
BRANCH   5  16
ATOM     16  C   LIG    1       -0.927   1.718   3.671  0.00  0.00    +0.320 C 
BRANCH  16  17
ATOM     17  N   LIG    1       -0.242   1.246   2.466  0.00  0.00    -0.730 N 
ATOM     18  H   LIG    1        0.555   0.699   2.544  0.00  0.00    +0.400 HD
ATOM     19  C   LIG    1       -0.718   1.572   1.248  0.00  0.00    +0.510 C 
ATOM     20  O   LIG    1       -1.714   2.256   1.150  0.00  0.00    -0.530 OA
BRANCH  19  21
ATOM     21  C   LIG    1       -0.013   1.086   0.008  0.00  0.00    +0.100 C 
BRANCH  21  22
ATOM     22  C   LIG    1       -0.742   1.585  -1.213  0.00  0.00    -0.080 A 
ATOM     23  C   LIG    1       -1.750   0.825  -1.775  0.00  0.00    +0.020 A 
ATOM     24  C   LIG    1       -2.422   1.285  -2.892  0.00  0.00    +0.000 A 
ATOM     25  C   LIG    1       -2.078   2.501  -3.453  0.00  0.00    -0.080 A 
ATOM     26  C   LIG    1       -1.066   3.259  -2.894  0.00  0.00    +0.000 A 
ATOM     27  C   LIG    1       -2.807   2.999  -4.674  0.00  0.00    +0.090 C 
ATOM     28  C   LIG    1       -0.398   2.801  -1.774  0.00  0.00    +0.020 A 
ENDBRANCH  21  22
ENDBRANCH  19  21
ENDBRANCH  16  17
ENDBRANCH   5  16
TORSDOF 7
