REMARK  Name = ZINCrD000000BLby.0
REMARK                            x       y       z     vdW  Elec       q    Type
REMARK                         _______ _______ _______ _____ _____    ______ ____
ROOT
ATOM      1  O   LIG    1        1.215  -1.612   2.117  0.00  0.00    -0.570 OA
ATOM      2  C   LIG    1        0.231  -1.450   2.812  0.00  0.00    +0.740 C 
ATOM      3  N   LIG    1       -0.235  -0.206   3.040  0.00  0.00    -0.660 N 
ATOM      4  C   LIG    1       -1.354   0.383   3.796  0.00  0.00    +0.290 C 
ATOM      5  C   LIG    1       -0.522   1.655   3.916  0.00  0.00    -0.120 C 
ATOM      6  C   LIG    1       -1.162   3.038   4.005  0.00  0.00    +0.040 C 
ATOM      7  C   LIG    1       -0.855   2.984   5.513  0.00  0.00    +0.010 C 
ATOM      8  C   LIG    1        0.271   1.989   5.176  0.00  0.00    +0.050 C 
ATOM      9  C   LIG    1        0.154   1.159   2.644  0.00  0.00    +0.270 C 
ATOM     10  N   LIG    1       -0.395  -2.513   3.353  0.00  0.00    -0.720 N 
ATOM     11  H   LIG    1       -1.181  -2.384   3.907  0.00  0.00    +0.400 HD
ENDROOT
BRANCH  10  12
ATOM     12  C   LIG    1        0.111  -3.865   3.105  0.00  0.00    +0.270 C 
ATOM     13  C   LIG    1       -0.373  -4.489   1.818  0.00  0.00    -0.060 C 
ATOM     14  C   LIG    1       -0.999  -3.736   0.643  0.00  0.00    +0.020 C 
ATOM     15  C   LIG    1       -2.310  -4.566   0.463  0.00  0.00    +0.200 C 
ATOM     16  O   LIG    1       -2.565  -5.181   1.759  0.00  0.00    -0.360 OA
ATOM     17  C   LIG    1       -1.710  -4.568   2.669  0.00  0.00    +0.120 C 
ATOM     18  C   LIG    1       -0.760  -5.003   3.715  0.00  0.00    -0.040 C 
ATOM     19  C   LIG    1       -1.129  -4.775   5.186  0.00  0.00    +0.030 C 
ATOM     20  C   LIG    1       -1.254  -6.208   5.767  0.00  0.00    +0.020 C 
ATOM     21  C   LIG    1       -0.122  -6.976   5.038  0.00  0.00    +0.020 C 
ATOM     22  C   LIG    1       -0.127  -6.393   3.607  0.00  0.00    +0.060 C 
ENDBRANCH  10  12
BRANCH   9  23
ATOM     23  C   LIG    1       -0.528   1.640   1.362  0.00  0.00    -0.010 C 
ATOM     24  C   LIG    1       -0.270   0.634   0.236  0.00  0.00    +0.010 C 
ATOM     25  C   LIG    1       -0.888   1.161  -1.062  0.00  0.00    +0.200 C 
ATOM     26  O   LIG    1       -0.335   2.444  -1.365  0.00  0.00    -0.380 OA
ATOM     27  C   LIG    1       -0.587   3.438  -0.370  0.00  0.00    +0.210 C 
ATOM     28  C   LIG    1        0.043   3.002   0.956  0.00  0.00    +0.000 C 
ENDBRANCH   9  23
TORSDOF 2
