REMARK  Name = ZINCqH00000512uG.0
REMARK                            x       y       z     vdW  Elec       q    Type
REMARK                         _______ _______ _______ _____ _____    ______ ____
ROOT
ATOM      1  C   LIG    1        2.353  -6.049  -0.054  0.00  0.00    +0.480 C 
ATOM      2  O   LIG    1        3.557  -6.146  -0.066  0.00  0.00    -0.490 OA
ENDROOT
BRANCH   1   3
ATOM      3  C   LIG    1        1.497  -7.289  -0.052  0.00  0.00    -0.000 C 
ATOM      4  C   LIG    1        0.653  -7.345   1.233  0.00  0.00    +0.050 C 
ATOM      5  C   LIG    1        1.064  -8.637   1.972  0.00  0.00    +0.020 C 
ATOM      6  C   LIG    1        2.488  -8.941   1.444  0.00  0.00    +0.030 C 
ATOM      7  C   LIG    1        2.389  -8.547  -0.051  0.00  0.00    +0.070 C 
BRANCH   3   8
ATOM      8  C   LIG    1        0.597  -7.296  -1.261  0.00  0.00    -0.110 A 
ATOM      9  C   LIG    1        0.657  -6.261  -2.174  0.00  0.00    +0.050 A 
ATOM     10  C   LIG    1       -0.169  -6.267  -3.283  0.00  0.00    +0.010 A 
ATOM     11  C   LIG    1       -1.055  -7.309  -3.480  0.00  0.00    +0.050 A 
ATOM     12  C   LIG    1       -1.117  -8.346  -2.568  0.00  0.00    -0.010 A 
ATOM     13  C   LIG    1       -0.288  -8.343  -1.460  0.00  0.00    +0.110 A 
ATOM     14  F   LIG    1       -0.344  -9.359  -0.571  0.00  0.00    -0.130 F 
ENDBRANCH   3   8
ENDBRANCH   1   3
BRANCH   1  15
ATOM     15  O   LIG    1        1.778  -4.836  -0.042  0.00  0.00    -0.330 OA
BRANCH  15  16
ATOM     16  C   LIG    1        2.664  -3.686  -0.044  0.00  0.00    +0.270 C 
BRANCH  16  19
ATOM     17  N   LIG    1        2.460  -1.221  -0.028  0.00  0.00    -0.630 N 
ATOM     18  H   LIG    1        3.428  -1.172  -0.038  0.00  0.00    +0.420 HD
ATOM     19  C   LIG    1        1.846  -2.421  -0.029  0.00  0.00    +0.510 C 
ATOM     20  O   LIG    1        0.634  -2.482  -0.017  0.00  0.00    -0.470 OA
BRANCH  17  22
ATOM     21  C   LIG    1        2.229   1.210  -0.013  0.00  0.00    -0.110 A 
ATOM     22  C   LIG    1        1.706  -0.056  -0.015  0.00  0.00    +0.050 A 
ATOM     23  S   LIG    1        0.002  -0.004   0.002  0.00  0.00    +0.320 S 
ATOM     24  C   LIG    1       -0.022   1.750   0.012  0.00  0.00    -0.100 A 
ATOM     25  C   LIG    1        1.212   2.238   0.003  0.00  0.00    +0.080 A 
BRANCH  21  27
ATOM     26  N   LIG    1        4.748   1.706  -0.034  0.00  0.00    -0.420 NA
ATOM     27  C   LIG    1        3.634   1.487  -0.025  0.00  0.00    +0.270 C 
ENDBRANCH  21  27
ENDBRANCH  17  22
ENDBRANCH  16  19
ENDBRANCH  15  16
ENDBRANCH   1  15
TORSDOF 7
