REMARK  Name = ZINCqH00000330Zr.0
REMARK                            x       y       z     vdW  Elec       q    Type
REMARK                         _______ _______ _______ _____ _____    ______ ____
ROOT
ATOM      1  N   LIG    1        0.423   2.297  -4.579  0.00  0.00    -0.630 N 
ATOM      2  H   LIG    1        1.350   2.521  -4.403  0.00  0.00    +0.420 HD
ATOM      3  C   LIG    1       -0.399   1.981  -3.559  0.00  0.00    +0.710 C 
ATOM      4  N   LIG    1        0.068   1.974  -2.295  0.00  0.00    -0.720 N 
ATOM      5  H   LIG    1        0.995   2.198  -2.119  0.00  0.00    +0.400 HD
ATOM      6  O   LIG    1       -1.561   1.701  -3.779  0.00  0.00    -0.550 OA
ENDROOT
BRANCH   4   7
ATOM      7  C   LIG    1       -0.826   1.630  -1.186  0.00  0.00    +0.320 C 
ATOM      8  C   LIG    1       -0.013   1.086   0.008  0.00  0.00    +0.050 C 
ATOM      9  C   LIG    1       -0.803   1.617   1.223  0.00  0.00    +0.100 C 
ATOM     10  C   LIG    1       -1.505   2.864   0.720  0.00  0.00    -0.060 A 
ATOM     11  C   LIG    1       -2.085   3.910   1.420  0.00  0.00    -0.080 A 
ATOM     12  C   LIG    1       -2.674   4.959   0.740  0.00  0.00    +0.060 A 
ATOM     13  C   LIG    1       -2.685   4.966  -0.642  0.00  0.00    +0.010 A 
ATOM     14  C   LIG    1       -2.106   3.924  -1.341  0.00  0.00    +0.060 A 
ATOM     15 BR   LIG    1       -2.072   3.901   3.311  0.00  0.00    -0.050 Br
ATOM     16  C   LIG    1       -1.516   2.872  -0.662  0.00  0.00    -0.110 A 
ENDBRANCH   4   7
BRANCH   1  20
ATOM     17  C   LIG    1        0.026   2.549  -8.098  0.00  0.00    +0.110 A 
ATOM     18  C   LIG    1       -1.262   2.207  -8.029  0.00  0.00    -0.140 A 
ATOM     19  S   LIG    1       -1.663   1.925  -6.337  0.00  0.00    +0.250 S 
ATOM     20  C   LIG    1       -0.058   2.304  -5.883  0.00  0.00    +0.260 A 
ATOM     21  N   LIG    1        0.645   2.593  -6.933  0.00  0.00    -0.490 NA
BRANCH  17  22
ATOM     22  C   LIG    1        0.718   2.859  -9.400  0.00  0.00    +0.150 C 
BRANCH  22  25
ATOM     23  N   LIG    1        2.029   4.716 -10.375  0.00  0.00    -0.740 N 
ATOM     24  H   LIG    1        2.109   4.191 -11.187  0.00  0.00    +0.400 HD
ATOM     25  C   LIG    1        1.351   4.224  -9.319  0.00  0.00    +0.520 C 
ATOM     26  O   LIG    1        1.251   4.880  -8.305  0.00  0.00    -0.520 OA
BRANCH  23  27
ATOM     27  C   LIG    1        2.645   6.043 -10.297  0.00  0.00    +0.260 C 
BRANCH  27  29
ATOM     28  C   LIG    1        3.990   7.744 -11.537  0.00  0.00    +0.030 C 
ATOM     29  C   LIG    1        3.347   6.358 -11.619  0.00  0.00    +0.000 C 
ENDBRANCH  27  29
ENDBRANCH  23  27
ENDBRANCH  22  25
ENDBRANCH  17  22
ENDBRANCH   1  20
TORSDOF 6
