REMARK  Name = ZINCrD000006VaVH.0
REMARK                            x       y       z     vdW  Elec       q    Type
REMARK                         _______ _______ _______ _____ _____    ______ ____
ROOT
ATOM      1  N   LIG    1       -7.071   5.417  -0.872  0.00  0.00    -0.520 NA
ATOM      2  C   LIG    1       -6.197   5.786   0.251  0.00  0.00    +0.200 C 
ATOM      3  C   LIG    1       -4.945   4.907   0.230  0.00  0.00    +0.200 C 
ATOM      4  N   LIG    1       -5.340   3.494   0.317  0.00  0.00    -0.490 N 
ATOM      5  C   LIG    1       -6.213   3.124  -0.805  0.00  0.00    +0.210 C 
ATOM      6  C   LIG    1       -7.466   4.004  -0.785  0.00  0.00    +0.190 C 
ENDROOT
BRANCH   4   7
ATOM      7  C   LIG    1       -4.225   2.668   0.373  0.00  0.00    +0.150 A 
ATOM      8  C   LIG    1       -4.387   1.287   0.459  0.00  0.00    -0.030 A 
ATOM      9  C   LIG    1       -3.294   0.471   0.515  0.00  0.00    +0.100 A 
ATOM     10  C   LIG    1       -2.007   1.025   0.485  0.00  0.00    -0.210 A 
ATOM     11  C   LIG    1       -1.849   2.415   0.404  0.00  0.00    +0.090 A 
ATOM     12  C   LIG    1       -2.947   3.223   0.344  0.00  0.00    -0.060 A 
BRANCH  10  13
ATOM     13  C   LIG    1       -0.829   0.152   0.545  0.00  0.00    +0.400 C 
ATOM     14  O   LIG    1       -0.968  -1.051   0.620  0.00  0.00    -0.460 OA
ATOM     15  C   LIG    1        0.554   0.749   0.506  0.00  0.00    +0.060 C 
ENDBRANCH  10  13
ENDBRANCH   4   7
BRANCH   1  16
ATOM     16  C   LIG    1       -8.250   6.290  -0.931  0.00  0.00    +0.220 C 
BRANCH  16  19
ATOM     17  N   LIG    1      -10.113   6.743  -2.495  0.00  0.00    -0.680 N 
ATOM     18  H   LIG    1      -10.486   7.342  -1.830  0.00  0.00    +0.410 HD
ATOM     19  C   LIG    1       -8.990   6.048  -2.221  0.00  0.00    +0.510 C 
ATOM     20  O   LIG    1       -8.576   5.229  -3.014  0.00  0.00    -0.500 OA
BRANCH  17  25
ATOM     21  C   LIG    1      -12.736   6.550  -5.071  0.00  0.00    -0.060 A 
ATOM     22  C   LIG    1      -11.969   6.315  -6.206  0.00  0.00    -0.020 A 
ATOM     23  C   LIG    1      -10.594   6.223  -6.105  0.00  0.00    +0.050 A 
ATOM     24  C   LIG    1       -9.977   6.370  -4.878  0.00  0.00    +0.020 A 
ATOM     25  C   LIG    1      -10.738   6.599  -3.738  0.00  0.00    +0.170 A 
ATOM     26  C   LIG    1      -12.119   6.692  -3.835  0.00  0.00    +0.000 A 
BRANCH  21  28
ATOM     27  C   LIG    1      -14.785   6.417  -6.973  0.00  0.00    +0.150 C 
ATOM     28  S   LIG    1      -14.489   6.668  -5.201  0.00  0.00    -0.110 S 
ENDBRANCH  21  28
ENDBRANCH  17  25
ENDBRANCH  16  19
ENDBRANCH   1  16
TORSDOF 6
