REMARK  Name = ZINCrH000004qZ6D.0
REMARK                            x       y       z     vdW  Elec       q    Type
REMARK                         _______ _______ _______ _____ _____    ______ ____
ROOT
ATOM      1  C   LIG    1        2.482   1.479  -0.013  0.00  0.00    +0.210 A 
ATOM      2  N   LIG    1        2.990   0.421   0.583  0.00  0.00    -0.260 NA
ATOM      3  N   LIG    1        4.364   0.370   0.330  0.00  0.00    -0.300 N 
ATOM      4  C   LIG    1        4.722   1.413  -0.439  0.00  0.00    +0.290 A 
ATOM      5  C   LIG    1        3.589   2.155  -0.702  0.00  0.00    -0.260 A 
ENDROOT
BRANCH   1  10
ATOM      6  C   LIG    1       -1.596   4.403   0.041  0.00  0.00    +0.180 C 
ATOM      7  C   LIG    1       -0.720   3.177   0.026  0.00  0.00    +0.010 A 
ATOM      8  C   LIG    1       -1.155   1.901   0.017  0.00  0.00    -0.070 A 
ATOM      9  C   LIG    1       -0.013   1.076   0.008  0.00  0.00    +0.000 A 
ATOM     10  C   LIG    1        1.068   1.902   0.002  0.00  0.00    +0.040 A 
ATOM     11  O   LIG    1        0.623   3.174   0.013  0.00  0.00    -0.130 OA
ENDBRANCH   1  10
BRANCH   3  12
ATOM     12  C   LIG    1        5.235  -0.619   0.804  0.00  0.00    +0.150 A 
ATOM     13  C   LIG    1        6.585  -0.570   0.481  0.00  0.00    -0.010 A 
ATOM     14  C   LIG    1        7.442  -1.544   0.955  0.00  0.00    +0.050 A 
ATOM     15  C   LIG    1        6.956  -2.572   1.741  0.00  0.00    +0.010 A 
ATOM     16  C   LIG    1        5.611  -2.627   2.059  0.00  0.00    +0.050 A 
ATOM     17  C   LIG    1        4.749  -1.653   1.593  0.00  0.00    +0.030 A 
ENDBRANCH   3  12
BRANCH   5  18
ATOM     18  C   LIG    1        3.506   3.383  -1.510  0.00  0.00    +0.590 C 
ATOM     19  N   LIG    1        4.616   3.888  -2.084  0.00  0.00    -0.730 N 
ATOM     20  H   LIG    1        5.470   3.442  -1.965  0.00  0.00    +0.400 HD
ATOM     21  O   LIG    1        2.436   3.942  -1.659  0.00  0.00    -0.520 OA
BRANCH  19  22
ATOM     22  C   LIG    1        4.534   5.109  -2.888  0.00  0.00    +0.330 C 
BRANCH  22  23
ATOM     23  C   LIG    1        5.903   5.459  -3.412  0.00  0.00    -0.160 A 
ATOM     24  C   LIG    1        6.745   6.283  -2.682  0.00  0.00    +0.080 A 
ATOM     25  C   LIG    1        7.998   6.572  -3.201  0.00  0.00    -0.030 A 
ATOM     26  C   LIG    1        8.358   6.044  -4.426  0.00  0.00    +0.270 A 
ATOM     27  N   LIG    1        7.529   5.267  -5.096  0.00  0.00    -0.480 NA
ATOM     28  C   LIG    1        6.333   4.966  -4.630  0.00  0.00    +0.280 A 
ENDBRANCH  22  23
ENDBRANCH  19  22
ENDBRANCH   5  18
TORSDOF 5
