REMARK  Name = ZINCpk00000wOrHN.0
REMARK                            x       y       z     vdW  Elec       q    Type
REMARK                         _______ _______ _______ _____ _____    ______ ____
ROOT
ATOM      1  O   LIG    1       -3.759   1.761   6.178  0.00  0.00    -0.530 OA
ATOM      2  C   LIG    1       -3.184   0.868   5.591  0.00  0.00    +0.520 C 
ATOM      3  N   LIG    1       -2.822   1.032   4.304  0.00  0.00    -0.610 N 
ATOM      4  C   LIG    1       -3.116   2.287   3.598  0.00  0.00    +0.280 C 
ATOM      5  C   LIG    1       -3.908   1.960   2.326  0.00  0.00    +0.300 C 
ATOM      6  N   LIG    1       -3.212   0.887   1.602  0.00  0.00    -0.990 NA
ATOM      7  C   LIG    1       -2.923  -0.370   2.307  0.00  0.00    +0.300 C 
ATOM      8  C   LIG    1       -2.126  -0.041   3.580  0.00  0.00    +0.270 C 
ENDROOT
BRANCH   6   9
ATOM      9  S   LIG    1       -2.768   1.088   0.020  0.00  0.00    +2.710 S 
ATOM     10  O   LIG    1       -2.650  -0.216  -0.533  0.00  0.00    -0.940 OA
ATOM     11  O   LIG    1       -3.629   2.084  -0.515  0.00  0.00    -0.940 OA
BRANCH   9  12
ATOM     12  C   LIG    1       -1.147   1.778   0.017  0.00  0.00    -0.790 A 
ATOM     13  C   LIG    1       -0.013   1.076   0.008  0.00  0.00    +0.170 A 
ATOM     14  C   LIG    1        1.144   1.836   0.001  0.00  0.00    +0.040 A 
ATOM     15  C   LIG    1        0.949   3.157   0.010  0.00  0.00    -0.170 A 
ATOM     16 BR   LIG    1        2.318   4.461   0.003  0.00  0.00    +0.030 Br
ATOM     17  S   LIG    1       -0.776   3.497   0.028  0.00  0.00    +0.280 S 
ENDBRANCH   9  12
ENDBRANCH   6   9
BRANCH   2  18
ATOM     18  C   LIG    1       -2.876  -0.425   6.302  0.00  0.00    +0.060 C 
BRANCH  18  19
ATOM     19  C   LIG    1       -3.390  -0.350   7.742  0.00  0.00    +0.050 C 
BRANCH  19  20
ATOM     20  C   LIG    1       -3.077  -1.663   8.463  0.00  0.00    +0.330 C 
BRANCH  20  21
ATOM     21  N   LIG    1       -3.569  -1.592   9.841  0.00  0.00    -0.290 N 
ATOM     22  C   LIG    1       -4.419  -2.467  10.426  0.00  0.00    +0.140 A 
ATOM     23  C   LIG    1       -4.602  -2.026  11.692  0.00  0.00    +0.140 A 
ATOM     24  N   LIG    1       -3.872  -0.913  11.816  0.00  0.00    -0.270 NA
ATOM     25  N   LIG    1       -3.272  -0.682  10.702  0.00  0.00    -0.080 NA
ENDBRANCH  20  21
ENDBRANCH  19  20
ENDBRANCH  18  19
ENDBRANCH   2  18
TORSDOF 6
