REMARK  Name = ZINCrH000004jyVD.0
REMARK                            x       y       z     vdW  Elec       q    Type
REMARK                         _______ _______ _______ _____ _____    ______ ____
ROOT
ATOM      1  C   LIG    1        0.873  -2.921  -0.110  0.00  0.00    -0.060 A 
ATOM      2  C   LIG    1       -0.484  -2.833  -0.114  0.00  0.00    +0.130 A 
ATOM      3  C   LIG    1       -0.977  -4.159  -0.169  0.00  0.00    -0.210 A 
ATOM      4  C   LIG    1        0.139  -4.998  -0.197  0.00  0.00    +0.310 A 
ATOM      5  N   LIG    1       -0.034  -6.350  -0.251  0.00  0.00    -0.580 N 
ATOM      6  H   LIG    1        0.741  -6.932  -0.270  0.00  0.00    +0.430 HD
ATOM      7  C   LIG    1       -1.268  -6.885  -0.280  0.00  0.00    +0.550 A 
ATOM      8  C   LIG    1       -2.413  -6.067  -0.253  0.00  0.00    +0.010 A 
ATOM      9  O   LIG    1       -1.397  -8.097  -0.330  0.00  0.00    -0.500 OA
ATOM     10  C   LIG    1       -2.276  -4.715  -0.203  0.00  0.00    -0.030 A 
ATOM     11  O   LIG    1        1.232  -4.223  -0.160  0.00  0.00    -0.150 OA
ENDROOT
BRANCH   1  14
ATOM     12  C   LIG    1        4.040  -0.866   0.203  0.00  0.00    +0.320 C 
ATOM     13  N   LIG    1        3.123  -2.001   0.063  0.00  0.00    -0.580 N 
ATOM     14  C   LIG    1        1.799  -1.786  -0.060  0.00  0.00    +0.610 C 
ATOM     15  O   LIG    1        1.371  -0.648  -0.130  0.00  0.00    -0.500 OA
BRANCH  13  16
ATOM     16  C   LIG    1        3.647  -3.369   0.057  0.00  0.00    +0.210 C 
ATOM     17  C   LIG    1        5.154  -3.549   0.251  0.00  0.00    +0.050 C 
ATOM     18  C   LIG    1        4.526  -3.784  -1.124  0.00  0.00    +0.000 C 
BRANCH  18  19
ATOM     19  C   LIG    1        4.417  -5.207  -1.606  0.00  0.00    -0.050 A 
ATOM     20  C   LIG    1        4.714  -6.252  -0.750  0.00  0.00    +0.000 A 
ATOM     21  C   LIG    1        4.609  -7.558  -1.191  0.00  0.00    +0.000 A 
ATOM     22  C   LIG    1        4.218  -7.819  -2.491  0.00  0.00    +0.000 A 
ATOM     23  C   LIG    1        3.925  -6.775  -3.348  0.00  0.00    +0.000 A 
ATOM     24  C   LIG    1        4.025  -5.469  -2.906  0.00  0.00    +0.010 A 
ENDBRANCH  18  19
ENDBRANCH  13  16
ENDBRANCH   1  14
BRANCH  10  25
ATOM     25  C   LIG    1       -3.490  -3.823  -0.182  0.00  0.00    +0.510 C 
ATOM     26  F   LIG    1       -3.464  -2.973  -1.293  0.00  0.00    -0.160 F 
ATOM     27  F   LIG    1       -3.487  -3.059   0.990  0.00  0.00    -0.160 F 
ATOM     28  F   LIG    1       -4.647  -4.609  -0.223  0.00  0.00    -0.170 F 
ENDBRANCH  10  25
TORSDOF 4
