REMARK  Name = ZINCvU0000000Ib8.0
REMARK                            x       y       z     vdW  Elec       q    Type
REMARK                         _______ _______ _______ _____ _____    ______ ____
ROOT
ATOM      1  C   LIG    1        0.003   0.010  -0.149  0.00  0.00    +0.250 A 
ATOM      2  N   LIG    1       -0.009   1.318  -0.034  0.00  0.00    -0.260 NA
ATOM      3  N   LIG    1        1.189   1.758   0.118  0.00  0.00    -0.280 NA
ATOM      4  C   LIG    1        2.042   0.758   0.110  0.00  0.00    +0.170 A 
ATOM      5  N   LIG    1        1.318  -0.391  -0.060  0.00  0.00    -0.420 N 
ENDROOT
BRANCH   5   6
ATOM      6  C   LIG    1        1.812  -1.702  -0.130  0.00  0.00    +0.110 A 
ATOM      7  C   LIG    1        2.580  -2.098  -1.216  0.00  0.00    +0.080 A 
ATOM      8  C   LIG    1        3.067  -3.389  -1.284  0.00  0.00    +0.030 A 
ATOM      9  C   LIG    1        2.789  -4.288  -0.269  0.00  0.00    +0.130 A 
ATOM     10  C   LIG    1        2.022  -3.895   0.817  0.00  0.00    -0.070 A 
ATOM     11 CL   LIG    1        1.675  -5.024   2.088  0.00  0.00    -0.030 Cl
ATOM     12  F   LIG    1        3.265  -5.551  -0.337  0.00  0.00    -0.110 F 
ATOM     13  C   LIG    1        1.538  -2.603   0.889  0.00  0.00    +0.090 A 
ENDBRANCH   5   6
BRANCH   1  17
ATOM     14  C   LIG    1       -3.374  -2.509  -0.694  0.00  0.00    +0.150 A 
ATOM     15  C   LIG    1       -3.545  -1.214  -0.224  0.00  0.00    -0.010 A 
ATOM     16  C   LIG    1       -2.452  -0.393  -0.046  0.00  0.00    +0.120 A 
ATOM     17  C   LIG    1       -1.172  -0.866  -0.338  0.00  0.00    -0.070 A 
ATOM     18  C   LIG    1       -1.004  -2.168  -0.815  0.00  0.00    +0.060 A 
ATOM     19  C   LIG    1       -2.102  -2.984  -0.986  0.00  0.00    -0.070 A 
BRANCH  14  21
ATOM     20  C   LIG    1       -4.207  -4.636  -1.355  0.00  0.00    +0.240 C 
ATOM     21  O   LIG    1       -4.455  -3.315  -0.868  0.00  0.00    -0.310 OA
ENDBRANCH  14  21
ENDBRANCH   1  17
BRANCH   4  22
ATOM     22  S   LIG    1        3.791   0.876   0.287  0.00  0.00    +0.030 S 
BRANCH  22  23
ATOM     23  C   LIG    1        3.970   2.668   0.463  0.00  0.00    +0.220 C 
BRANCH  23  24
ATOM     24  C   LIG    1        5.427   3.014   0.633  0.00  0.00    +0.040 A 
ATOM     25  C   LIG    1        6.082   3.103   1.802  0.00  0.00    +0.180 A 
ATOM     26  N   LIG    1        7.402   3.439   1.515  0.00  0.00    -0.420 N 
ATOM     27  C   LIG    1        8.579   3.682   2.185  0.00  0.00    +0.220 A 
ATOM     28  C   LIG    1        9.656   3.992   1.485  0.00  0.00    +0.020 A 
ATOM     29  S   LIG    1        9.141   3.978  -0.211  0.00  0.00    +0.170 S 
ATOM     30  C   LIG    1        7.466   3.544   0.160  0.00  0.00    +0.160 A 
ATOM     31  N   LIG    1        6.287   3.289  -0.357  0.00  0.00    -0.430 NA
ENDBRANCH  23  24
ENDBRANCH  22  23
ENDBRANCH   4  22
TORSDOF 6
