REMARK  Name = ZINCkj00000ATIdc.0
REMARK                            x       y       z     vdW  Elec       q    Type
REMARK                         _______ _______ _______ _____ _____    ______ ____
ROOT
ATOM      1  C   LIG    1        0.985  -0.622  -0.860  0.00  0.00    +0.070 A 
ATOM      2  C   LIG    1        2.179  -0.016  -1.069  0.00  0.00    -0.020 A 
ATOM      3  C   LIG    1        2.221   1.456  -1.074  0.00  0.00    +0.420 A 
ATOM      4  C   LIG    1        0.911   2.137  -1.140  0.00  0.00    -0.190 A 
ATOM      5  C   LIG    1        0.813   3.499  -1.415  0.00  0.00    +0.090 A 
ATOM      6  C   LIG    1       -0.432   4.091  -1.478  0.00  0.00    +0.080 A 
ATOM      7  C   LIG    1       -1.577   3.332  -1.268  0.00  0.00    +0.070 A 
ATOM      8  C   LIG    1       -1.490   1.986  -0.989  0.00  0.00    +0.050 A 
ATOM      9  F   LIG    1       -0.537   5.411  -1.744  0.00  0.00    -0.120 F 
ATOM     10  C   LIG    1       -0.245   1.367  -0.920  0.00  0.00    +0.120 A 
ATOM     11  O   LIG    1        3.270   2.075  -1.026  0.00  0.00    -0.430 OA
ATOM     12  O   LIG    1       -0.149   0.054  -0.642  0.00  0.00    -0.210 OA
ENDROOT
BRANCH   1  15
ATOM     13  C   LIG    1       -1.399  -1.968  -0.179  0.00  0.00    +0.320 C 
ATOM     14  N   LIG    1       -0.204  -2.740  -0.530  0.00  0.00    -0.610 N 
ATOM     15  C   LIG    1        0.933  -2.103  -0.874  0.00  0.00    +0.580 C 
ATOM     16  O   LIG    1        1.915  -2.742  -1.195  0.00  0.00    -0.500 OA
BRANCH  14  17
ATOM     17  C   LIG    1       -0.245  -4.204  -0.509  0.00  0.00    +0.320 C 
BRANCH  17  18
ATOM     18  C   LIG    1        0.153  -4.705   0.881  0.00  0.00    +0.010 C 
BRANCH  18  19
ATOM     19  C   LIG    1        0.111  -6.234   0.904  0.00  0.00    +0.280 C 
BRANCH  19  20
ATOM     20  N   LIG    1        0.493  -6.715   2.238  0.00  0.00    -0.640 N 
ATOM     21  H   LIG    1        0.465  -7.724   2.253  0.00  0.00    +0.440 HD
ATOM     22  H   LIG    1       -0.150  -6.351   2.924  0.00  0.00    +0.440 HD
ATOM     23  H   LIG    1        1.428  -6.402   2.453  0.00  0.00    +0.440 HD
ENDBRANCH  19  20
ENDBRANCH  18  19
ENDBRANCH  17  18
ENDBRANCH  14  17
ENDBRANCH   1  15
TORSDOF 5
