REMARK  Name = ZINCqH0000005fNe.0
REMARK                            x       y       z     vdW  Elec       q    Type
REMARK                         _______ _______ _______ _____ _____    ______ ____
ROOT
ATOM      1  C   LIG    1        0.408   4.256  -2.882  0.00  0.00    +0.280 C 
ATOM      2  N   LIG    1       -0.447   4.397  -1.701  0.00  0.00    -0.610 N 
ATOM      3  C   LIG    1       -0.022   3.947  -0.504  0.00  0.00    +0.500 C 
ATOM      4  O   LIG    1       -0.768   3.968   0.452  0.00  0.00    -0.510 OA
ENDROOT
BRANCH   3   5
ATOM      5  C   LIG    1        1.381   3.419  -0.352  0.00  0.00    +0.160 C 
ATOM      6  C   LIG    1        2.218   4.383   0.514  0.00  0.00    +0.030 C 
ATOM      7  C   LIG    1        3.091   3.422   1.363  0.00  0.00    +0.030 C 
ATOM      8  C   LIG    1        2.115   2.244   1.605  0.00  0.00    +0.180 C 
ATOM      9  N   LIG    1        1.355   2.119   0.343  0.00  0.00    -0.500 NA
BRANCH   9  10
ATOM     10  C   LIG    1       -0.025   1.687   0.600  0.00  0.00    +0.240 C 
BRANCH  10  11
ATOM     11  C   LIG    1       -0.036   0.221   0.951  0.00  0.00    -0.090 A 
ATOM     12  C   LIG    1       -0.175  -0.727  -0.046  0.00  0.00    +0.060 A 
ATOM     13  C   LIG    1       -0.179  -2.071   0.275  0.00  0.00    -0.020 A 
ATOM     14  C   LIG    1       -0.056  -2.468   1.595  0.00  0.00    +0.100 A 
ATOM     15  C   LIG    1        0.079  -1.518   2.593  0.00  0.00    -0.020 A 
ATOM     16  F   LIG    1       -0.066  -3.782   1.910  0.00  0.00    -0.140 F 
ATOM     17  C   LIG    1        0.089  -0.174   2.270  0.00  0.00    +0.050 A 
ENDBRANCH  10  11
ENDBRANCH   9  10
ENDBRANCH   3   5
BRANCH   2  18
ATOM     18  C   LIG    1       -1.764   5.026  -1.821  0.00  0.00    +0.350 C 
BRANCH  18  19
ATOM     19  C   LIG    1       -1.635   6.510  -1.593  0.00  0.00    -0.120 A 
ATOM     20  C   LIG    1       -1.701   7.382  -2.663  0.00  0.00    +0.040 A 
ATOM     21  C   LIG    1       -1.583   8.745  -2.453  0.00  0.00    +0.090 A 
ATOM     22  C   LIG    1       -1.398   9.235  -1.172  0.00  0.00    +0.030 A 
ATOM     23  C   LIG    1       -1.331   8.363  -0.102  0.00  0.00    +0.020 A 
ATOM     24  F   LIG    1       -1.648   9.598  -3.499  0.00  0.00    -0.130 F 
ATOM     25  C   LIG    1       -1.455   7.000  -0.311  0.00  0.00    +0.110 A 
ATOM     26  F   LIG    1       -1.396   6.148   0.736  0.00  0.00    -0.110 F 
ENDBRANCH  18  19
ENDBRANCH   2  18
TORSDOF 5
