REMARK  Name = ZINCpk000000o6hV.0
REMARK                            x       y       z     vdW  Elec       q    Type
REMARK                         _______ _______ _______ _____ _____    ______ ____
ROOT
ATOM      1  N   LIG    1       -0.706   1.562   1.213  0.00  0.00    -1.010 NA
ATOM      2  C   LIG    1       -0.013   1.086   0.008  0.00  0.00    +0.290 C 
ATOM      3  C   LIG    1       -0.759   1.596  -1.228  0.00  0.00    +0.030 C 
ATOM      4  C   LIG    1       -0.898   3.118  -1.144  0.00  0.00    +0.250 C 
ATOM      5  C   LIG    1       -1.711   3.490   0.099  0.00  0.00    +0.020 C 
ATOM      6  C   LIG    1       -0.975   3.001   1.350  0.00  0.00    +0.290 C 
ENDROOT
BRANCH   1   7
ATOM      7  S   LIG    1       -1.179   0.499   2.390  0.00  0.00    +2.780 S 
ATOM      8  O   LIG    1       -1.299  -0.770   1.761  0.00  0.00    -0.970 OA
ATOM      9  O   LIG    1       -2.247   1.123   3.090  0.00  0.00    -0.970 OA
BRANCH   7  14
ATOM     10  C   LIG    1        4.002   1.524   4.624  0.00  0.00    +0.020 C 
ATOM     11  C   LIG    1        2.624   0.860   4.586  0.00  0.00    -0.020 C 
ATOM     12  C   LIG    1        1.538   1.938   4.628  0.00  0.00    +0.020 C 
ATOM     13  C   LIG    1        0.160   1.269   4.625  0.00  0.00    +0.280 C 
ATOM     14  N   LIG    1        0.073   0.370   3.466  0.00  0.00    -1.010 NA
ATOM     15  C   LIG    1        1.115  -0.649   3.284  0.00  0.00    +0.280 C 
ATOM     16  C   LIG    1        2.486   0.044   3.299  0.00  0.00    +0.010 C 
ENDBRANCH   7  14
ENDBRANCH   1   7
BRANCH   4  17
ATOM     17  N   LIG    1       -1.583   3.613  -2.341  0.00  0.00    -1.110 NA
ATOM     18  H   LIG    1       -2.281   3.082  -2.754  0.00  0.00    +0.420 HD
BRANCH  17  19
ATOM     19  S   LIG    1       -1.163   5.078  -2.988  0.00  0.00    +2.720 S 
ATOM     20  O   LIG    1       -1.140   6.002  -1.908  0.00  0.00    -0.950 OA
ATOM     21  O   LIG    1       -1.973   5.253  -4.143  0.00  0.00    -0.950 OA
BRANCH  19  22
ATOM     22  C   LIG    1        0.497   4.940  -3.560  0.00  0.00    -0.800 A 
ATOM     23  C   LIG    1        0.859   4.553  -4.785  0.00  0.00    +0.170 A 
ATOM     24  C   LIG    1        2.225   4.521  -5.006  0.00  0.00    -0.010 A 
ATOM     25  C   LIG    1        2.972   4.881  -3.962  0.00  0.00    +0.010 A 
ATOM     26  S   LIG    1        1.931   5.298  -2.607  0.00  0.00    +0.210 S 
ENDBRANCH  19  22
ENDBRANCH  17  19
ENDBRANCH   4  17
TORSDOF 5
