REMARK  Name = ZINCrD000000Atsy.0
REMARK                            x       y       z     vdW  Elec       q    Type
REMARK                         _______ _______ _______ _____ _____    ______ ____
ROOT
ATOM      1  C   LIG    1       -0.004   0.017  -0.129  0.00  0.00    +0.150 A 
ATOM      2  N   LIG    1        1.253  -0.346  -0.270  0.00  0.00    -0.280 NA
ATOM      3  N   LIG    1        2.028   0.656  -0.053  0.00  0.00    -0.250 NA
ATOM      4  C   LIG    1        1.315   1.719   0.239  0.00  0.00    +0.220 A 
ATOM      5  N   LIG    1       -0.008   1.342   0.199  0.00  0.00    -0.420 N 
ENDROOT
BRANCH   4   6
ATOM      6  C   LIG    1        1.835   3.067   0.551  0.00  0.00    +0.030 A 
ATOM      7  C   LIG    1        1.019   4.198   0.433  0.00  0.00    -0.030 A 
ATOM      8  C   LIG    1        1.544   5.436   0.741  0.00  0.00    +0.270 A 
ATOM      9  N   LIG    1        2.799   5.562   1.130  0.00  0.00    -0.480 NA
ATOM     10  C   LIG    1        3.603   4.523   1.249  0.00  0.00    +0.280 A 
ATOM     11  C   LIG    1        3.160   3.248   0.968  0.00  0.00    +0.020 A 
ENDBRANCH   4   6
BRANCH   5  12
ATOM     12  C   LIG    1       -1.177   2.188   0.451  0.00  0.00    +0.190 C 
ATOM     13  C   LIG    1       -2.511   1.488   0.720  0.00  0.00    +0.080 C 
ATOM     14  C   LIG    1       -2.278   2.206  -0.612  0.00  0.00    +0.060 C 
ENDBRANCH   5  12
BRANCH   1  15
ATOM     15  S   LIG    1       -1.418  -1.014  -0.327  0.00  0.00    +0.080 S 
BRANCH  15  16
ATOM     16  C   LIG    1       -0.610  -2.579  -0.747  0.00  0.00    +0.090 C 
BRANCH  16  18
ATOM     17  O   LIG    1       -2.832  -3.368  -0.852  0.00  0.00    -0.430 OA
ATOM     18  C   LIG    1       -1.656  -3.641  -0.967  0.00  0.00    +0.420 C 
BRANCH  18  19
ATOM     19  C   LIG    1       -1.251  -5.007  -1.322  0.00  0.00    -0.160 A 
ATOM     20  C   LIG    1        0.105  -5.325  -1.456  0.00  0.00    +0.100 A 
ATOM     21  C   LIG    1        0.482  -6.607  -1.788  0.00  0.00    +0.040 A 
ATOM     22  C   LIG    1       -0.480  -7.589  -1.991  0.00  0.00    +0.070 A 
ATOM     23  O   LIG    1       -0.366  -8.907  -2.321  0.00  0.00    -0.300 OA
ATOM     24  C   LIG    1       -1.668  -9.301  -2.792  0.00  0.00    +0.440 C 
ATOM     25  O   LIG    1       -2.565  -8.406  -2.108  0.00  0.00    -0.300 OA
ATOM     26  C   LIG    1       -1.835  -7.279  -1.860  0.00  0.00    +0.020 A 
ATOM     27  C   LIG    1       -2.221  -5.998  -1.522  0.00  0.00    +0.110 A 
ENDBRANCH  18  19
ENDBRANCH  16  18
ENDBRANCH  15  16
ENDBRANCH   1  15
TORSDOF 6
