REMARK  Name = ZINCtV000002zBQR.0
REMARK                            x       y       z     vdW  Elec       q    Type
REMARK                         _______ _______ _______ _____ _____    ______ ____
ROOT
ATOM      1  C   LIG    1       -1.430   3.035  -1.209  0.00  0.00    +0.250 C 
ATOM      2  C   LIG    1       -1.573   4.474  -0.671  0.00  0.00    +0.030 C 
ATOM      3  C   LIG    1       -2.152   4.291   0.754  0.00  0.00    +0.020 C 
ATOM      4  C   LIG    1       -1.418   3.025   1.262  0.00  0.00    +0.040 C 
ATOM      5  C   LIG    1       -1.332   2.114   0.020  0.00  0.00    +0.030 C 
ENDROOT
BRANCH   5   6
ATOM      6  C   LIG    1       -0.017   1.378   0.010  0.00  0.00    -0.040 A 
ATOM      7  C   LIG    1        1.171   2.086   0.002  0.00  0.00    +0.020 A 
ATOM      8  C   LIG    1        2.377   1.411  -0.014  0.00  0.00    +0.080 A 
ATOM      9  C   LIG    1        2.396   0.029  -0.022  0.00  0.00    -0.180 A 
ATOM     10  C   LIG    1        1.208  -0.679  -0.014  0.00  0.00    +0.070 A 
ATOM     11  C   LIG    1        0.002  -0.004   0.002  0.00  0.00    +0.020 A 
BRANCH   9  12
ATOM     12  C   LIG    1        3.711  -0.707  -0.039  0.00  0.00    +0.510 C 
ATOM     13  F   LIG    1        3.567  -1.935   0.615  0.00  0.00    -0.180 F 
ATOM     14  F   LIG    1        4.683   0.058   0.615  0.00  0.00    -0.180 F 
ATOM     15  F   LIG    1        4.105  -0.927  -1.364  0.00  0.00    -0.180 F 
ENDBRANCH   9  12
ENDBRANCH   5   6
BRANCH   1  17
ATOM     16  C   LIG    1       -3.943   2.750  -1.418  0.00  0.00    +0.320 C 
ATOM     17  N   LIG    1       -2.605   2.680  -2.009  0.00  0.00    -0.550 N 
BRANCH  17  18
ATOM     18  C   LIG    1       -2.451   2.281  -3.315  0.00  0.00    +0.430 A 
ATOM     19  N   LIG    1       -3.413   1.929  -4.148  0.00  0.00    -0.530 NA
ATOM     20  C   LIG    1       -2.791   1.622  -5.307  0.00  0.00    +0.240 A 
ATOM     21  N   LIG    1       -1.508   1.793  -5.118  0.00  0.00    -0.380 NA
ATOM     22  O   LIG    1       -1.295   2.170  -3.985  0.00  0.00    +0.040 OA
BRANCH  20  23
ATOM     23  C   LIG    1       -3.443   1.169  -6.561  0.00  0.00    -0.010 A 
ATOM     24  C   LIG    1       -2.671   0.881  -7.685  0.00  0.00    +0.060 A 
ATOM     25  C   LIG    1       -3.282   0.459  -8.849  0.00  0.00    +0.030 A 
ATOM     26  C   LIG    1       -4.657   0.324  -8.902  0.00  0.00    +0.050 A 
ATOM     27  C   LIG    1       -5.429   0.609  -7.789  0.00  0.00    -0.040 A 
ATOM     28 CL   LIG    1       -7.155   0.435  -7.863  0.00  0.00    -0.060 Cl
ATOM     29  C   LIG    1       -4.827   1.026  -6.617  0.00  0.00    +0.080 A 
ENDBRANCH  20  23
ENDBRANCH  17  18
ENDBRANCH   1  17
TORSDOF 5
