REMARK  Name = ZINCtV00000L6kPn.0
REMARK                            x       y       z     vdW  Elec       q    Type
REMARK                         _______ _______ _______ _____ _____    ______ ____
ROOT
ATOM      1  C   LIG    1        3.672   2.182  -0.023  0.00  0.00    +0.220 C 
ENDROOT
BRANCH   1   2
ATOM      2  C   LIG    1        2.377   1.411  -0.015  0.00  0.00    -0.110 A 
ATOM      3  C   LIG    1        1.171   2.086   0.002  0.00  0.00    +0.040 A 
ATOM      4  C   LIG    1       -0.017   1.378   0.010  0.00  0.00    +0.010 A 
ATOM      5  C   LIG    1        0.002  -0.004   0.002  0.00  0.00    +0.020 A 
ATOM      6  C   LIG    1        1.208  -0.679  -0.013  0.00  0.00    +0.010 A 
ATOM      7  C   LIG    1        2.396   0.029  -0.021  0.00  0.00    +0.020 A 
ENDBRANCH   1   2
BRANCH   1   8
ATOM      8  C   LIG    1        3.965   2.658  -1.423  0.00  0.00    +0.440 C 
ATOM      9  O   LIG    1        3.801   3.825  -1.714  0.00  0.00    -0.440 OA
BRANCH   8  10
ATOM     10  C   LIG    1        4.430   1.742  -2.399  0.00  0.00    -0.270 A 
ATOM     11  C   LIG    1        4.663   0.395  -2.226  0.00  0.00    +0.320 A 
ATOM     12  N   LIG    1        5.099  -0.141  -3.382  0.00  0.00    -0.560 N 
ATOM     13  H   LIG    1        5.329  -1.075  -3.505  0.00  0.00    +0.420 HD
ATOM     14  C   LIG    1        5.175   0.822  -4.369  0.00  0.00    +0.080 A 
ATOM     15  C   LIG    1        5.558   0.783  -5.705  0.00  0.00    +0.000 A 
ATOM     16  C   LIG    1        5.529   1.935  -6.462  0.00  0.00    +0.030 A 
ATOM     17  C   LIG    1        5.121   3.137  -5.905  0.00  0.00    +0.000 A 
ATOM     18  C   LIG    1        4.738   3.195  -4.582  0.00  0.00    +0.060 A 
ATOM     19  C   LIG    1        4.756   2.039  -3.808  0.00  0.00    -0.050 A 
ENDBRANCH   8  10
ENDBRANCH   1   8
BRANCH   1  20
ATOM     20  O   LIG    1        3.559   3.326   0.864  0.00  0.00    -0.320 OA
BRANCH  20  22
ATOM     21  O   LIG    1        4.309   2.054   2.521  0.00  0.00    -0.470 OA
ATOM     22  C   LIG    1        3.915   3.141   2.150  0.00  0.00    +0.510 C 
BRANCH  22  23
ATOM     23  C   LIG    1        3.827   4.261   3.109  0.00  0.00    -0.110 A 
ATOM     24  C   LIG    1        3.380   5.514   2.685  0.00  0.00    +0.140 A 
ATOM     25  C   LIG    1        3.295   6.554   3.588  0.00  0.00    -0.110 A 
ATOM     26  C   LIG    1        3.661   6.361   4.909  0.00  0.00    +0.110 A 
ATOM     27  C   LIG    1        4.109   5.124   5.335  0.00  0.00    +0.040 A 
ATOM     28 BR   LIG    1        2.683   8.250   3.017  0.00  0.00    -0.020 Br
ATOM     29  C   LIG    1        4.195   4.072   4.444  0.00  0.00    +0.030 A 
ATOM     30 CL   LIG    1        4.759   2.520   4.980  0.00  0.00    -0.020 Cl
ENDBRANCH  22  23
ENDBRANCH  20  22
ENDBRANCH   1  20
TORSDOF 6
