REMARK  Name = ZINCvU0000000ClW.0
REMARK                            x       y       z     vdW  Elec       q    Type
REMARK                         _______ _______ _______ _____ _____    ______ ____
ROOT
ATOM      1  C   LIG    1       -0.729   1.924  -1.250  0.00  0.00    +0.400 C 
ATOM      2  O   LIG    1       -1.788   2.516  -1.181  0.00  0.00    -0.420 OA
ENDROOT
BRANCH   1   3
ATOM      3  C   LIG    1       -0.167   1.631  -2.507  0.00  0.00    -0.130 C 
ATOM      4  C   LIG    1       -0.831   2.023  -3.683  0.00  0.00    +0.220 C 
ATOM      5  N   LIG    1       -0.417   1.813  -4.932  0.00  0.00    -0.520 NA
ATOM      6  C   LIG    1       -1.090   2.209  -5.952  0.00  0.00    +0.300 C 
ATOM      7  C   LIG    1       -2.378   2.925  -5.606  0.00  0.00    +0.110 C 
ATOM      8  S   LIG    1       -2.379   2.884  -3.780  0.00  0.00    -0.010 S 
BRANCH   6   9
ATOM      9  C   LIG    1       -0.649   1.985  -7.334  0.00  0.00    -0.070 A 
ATOM     10  C   LIG    1       -1.431   2.435  -8.405  0.00  0.00    +0.090 A 
ATOM     11  C   LIG    1       -1.008   2.225  -9.699  0.00  0.00    +0.050 A 
ATOM     12  C   LIG    1        0.184   1.561  -9.943  0.00  0.00    -0.060 A 
ATOM     13  C   LIG    1        0.961   1.108  -8.889  0.00  0.00    +0.040 A 
ATOM     14 BR   LIG    1        0.752   1.272 -11.723  0.00  0.00    -0.030 Br
ATOM     15  C   LIG    1        0.554   1.314  -7.589  0.00  0.00    +0.100 A 
ENDBRANCH   6   9
BRANCH   3  17
ATOM     16  N   LIG    1        2.070   0.379  -2.652  0.00  0.00    -0.410 NA
ATOM     17  C   LIG    1        1.081   0.932  -2.588  0.00  0.00    +0.270 C 
ENDBRANCH   3  17
ENDBRANCH   1   3
BRANCH   1  18
ATOM     18  C   LIG    1       -0.018   1.503   0.010  0.00  0.00    +0.200 C 
BRANCH  18  19
ATOM     19  N   LIG    1       -0.735   2.034   1.177  0.00  0.00    -0.520 NA
ATOM     20  C   LIG    1       -0.229   1.440   2.421  0.00  0.00    +0.170 C 
ATOM     21  C   LIG    1       -1.090   1.904   3.598  0.00  0.00    +0.030 C 
ATOM     22  C   LIG    1       -1.046   3.432   3.685  0.00  0.00    -0.010 C 
ATOM     23  C   LIG    1       -1.533   4.025   2.360  0.00  0.00    +0.040 C 
ATOM     24  C   LIG    1       -0.658   3.500   1.220  0.00  0.00    +0.170 C 
BRANCH  22  25
ATOM     25  C   LIG    1       -1.954   3.905   4.822  0.00  0.00    +0.060 C 
BRANCH  25  26
ATOM     26  C   LIG    1       -1.404   3.421   6.139  0.00  0.00    -0.080 A 
ATOM     27  C   LIG    1       -1.802   2.199   6.647  0.00  0.00    +0.000 A 
ATOM     28  C   LIG    1       -1.294   1.754   7.853  0.00  0.00    +0.000 A 
ATOM     29  C   LIG    1       -0.396   2.535   8.556  0.00  0.00    -0.010 A 
ATOM     30  C   LIG    1       -0.002   3.759   8.050  0.00  0.00    +0.000 A 
ATOM     31  C   LIG    1       -0.506   4.203   6.841  0.00  0.00    +0.000 A 
ENDBRANCH  25  26
ENDBRANCH  22  25
ENDBRANCH  18  19
ENDBRANCH   1  18
TORSDOF 7
