REMARK  Name = ZINCrH000004sOgz.1
REMARK                            x       y       z     vdW  Elec       q    Type
REMARK                         _______ _______ _______ _____ _____    ______ ____
ROOT
ATOM      1  C   LIG    1        1.179   1.786   0.000  0.00  0.00    +0.140 A 
ATOM      2  C   LIG    1       -0.013   1.076   0.008  0.00  0.00    -0.020 A 
ATOM      3  C   LIG    1       -1.218   1.751   0.017  0.00  0.00    +0.070 A 
ATOM      4  C   LIG    1       -1.237   3.133   0.030  0.00  0.00    -0.110 A 
ATOM      5  C   LIG    1       -0.051   3.844   0.023  0.00  0.00    +0.060 A 
ATOM      6  C   LIG    1        1.157   3.174   0.008  0.00  0.00    -0.080 A 
ENDROOT
BRANCH   1   7
ATOM      7  O   LIG    1        2.366   1.125  -0.015  0.00  0.00    -0.310 OA
BRANCH   7   8
ATOM      8  C   LIG    1        3.553   1.921  -0.022  0.00  0.00    +0.300 C 
BRANCH   8  15
ATOM      9  C   LIG    1        5.176   0.733   2.524  0.00  0.00    +0.160 C 
ATOM     10  C   LIG    1        5.474   0.500   1.065  0.00  0.00    +0.040 A 
ATOM     11  N   LIG    1        6.437  -0.224   0.572  0.00  0.00    -0.360 NA
ATOM     12  O   LIG    1        6.425  -0.217  -0.637  0.00  0.00    +0.100 OA
ATOM     13  C   LIG    1        5.420   0.529  -1.115  0.00  0.00    +0.010 A 
ATOM     14  C   LIG    1        5.088   0.773  -2.565  0.00  0.00    +0.190 C 
ATOM     15  C   LIG    1        4.761   1.021  -0.039  0.00  0.00    -0.220 A 
ENDBRANCH   8  15
ENDBRANCH   7   8
ENDBRANCH   1   7
BRANCH   4  16
ATOM     16  C   LIG    1       -2.553   3.867   0.046  0.00  0.00    +0.130 C 
BRANCH  16  17
ATOM     17  C   LIG    1       -3.005   4.119  -1.369  0.00  0.00    +0.500 C 
ATOM     18  N   LIG    1       -4.165   4.766  -1.601  0.00  0.00    -0.630 N 
ATOM     19  H   LIG    1       -4.709   5.069  -0.857  0.00  0.00    +0.430 HD
ATOM     20  O   LIG    1       -2.325   3.740  -2.299  0.00  0.00    -0.450 OA
BRANCH  18  21
ATOM     21  C   LIG    1       -4.582   4.999  -2.907  0.00  0.00    +0.220 A 
ATOM     22  N   LIG    1       -3.940   4.648  -3.981  0.00  0.00    -0.270 NA
ATOM     23  N   LIG    1       -4.462   4.932  -5.095  0.00  0.00    -0.230 NA
ATOM     24  C   LIG    1       -5.593   5.563  -5.061  0.00  0.00    +0.040 A 
ATOM     25  S   LIG    1       -6.023   5.802  -3.367  0.00  0.00    +0.110 S 
BRANCH  24  26
ATOM     26  C   LIG    1       -6.396   6.011  -6.254  0.00  0.00    +0.030 C 
ATOM     27  C   LIG    1       -5.944   5.527  -7.633  0.00  0.00    +0.070 C 
ATOM     28  C   LIG    1       -5.731   6.987  -7.228  0.00  0.00    +0.060 C 
ENDBRANCH  24  26
ENDBRANCH  18  21
ENDBRANCH  16  17
ENDBRANCH   4  16
TORSDOF 7
