REMARK  Name = ZINCrD00000l5pJq.0
REMARK                            x       y       z     vdW  Elec       q    Type
REMARK                         _______ _______ _______ _____ _____    ______ ____
ROOT
ATOM      1  C   LIG    1       -5.358   3.792   0.074  0.00  0.00    +0.060 A 
ATOM      2  C   LIG    1       -4.784   2.521   0.062  0.00  0.00    -0.040 A 
ATOM      3  C   LIG    1       -3.321   2.408   0.048  0.00  0.00    +0.340 A 
ATOM      4  N   LIG    1       -2.524   1.355   0.034  0.00  0.00    -0.490 NA
ATOM      5  C   LIG    1       -1.232   1.761   0.018  0.00  0.00    +0.100 A 
ATOM      6  C   LIG    1       -0.013   1.076   0.008  0.00  0.00    +0.060 A 
ATOM      7  C   LIG    1        1.168   1.782   0.001  0.00  0.00    +0.040 A 
ATOM      8  C   LIG    1        1.159   3.170   0.008  0.00  0.00    +0.030 A 
ATOM      9  C   LIG    1       -0.034   3.862   0.023  0.00  0.00    +0.050 A 
ATOM     10  C   LIG    1       -1.235   3.168   0.031  0.00  0.00    +0.010 A 
ATOM     11  N   LIG    1       -2.565   3.554   0.046  0.00  0.00    -0.380 N 
ATOM     12  C   LIG    1       -3.166   4.782   0.059  0.00  0.00    +0.130 A 
ATOM     13  C   LIG    1       -4.538   4.911   0.072  0.00  0.00    -0.040 A 
ENDROOT
BRANCH   1  15
ATOM     14  C   LIG    1       -7.337   4.120   1.533  0.00  0.00    +0.040 C 
ATOM     15  C   LIG    1       -6.857   3.949   0.090  0.00  0.00    +0.070 C 
ENDBRANCH   1  15
BRANCH   2  16
ATOM     16  C   LIG    1       -5.606   1.348   0.064  0.00  0.00    +0.270 C 
ATOM     17  N   LIG    1       -6.258   0.418   0.065  0.00  0.00    -0.400 NA
ENDBRANCH   2  16
BRANCH  12  18
ATOM     18  S   LIG    1       -2.165   6.232   0.056  0.00  0.00    +0.060 S 
BRANCH  18  19
ATOM     19  C   LIG    1       -3.453   7.504   0.076  0.00  0.00    +0.090 C 
BRANCH  19  20
ATOM     20  C   LIG    1       -2.812   8.868   0.077  0.00  0.00    +0.540 C 
ATOM     21  N   LIG    1       -3.582   9.974   0.091  0.00  0.00    -0.610 N 
ATOM     22  C   LIG    1       -5.042   9.850   0.105  0.00  0.00    +0.300 C 
ATOM     23  O   LIG    1       -1.604   8.970   0.065  0.00  0.00    -0.510 OA
BRANCH  21  24
ATOM     24  C   LIG    1       -2.959  11.300   0.092  0.00  0.00    +0.310 C 
BRANCH  24  25
ATOM     25  C   LIG    1       -2.757  11.769  -1.350  0.00  0.00    +0.180 C 
BRANCH  25  26
ATOM     26  C   LIG    1       -2.132  13.102  -1.350  0.00  0.00    +0.200 C 
ATOM     27  N   LIG    1       -1.649  14.130  -1.349  0.00  0.00    -0.420 NA
ENDBRANCH  25  26
ENDBRANCH  24  25
ENDBRANCH  21  24
ENDBRANCH  19  20
ENDBRANCH  18  19
ENDBRANCH  12  18
TORSDOF 8
