REMARK  Name = ZINCrD0000073odG.0
REMARK                            x       y       z     vdW  Elec       q    Type
REMARK                         _______ _______ _______ _____ _____    ______ ____
ROOT
ATOM      1  C   LIG    1       -0.075  -6.561   0.321  0.00  0.00    -0.280 A 
ATOM      2  C   LIG    1       -0.520  -7.527   1.140  0.00  0.00    +0.070 A 
ATOM      3  C   LIG    1       -0.266  -8.832   0.722  0.00  0.00    -0.250 A 
ATOM      4  C   LIG    1        0.419  -8.893  -0.496  0.00  0.00    +0.100 A 
ATOM      5  N   LIG    1        0.731 -10.092  -1.017  0.00  0.00    -0.510 NA
ATOM      6  C   LIG    1        0.425 -11.223  -0.439  0.00  0.00    +0.420 A 
ATOM      7  C   LIG    1        0.720 -12.638  -0.909  0.00  0.00    +0.160 C 
ATOM      8  C   LIG    1        0.522 -13.509   0.350  0.00  0.00    +0.070 C 
ATOM      9  C   LIG    1       -0.467 -12.657   1.172  0.00  0.00    +0.290 C 
ATOM     10  N   LIG    1       -0.241 -11.266   0.743  0.00  0.00    -0.550 N 
ATOM     11  C   LIG    1       -0.606 -10.118   1.361  0.00  0.00    +0.570 A 
ATOM     12  O   LIG    1       -1.202 -10.146   2.424  0.00  0.00    -0.500 OA
ATOM     13  C   LIG    1       -1.246  -7.221   2.425  0.00  0.00    +0.140 C 
ATOM     14  S   LIG    1        0.714  -7.261  -1.083  0.00  0.00    +0.290 S 
ENDROOT
BRANCH   1  15
ATOM     15  C   LIG    1       -0.232  -5.125   0.561  0.00  0.00    +0.550 C 
ATOM     16  O   LIG    1       -0.801  -4.735   1.562  0.00  0.00    -0.490 OA
BRANCH  15  17
ATOM     17  O   LIG    1        0.254  -4.236  -0.329  0.00  0.00    -0.350 OA
BRANCH  17  18
ATOM     18  C   LIG    1        0.062  -2.829  -0.027  0.00  0.00    +0.310 C 
BRANCH  18  25
ATOM     19  C   LIG    1        0.606  -0.607  -1.056  0.00  0.00    +0.130 A 
ATOM     20  C   LIG    1        1.168   0.161  -2.065  0.00  0.00    -0.070 A 
ATOM     21  C   LIG    1        1.781  -0.455  -3.139  0.00  0.00    +0.050 A 
ATOM     22  C   LIG    1        1.835  -1.835  -3.209  0.00  0.00    -0.120 A 
ATOM     23  C   LIG    1        1.275  -2.602  -2.204  0.00  0.00    +0.080 A 
ATOM     24  C   LIG    1        2.504  -2.503  -4.382  0.00  0.00    +0.100 C 
ATOM     25  C   LIG    1        0.666  -1.992  -1.125  0.00  0.00    -0.120 A 
BRANCH  19  27
ATOM     26  C   LIG    1       -0.017   1.425   0.010  0.00  0.00    +0.250 C 
ATOM     27  O   LIG    1        0.002  -0.004   0.002  0.00  0.00    -0.320 OA
ENDBRANCH  19  27
ENDBRANCH  18  25
ENDBRANCH  17  18
ENDBRANCH  15  17
ENDBRANCH   1  15
TORSDOF 5
