REMARK  Name = ZINCkj000005g3AD.1
REMARK                            x       y       z     vdW  Elec       q    Type
REMARK                         _______ _______ _______ _____ _____    ______ ____
ROOT
ATOM      1  N   LIG    1        0.929   0.100   0.239  0.00  0.00    -0.390 N 
ATOM      2  C   LIG    1        0.397   0.513   1.544  0.00  0.00    +0.270 C 
ATOM      3  C   LIG    1       -0.970  -0.139   1.767  0.00  0.00    +0.190 C 
ATOM      4  N   LIG    1       -1.886   0.271   0.693  0.00  0.00    -0.530 NA
ATOM      5  C   LIG    1       -1.354  -0.113  -0.622  0.00  0.00    +0.220 C 
ATOM      6  C   LIG    1       -0.818  -1.661   1.754  0.00  0.00    +0.030 C 
ATOM      7  C   LIG    1        0.016   0.539  -0.825  0.00  0.00    +0.170 C 
ATOM      8  C   LIG    1       -0.131   2.061  -0.776  0.00  0.00    +0.100 C 
ATOM      9  H   LIG    1        1.017  -0.904   0.214  0.00  0.00    +0.420 HD
ENDROOT
BRANCH   1  11
ATOM     10  C   LIG    1        3.233   0.160   1.067  0.00  0.00    +0.080 C 
ATOM     11  C   LIG    1        2.249   0.712   0.034  0.00  0.00    +0.250 C 
ENDBRANCH   1  11
BRANCH   4  12
ATOM     12  C   LIG    1       -3.227  -0.290   0.903  0.00  0.00    +0.340 C 
BRANCH  12  13
ATOM     13  C   LIG    1       -4.217   0.436   0.029  0.00  0.00    +0.170 A 
ATOM     14  N   LIG    1       -4.570   0.111  -1.191  0.00  0.00    -0.300 NA
ATOM     15  N   LIG    1       -5.437   0.973  -1.598  0.00  0.00    -0.070 NA
ATOM     16  N   LIG    1       -5.640   1.844  -0.672  0.00  0.00    -0.080 NA
ATOM     17  N   LIG    1       -4.907   1.548   0.347  0.00  0.00    -0.280 N 
BRANCH  17  18
ATOM     18  C   LIG    1       -4.836   2.283   1.612  0.00  0.00    +0.160 C 
ATOM     19  C   LIG    1       -5.416   1.421   2.735  0.00  0.00    +0.070 C 
ATOM     20  C   LIG    1       -5.642   3.578   1.495  0.00  0.00    +0.080 C 
ATOM     21  C   LIG    1       -3.377   2.617   1.927  0.00  0.00    +0.080 C 
ENDBRANCH  17  18
ENDBRANCH  12  13
ENDBRANCH   4  12
TORSDOF 4
