REMARK  Name = ZINCkj000005g3AD.0
REMARK                            x       y       z     vdW  Elec       q    Type
REMARK                         _______ _______ _______ _____ _____    ______ ____
ROOT
ATOM      1  N   LIG    1        0.489   1.304   2.018  0.00  0.00    -0.390 N 
ATOM      2  C   LIG    1       -0.320   1.501   3.228  0.00  0.00    +0.280 C 
ATOM      3  C   LIG    1       -0.545   2.997   3.454  0.00  0.00    +0.140 C 
ATOM      4  N   LIG    1       -1.232   3.568   2.287  0.00  0.00    -0.530 NA
ATOM      5  C   LIG    1       -0.446   3.357   1.064  0.00  0.00    +0.230 C 
ATOM      6  C   LIG    1       -1.404   3.201   4.704  0.00  0.00    +0.080 C 
ATOM      7  C   LIG    1       -0.222   1.858   0.857  0.00  0.00    +0.170 C 
ATOM      8  C   LIG    1        0.614   1.636  -0.406  0.00  0.00    +0.100 C 
ATOM      9  H   LIG    1        1.375   1.775   2.125  0.00  0.00    +0.420 HD
ENDROOT
BRANCH   1  11
ATOM     10  C   LIG    1        1.567  -0.683   2.959  0.00  0.00    +0.080 C 
ATOM     11  C   LIG    1        0.719  -0.132   1.811  0.00  0.00    +0.240 C 
ENDBRANCH   1  11
BRANCH   4  12
ATOM     12  C   LIG    1       -1.517   4.995   2.491  0.00  0.00    +0.340 C 
BRANCH  12  13
ATOM     13  C   LIG    1       -2.429   5.486   1.396  0.00  0.00    +0.170 A 
ATOM     14  N   LIG    1       -2.071   5.886   0.200  0.00  0.00    -0.300 NA
ATOM     15  N   LIG    1       -3.136   6.225  -0.441  0.00  0.00    -0.070 NA
ATOM     16  N   LIG    1       -4.163   6.058   0.317  0.00  0.00    -0.080 NA
ATOM     17  N   LIG    1       -3.768   5.604   1.458  0.00  0.00    -0.280 N 
BRANCH  17  18
ATOM     18  C   LIG    1       -4.618   5.278   2.607  0.00  0.00    +0.160 C 
ATOM     19  C   LIG    1       -4.337   3.844   3.058  0.00  0.00    +0.080 C 
ATOM     20  C   LIG    1       -6.089   5.408   2.206  0.00  0.00    +0.080 C 
ATOM     21  C   LIG    1       -4.315   6.243   3.755  0.00  0.00    +0.070 C 
ENDBRANCH  17  18
ENDBRANCH  12  13
ENDBRANCH   4  12
TORSDOF 4
