REMARK  Name = ZINCpk000000nqfz.0
REMARK                            x       y       z     vdW  Elec       q    Type
REMARK                         _______ _______ _______ _____ _____    ______ ____
ROOT
ATOM      1  C   LIG    1       -2.454  -1.814  -1.934  0.00  0.00    +0.230 C 
ATOM      2  C   LIG    1       -1.652  -2.785  -2.805  0.00  0.00    +0.040 C 
ATOM      3  C   LIG    1       -0.240  -2.929  -2.232  0.00  0.00    +0.200 C 
ATOM      4  N   LIG    1        0.414  -1.615  -2.203  0.00  0.00    -0.540 NA
ATOM      5  C   LIG    1       -0.312  -0.679  -1.336  0.00  0.00    +0.190 C 
ATOM      6  C   LIG    1       -1.726  -0.468  -1.882  0.00  0.00    +0.030 C 
ENDROOT
BRANCH   1   8
ATOM      7  C   LIG    1       -4.816  -1.255  -1.723  0.00  0.00    +0.520 C 
ATOM      8  N   LIG    1       -3.788  -1.627  -2.511  0.00  0.00    -0.730 N 
ATOM      9  H   LIG    1       -3.930  -1.770  -3.459  0.00  0.00    +0.400 HD
ATOM     10  O   LIG    1       -4.638  -1.076  -0.537  0.00  0.00    -0.540 OA
BRANCH   7  12
ATOM     11  C   LIG    1       -6.660  -2.375  -2.946  0.00  0.00    +0.050 C 
ATOM     12  C   LIG    1       -6.188  -1.063  -2.316  0.00  0.00    -0.020 C 
ATOM     13  C   LIG    1       -7.165  -0.645  -1.216  0.00  0.00    +0.050 C 
ENDBRANCH   7  12
ENDBRANCH   1   8
BRANCH   4  14
ATOM     14  C   LIG    1        1.819  -1.735  -1.789  0.00  0.00    +0.310 C 
BRANCH  14  15
ATOM     15  C   LIG    1        2.554  -0.466  -2.133  0.00  0.00    +0.190 A 
ATOM     16  N   LIG    1        2.780   0.549  -1.335  0.00  0.00    -0.300 NA
ATOM     17  N   LIG    1        3.433   1.440  -1.998  0.00  0.00    -0.070 NA
ATOM     18  N   LIG    1        3.634   1.017  -3.198  0.00  0.00    -0.090 NA
ATOM     19  N   LIG    1        3.111  -0.156  -3.319  0.00  0.00    -0.290 N 
BRANCH  19  20
ATOM     20  C   LIG    1        3.115  -0.991  -4.523  0.00  0.00    +0.400 C 
BRANCH  20  21
ATOM     21  C   LIG    1        4.407  -1.764  -4.593  0.00  0.00    -0.130 A 
ATOM     22  C   LIG    1        4.481  -3.036  -4.057  0.00  0.00    +0.020 A 
ATOM     23  C   LIG    1        5.668  -3.743  -4.116  0.00  0.00    +0.010 A 
ATOM     24  C   LIG    1        6.777  -3.182  -4.721  0.00  0.00    +0.030 A 
ATOM     25  C   LIG    1        6.703  -1.910  -5.258  0.00  0.00    +0.010 A 
ATOM     26  C   LIG    1        5.518  -1.201  -5.194  0.00  0.00    +0.040 A 
ENDBRANCH  20  21
ENDBRANCH  19  20
ENDBRANCH  14  15
ENDBRANCH   4  14
TORSDOF 6
