REMARK  Name = ZINCvU0000000BuP.0
REMARK                            x       y       z     vdW  Elec       q    Type
REMARK                         _______ _______ _______ _____ _____    ______ ____
ROOT
ATOM      1  S   LIG    1       -2.901   4.065  -0.082  0.00  0.00    +2.700 S 
ATOM      2  O   LIG    1       -3.487   3.331  -1.148  0.00  0.00    -0.950 OA
ATOM      3  O   LIG    1       -2.818   5.484  -0.068  0.00  0.00    -0.950 OA
ENDROOT
BRANCH   1   9
ATOM      4  C   LIG    1       -1.010   2.104   0.149  0.00  0.00    +0.230 A 
ATOM      5  C   LIG    1        0.289   1.638   0.286  0.00  0.00    -0.080 A 
ATOM      6  C   LIG    1        1.340   2.533   0.348  0.00  0.00    +0.120 A 
ATOM      7  C   LIG    1        1.097   3.892   0.278  0.00  0.00    -0.130 A 
ATOM      8  C   LIG    1       -0.198   4.359   0.146  0.00  0.00    +0.170 A 
ATOM      9  C   LIG    1       -1.252   3.469   0.085  0.00  0.00    -0.710 A 
BRANCH   7  10
ATOM     10  C   LIG    1        2.245   4.865   0.345  0.00  0.00    -0.030 C 
ATOM     11  C   LIG    1        2.061   5.789   1.551  0.00  0.00    +0.040 C 
ATOM     12  C   LIG    1        2.282   5.700  -0.936  0.00  0.00    +0.040 C 
ATOM     13  C   LIG    1        3.559   4.095   0.490  0.00  0.00    +0.030 C 
ENDBRANCH   7  10
BRANCH   4  14
ATOM     14  O   LIG    1       -2.045   1.226   0.083  0.00  0.00    -0.310 OA
BRANCH  14  15
ATOM     15  C   LIG    1       -1.736  -0.156   0.275  0.00  0.00    +0.200 C 
BRANCH  15  17
ATOM     16  C   LIG    1       -2.662  -2.476   0.215  0.00  0.00    +0.040 C 
ATOM     17  C   LIG    1       -3.011  -0.989   0.126  0.00  0.00    +0.030 C 
ENDBRANCH  15  17
ENDBRANCH  14  15
ENDBRANCH   4  14
ENDBRANCH   1   9
BRANCH   1  18
ATOM     18  N   LIG    1       -3.721   3.632   1.290  0.00  0.00    -1.100 NA
ATOM     19  H   LIG    1       -4.471   3.020   1.234  0.00  0.00    +0.420 HD
BRANCH  18  20
ATOM     20  C   LIG    1       -3.311   4.172   2.589  0.00  0.00    +0.340 C 
BRANCH  20  21
ATOM     21  C   LIG    1       -3.495   3.119   3.651  0.00  0.00    -0.080 A 
ATOM     22  C   LIG    1       -4.611   2.303   3.631  0.00  0.00    +0.020 A 
ATOM     23  C   LIG    1       -4.776   1.334   4.602  0.00  0.00    +0.000 A 
ATOM     24  C   LIG    1       -3.832   1.187   5.601  0.00  0.00    +0.000 A 
ATOM     25  C   LIG    1       -2.718   2.006   5.624  0.00  0.00    +0.000 A 
ATOM     26  C   LIG    1       -2.550   2.972   4.650  0.00  0.00    +0.010 A 
ENDBRANCH  20  21
BRANCH  20  27
ATOM     27  C   LIG    1       -4.157   5.374   2.922  0.00  0.00    -0.090 A 
ATOM     28  C   LIG    1       -5.521   5.343   2.699  0.00  0.00    +0.020 A 
ATOM     29  C   LIG    1       -6.297   6.444   3.009  0.00  0.00    +0.000 A 
ATOM     30  C   LIG    1       -5.708   7.579   3.533  0.00  0.00    +0.000 A 
ATOM     31  C   LIG    1       -4.344   7.612   3.751  0.00  0.00    +0.000 A 
ATOM     32  C   LIG    1       -3.568   6.510   3.446  0.00  0.00    +0.020 A 
ENDBRANCH  20  27
ENDBRANCH  18  20
ENDBRANCH   1  18
TORSDOF 9
