REMARK  Name = ZINCrD000000CUDr.0
REMARK                            x       y       z     vdW  Elec       q    Type
REMARK                         _______ _______ _______ _____ _____    ______ ____
ROOT
ATOM      1  O   LIG    1       -2.901  -0.432  -2.996  0.00  0.00    -0.530 OA
ATOM      2  C   LIG    1       -1.992   0.246  -2.560  0.00  0.00    +0.700 C 
ATOM      3  N   LIG    1       -2.043   0.899  -1.385  0.00  0.00    -0.720 N 
ATOM      4  H   LIG    1       -2.785   0.910  -0.760  0.00  0.00    +0.440 HD
ATOM      5  C   LIG    1       -0.753   1.593  -1.232  0.00  0.00    +0.230 C 
ATOM      6  C   LIG    1        0.003   1.222  -2.492  0.00  0.00    +0.520 C 
ATOM      7  O   LIG    1        1.122   1.569  -2.804  0.00  0.00    -0.470 OA
ATOM      8  N   LIG    1       -0.829   0.428  -3.195  0.00  0.00    -0.570 N 
ENDROOT
BRANCH   5   9
ATOM      9  C   LIG    1       -0.013   1.086   0.008  0.00  0.00    +0.140 C 
BRANCH   9  10
ATOM     10  C   LIG    1       -0.718   1.572   1.248  0.00  0.00    -0.180 A 
ATOM     11  C   LIG    1       -0.420   2.672   1.957  0.00  0.00    +0.240 A 
ATOM     12  N   LIG    1       -1.277   2.791   3.017  0.00  0.00    -0.590 N 
ATOM     13  H   LIG    1       -1.258   3.506   3.672  0.00  0.00    +0.420 HD
ATOM     14  C   LIG    1       -2.171   1.743   3.016  0.00  0.00    +0.090 A 
ATOM     15  C   LIG    1       -3.228   1.385   3.846  0.00  0.00    -0.010 A 
ATOM     16  C   LIG    1       -3.956   0.247   3.575  0.00  0.00    +0.030 A 
ATOM     17  C   LIG    1       -3.645  -0.548   2.480  0.00  0.00    -0.020 A 
ATOM     18  C   LIG    1       -2.610  -0.215   1.652  0.00  0.00    +0.040 A 
ATOM     19  C   LIG    1       -1.863   0.937   1.904  0.00  0.00    -0.100 A 
ENDBRANCH   9  10
ENDBRANCH   5   9
BRANCH   8  20
ATOM     20  C   LIG    1       -0.498  -0.165  -4.494  0.00  0.00    +0.350 C 
BRANCH  20  21
ATOM     21  C   LIG    1        0.160  -1.530  -4.279  0.00  0.00    +0.200 C 
BRANCH  21  22
ATOM     22  O   LIG    1       -0.782  -2.424  -3.683  0.00  0.00    -0.290 OA
BRANCH  22  23
ATOM     23  C   LIG    1       -0.354  -3.688  -3.424  0.00  0.00    +0.140 A 
ATOM     24  C   LIG    1       -1.216  -4.608  -2.847  0.00  0.00    +0.000 A 
ATOM     25  C   LIG    1       -0.780  -5.893  -2.584  0.00  0.00    +0.070 A 
ATOM     26  C   LIG    1        0.515  -6.261  -2.897  0.00  0.00    -0.010 A 
ATOM     27  C   LIG    1        1.378  -5.345  -3.473  0.00  0.00    +0.000 A 
ATOM     28 CL   LIG    1        3.004  -5.811  -3.864  0.00  0.00    -0.070 Cl
ATOM     29  C   LIG    1        0.944  -4.061  -3.742  0.00  0.00    -0.070 A 
ENDBRANCH  22  23
ENDBRANCH  21  22
ENDBRANCH  20  21
ENDBRANCH   8  20
TORSDOF 6
