REMARK  Name = ZINCqH00000380wB.0
REMARK                            x       y       z     vdW  Elec       q    Type
REMARK                         _______ _______ _______ _____ _____    ______ ____
ROOT
ATOM      1  C   LIG    1        2.685   0.798  -0.296  0.00  0.00    +0.110 C 
ATOM      2  C   LIG    1        1.427   1.618  -0.177  0.00  0.00    -0.090 A 
ATOM      3  C   LIG    1        0.205   1.056  -0.496  0.00  0.00    +0.040 A 
ATOM      4  C   LIG    1       -0.951   1.802  -0.395  0.00  0.00    +0.020 A 
ATOM      5  C   LIG    1       -0.891   3.127   0.042  0.00  0.00    -0.110 A 
ATOM      6  C   LIG    1        0.342   3.694   0.364  0.00  0.00    +0.070 A 
ATOM      7  C   LIG    1        1.498   2.938   0.254  0.00  0.00    +0.140 A 
ENDROOT
BRANCH   5   8
ATOM      8  C   LIG    1       -2.129   3.927   0.157  0.00  0.00    +0.560 C 
ATOM      9  N   LIG    1       -3.220   3.399   0.746  0.00  0.00    -0.600 N 
ATOM     10  C   LIG    1       -3.227   1.998   1.190  0.00  0.00    +0.270 C 
ATOM     11  C   LIG    1       -3.634   1.957   2.671  0.00  0.00    -0.030 C 
ATOM     12  C   LIG    1       -4.972   2.679   2.847  0.00  0.00    +0.020 C 
ATOM     13  C   LIG    1       -4.822   4.144   2.429  0.00  0.00    -0.030 C 
ATOM     14  C   LIG    1       -3.737   4.809   3.278  0.00  0.00    +0.010 C 
ATOM     15  C   LIG    1       -3.775   0.502   3.121  0.00  0.00    +0.030 C 
ATOM     16  C   LIG    1       -4.427   4.211   0.951  0.00  0.00    +0.280 C 
ATOM     17  O   LIG    1       -2.163   5.061  -0.280  0.00  0.00    -0.530 OA
ENDBRANCH   5   8
BRANCH   7  18
ATOM     18  N   LIG    1        2.736   3.502   0.576  0.00  0.00    -0.650 N 
ATOM     19  H   LIG    1        3.549   3.141   0.188  0.00  0.00    +0.420 HD
ATOM     20  C   LIG    1        2.801   4.548   1.423  0.00  0.00    +0.570 C 
ATOM     21  O   LIG    1        1.796   4.937   1.986  0.00  0.00    -0.510 OA
BRANCH  20  22
ATOM     22  C   LIG    1        4.096   5.223   1.670  0.00  0.00    +0.070 A 
ATOM     23  C   LIG    1        4.156   6.303   2.548  0.00  0.00    +0.040 A 
ATOM     24  C   LIG    1        5.375   6.924   2.769  0.00  0.00    +0.070 A 
ATOM     25  C   LIG    1        6.492   6.444   2.104  0.00  0.00    +0.000 A 
ATOM     26  C   LIG    1        6.359   5.364   1.245  0.00  0.00    +0.270 A 
ATOM     27  N   LIG    1        5.191   4.790   1.058  0.00  0.00    -0.460 NA
ENDBRANCH  20  22
ENDBRANCH   7  18
TORSDOF 3
