REMARK  Name = ZINCrH000004lr3C.0
REMARK                            x       y       z     vdW  Elec       q    Type
REMARK                         _______ _______ _______ _____ _____    ______ ____
ROOT
ATOM      1  C   LIG    1        5.672   2.270   0.457  0.00  0.00    +0.230 C 
ATOM      2  C   LIG    1        6.854   2.651  -0.449  0.00  0.00    +0.220 C 
ATOM      3  O   LIG    1        7.034   4.069  -0.413  0.00  0.00    -0.370 OA
ATOM      4  C   LIG    1        5.923   4.813  -0.919  0.00  0.00    +0.220 C 
ATOM      5  C   LIG    1        4.694   4.542  -0.043  0.00  0.00    +0.250 C 
ATOM      6  N   LIG    1        4.512   3.086   0.063  0.00  0.00    -0.620 N 
ATOM      7  C   LIG    1        3.316   2.516  -0.187  0.00  0.00    +0.710 C 
ATOM      8  N   LIG    1        2.297   3.265  -0.651  0.00  0.00    -0.680 N 
ATOM      9  H   LIG    1        2.397   4.227  -0.728  0.00  0.00    +0.410 HD
ATOM     10  O   LIG    1        3.157   1.326   0.007  0.00  0.00    -0.550 OA
ENDROOT
BRANCH   8  11
ATOM     11  C   LIG    1        1.097   2.657  -1.022  0.00  0.00    +0.240 A 
ATOM     12  C   LIG    1        1.086   1.384  -1.593  0.00  0.00    -0.050 A 
ATOM     13  C   LIG    1       -0.118   0.815  -1.946  0.00  0.00    +0.330 A 
ATOM     14  N   LIG    1       -1.255   1.460  -1.757  0.00  0.00    -0.540 NA
ATOM     15  C   LIG    1       -1.290   2.667  -1.214  0.00  0.00    +0.340 A 
ATOM     16  C   LIG    1       -0.120   3.306  -0.832  0.00  0.00    -0.080 A 
BRANCH  15  17
ATOM     17  O   LIG    1       -2.483   3.288  -1.034  0.00  0.00    -0.240 OA
BRANCH  17  18
ATOM     18  C   LIG    1       -3.612   2.606  -1.359  0.00  0.00    +0.110 A 
ATOM     19  C   LIG    1       -4.185   2.766  -2.612  0.00  0.00    +0.040 A 
ATOM     20  C   LIG    1       -5.333   2.071  -2.939  0.00  0.00    +0.040 A 
ATOM     21  C   LIG    1       -5.912   1.216  -2.020  0.00  0.00    +0.040 A 
ATOM     22  C   LIG    1       -5.344   1.054  -0.770  0.00  0.00    +0.040 A 
ATOM     23  C   LIG    1       -4.192   1.742  -0.439  0.00  0.00    -0.040 A 
ATOM     24 CL   LIG    1       -3.475   1.533   1.128  0.00  0.00    -0.050 Cl
ENDBRANCH  17  18
ENDBRANCH  15  17
ENDBRANCH   8  11
BRANCH   1  25
ATOM     25  C   LIG    1        5.343   0.786   0.280  0.00  0.00    +0.080 C 
BRANCH  25  26
ATOM     26  C   LIG    1        6.576  -0.053   0.617  0.00  0.00    +0.150 C 
BRANCH  26  28
ATOM     27  C   LIG    1        7.364  -2.315   0.730  0.00  0.00    +0.200 C 
ATOM     28  O   LIG    1        6.273  -1.438   0.440  0.00  0.00    -0.390 OA
ENDBRANCH  26  28
ENDBRANCH  25  26
ENDBRANCH   1  25
TORSDOF 6
