REMARK  Name = ZINCrH000004nQZW.0
REMARK                            x       y       z     vdW  Elec       q    Type
REMARK                         _______ _______ _______ _____ _____    ______ ____
ROOT
ATOM      1  C   LIG    1        0.101   1.469  -0.072  0.00  0.00    +0.370 C 
ENDROOT
BRANCH   1   2
ATOM      2  C   LIG    1        0.311  -0.020  -0.179  0.00  0.00    +0.280 A 
ATOM      3  N   LIG    1        0.829  -0.768   0.750  0.00  0.00    -0.470 NA
ATOM      4  C   LIG    1        0.868  -2.059   0.329  0.00  0.00    +0.050 A 
ATOM      5  C   LIG    1        1.311  -3.249   0.910  0.00  0.00    +0.070 A 
ATOM      6  C   LIG    1        1.222  -4.421   0.212  0.00  0.00    +0.000 A 
ATOM      7  C   LIG    1        0.695  -4.443  -1.071  0.00  0.00    +0.030 A 
ATOM      8  C   LIG    1        0.252  -3.280  -1.664  0.00  0.00    +0.010 A 
ATOM      9  C   LIG    1        0.334  -2.080  -0.971  0.00  0.00    +0.050 A 
ATOM     10  N   LIG    1       -0.009  -0.775  -1.264  0.00  0.00    -0.600 N 
ATOM     11  H   LIG    1       -0.405  -0.457  -2.090  0.00  0.00    +0.420 HD
ENDBRANCH   1   2
BRANCH   1  12
ATOM     12  N   LIG    1       -0.605   1.950  -1.262  0.00  0.00    -0.730 N 
ATOM     13  H   LIG    1       -1.167   1.344  -1.770  0.00  0.00    +0.400 HD
ATOM     14  C   LIG    1       -0.473   3.233  -1.651  0.00  0.00    +0.570 C 
ATOM     15  O   LIG    1        0.232   3.992  -1.014  0.00  0.00    -0.520 OA
BRANCH  14  16
ATOM     16  C   LIG    1       -1.184   3.718  -2.850  0.00  0.00    -0.160 A 
ATOM     17  C   LIG    1       -1.990   2.845  -3.587  0.00  0.00    +0.070 A 
ATOM     18  C   LIG    1       -2.656   3.302  -4.702  0.00  0.00    -0.020 A 
ATOM     19  C   LIG    1       -2.519   4.628  -5.101  0.00  0.00    +0.180 A 
ATOM     20  C   LIG    1       -1.713   5.497  -4.374  0.00  0.00    +0.010 A 
ATOM     21  C   LIG    1       -1.048   5.049  -3.255  0.00  0.00    +0.110 A 
BRANCH  19  22
ATOM     22  N   LIG    1       -3.191   5.085  -6.234  0.00  0.00    -0.680 N 
ATOM     23  H   LIG    1       -4.062   4.724  -6.460  0.00  0.00    +0.420 HD
ATOM     24  C   LIG    1       -2.630   6.029  -7.015  0.00  0.00    +0.510 C 
ATOM     25  O   LIG    1       -1.501   6.412  -6.788  0.00  0.00    -0.520 OA
ATOM     26  C   LIG    1       -3.404   6.610  -8.171  0.00  0.00    +0.110 C 
ENDBRANCH  19  22
ENDBRANCH  14  16
ENDBRANCH   1  12
BRANCH   1  27
ATOM     27  C   LIG    1       -0.731   1.778   1.174  0.00  0.00    +0.070 C 
BRANCH  27  28
ATOM     28  C   LIG    1       -0.838   3.294   1.352  0.00  0.00    +0.090 C 
BRANCH  28  30
ATOM     29  C   LIG    1       -1.838   5.475   2.871  0.00  0.00    +0.140 C 
ATOM     30  S   LIG    1       -1.824   3.661   2.830  0.00  0.00    -0.270 S 
ENDBRANCH  28  30
ENDBRANCH  27  28
ENDBRANCH   1  27
TORSDOF 7
