REMARK  Name = ZINCpk000000niFu.0
REMARK                            x       y       z     vdW  Elec       q    Type
REMARK                         _______ _______ _______ _____ _____    ______ ____
ROOT
ATOM      1  C   LIG    1       -7.256  -1.619   2.282  0.00  0.00    +0.180 C 
ENDROOT
BRANCH   1   2
ATOM      2  C   LIG    1       -8.265  -0.707   2.982  0.00  0.00    -0.080 C 
ATOM      3  C   LIG    1       -9.277  -1.544   3.797  0.00  0.00    +0.060 C 
ATOM      4  C   LIG    1       -9.063  -1.077   5.254  0.00  0.00    +0.200 C 
ATOM      5  O   LIG    1       -7.715  -0.560   5.282  0.00  0.00    -0.370 OA
ATOM      6  C   LIG    1       -7.560   0.167   4.043  0.00  0.00    +0.240 C 
BRANCH   2   7
ATOM      7  C   LIG    1       -8.980   0.158   1.976  0.00  0.00    +0.480 C 
ATOM      8  O   LIG    1      -10.177   0.065   1.841  0.00  0.00    -0.490 OA
BRANCH   7   9
ATOM      9  O   LIG    1       -8.287   1.033   1.230  0.00  0.00    -0.350 OA
BRANCH   9  11
ATOM     10  C   LIG    1      -10.082   2.667   1.032  0.00  0.00    +0.030 C 
ATOM     11  C   LIG    1       -9.041   1.833   0.282  0.00  0.00    +0.120 C 
ATOM     12  C   LIG    1       -9.748   0.912  -0.715  0.00  0.00    +0.030 C 
ATOM     13  C   LIG    1       -8.088   2.764  -0.471  0.00  0.00    +0.080 C 
ENDBRANCH   9  11
ENDBRANCH   7   9
ENDBRANCH   2   7
ENDBRANCH   1   2
BRANCH   1  14
ATOM     14  C   LIG    1       -7.959  -2.422   1.218  0.00  0.00    -0.030 A 
ATOM     15  C   LIG    1       -7.644  -2.474  -0.098  0.00  0.00    +0.150 A 
ATOM     16  N   LIG    1       -8.540  -3.314  -0.666  0.00  0.00    -0.290 N 
ATOM     17  N   LIG    1       -9.333  -3.741   0.254  0.00  0.00    -0.080 NA
ATOM     18  N   LIG    1       -9.012  -3.228   1.389  0.00  0.00    -0.240 NA
BRANCH  16  19
ATOM     19  C   LIG    1       -8.595  -3.679  -2.084  0.00  0.00    +0.320 C 
BRANCH  19  20
ATOM     20  C   LIG    1       -8.537  -5.201  -2.221  0.00  0.00    +0.310 C 
BRANCH  20  21
ATOM     21  N   LIG    1       -8.591  -5.566  -3.639  0.00  0.00    -0.460 N 
ATOM     22  C   LIG    1       -9.721  -5.811  -4.372  0.00  0.00    +0.130 A 
ATOM     23  C   LIG    1       -9.318  -6.115  -5.620  0.00  0.00    +0.150 A 
ATOM     24  N   LIG    1       -7.978  -6.052  -5.650  0.00  0.00    -0.490 NA
ATOM     25  C   LIG    1       -7.537  -5.720  -4.468  0.00  0.00    +0.390 A 
ENDBRANCH  20  21
ENDBRANCH  19  20
ENDBRANCH  16  19
ENDBRANCH   1  14
TORSDOF 8
