REMARK  Name = ZINCpk000000oX5e.0
REMARK                            x       y       z     vdW  Elec       q    Type
REMARK                         _______ _______ _______ _____ _____    ______ ____
ROOT
ATOM      1  N   LIG    1       -1.251   6.301   0.046  0.00  0.00    -0.620 N 
ATOM      2  H   LIG    1       -2.084   5.804   0.051  0.00  0.00    +0.420 HD
ATOM      3  C   LIG    1       -0.074   5.643   0.032  0.00  0.00    +0.560 C 
ATOM      4  O   LIG    1        0.970   6.265   0.026  0.00  0.00    -0.490 OA
ENDROOT
BRANCH   3   5
ATOM      5  C   LIG    1       -0.054   4.166   0.024  0.00  0.00    -0.130 A 
ATOM      6  C   LIG    1        1.164   3.482   0.009  0.00  0.00    +0.130 A 
ATOM      7  C   LIG    1        1.179   2.105   0.002  0.00  0.00    +0.040 A 
ATOM      8  C   LIG    1       -0.017   1.395   0.010  0.00  0.00    +0.170 A 
ATOM      9  C   LIG    1       -1.231   2.072   0.019  0.00  0.00    +0.020 A 
ATOM     10  C   LIG    1       -1.254   3.450   0.032  0.00  0.00    +0.090 A 
BRANCH   8  11
ATOM     11  N   LIG    1        0.002  -0.004   0.002  0.00  0.00    -0.340 N 
ATOM     12  C   LIG    1       -1.060  -0.839   0.013  0.00  0.00    +0.470 A 
ATOM     13  N   LIG    1       -0.594  -2.060  -0.004  0.00  0.00    -0.320 NA
ATOM     14  N   LIG    1        0.690  -2.055  -0.015  0.00  0.00    -0.020 NA
ATOM     15  N   LIG    1        1.131  -0.843  -0.013  0.00  0.00    -0.070 NA
ENDBRANCH   8  11
ENDBRANCH   3   5
BRANCH   1  19
ATOM     16  C   LIG    1       -2.175   9.727   0.074  0.00  0.00    +0.100 A 
ATOM     17  C   LIG    1       -0.901  10.124   0.065  0.00  0.00    -0.120 A 
ATOM     18  S   LIG    1        0.118   8.688   0.054  0.00  0.00    +0.260 S 
ATOM     19  C   LIG    1       -1.270   7.689   0.054  0.00  0.00    +0.240 A 
ATOM     20  N   LIG    1       -2.342   8.417   0.068  0.00  0.00    -0.490 NA
BRANCH  16  21
ATOM     21  C   LIG    1       -3.330  10.695   0.090  0.00  0.00    +0.210 C 
BRANCH  21  22
ATOM     22  C   LIG    1       -4.249  10.400  -1.067  0.00  0.00    +0.460 C 
ATOM     23  O   LIG    1       -3.993   9.496  -1.827  0.00  0.00    -0.490 OA
BRANCH  22  24
ATOM     24  O   LIG    1       -5.353  11.141  -1.254  0.00  0.00    -0.360 OA
BRANCH  24  26
ATOM     25  C   LIG    1       -7.393  11.747  -2.438  0.00  0.00    +0.070 C 
ATOM     26  C   LIG    1       -6.192  10.800  -2.389  0.00  0.00    +0.200 C 
ENDBRANCH  24  26
ENDBRANCH  22  24
ENDBRANCH  21  22
ENDBRANCH  16  21
ENDBRANCH   1  19
TORSDOF 7
