REMARK  Name = ZINCrH000004v6ai.0
REMARK                            x       y       z     vdW  Elec       q    Type
REMARK                         _______ _______ _______ _____ _____    ______ ____
ROOT
ATOM      1  C   LIG    1        1.242   3.578  -0.327  0.00  0.00    +0.060 A 
ATOM      2  N   LIG    1        2.415   4.164  -0.305  0.00  0.00    -0.190 NA
ATOM      3  N   LIG    1        3.505   3.582   0.028  0.00  0.00    -0.310 N 
ATOM      4  C   LIG    1        3.575   2.287   0.399  0.00  0.00    +0.520 A 
ATOM      5  C   LIG    1        2.336   1.498   0.423  0.00  0.00    -0.140 A 
ATOM      6  C   LIG    1        2.301   0.157   0.790  0.00  0.00    +0.090 A 
ATOM      7  C   LIG    1        1.096  -0.514   0.786  0.00  0.00    +0.030 A 
ATOM      8  C   LIG    1       -0.076   0.135   0.421  0.00  0.00    +0.060 A 
ATOM      9  C   LIG    1       -0.063   1.464   0.055  0.00  0.00    +0.080 A 
ATOM     10  O   LIG    1        4.640   1.784   0.706  0.00  0.00    -0.480 OA
ATOM     11  C   LIG    1        1.141   2.159   0.052  0.00  0.00    -0.040 A 
ENDROOT
BRANCH   3  12
ATOM     12  C   LIG    1        4.688   4.330   0.007  0.00  0.00    +0.110 A 
ATOM     13  C   LIG    1        5.549   4.300   1.097  0.00  0.00    +0.040 A 
ATOM     14  C   LIG    1        6.719   5.034   1.070  0.00  0.00    +0.020 A 
ATOM     15  C   LIG    1        7.027   5.807  -0.034  0.00  0.00    +0.020 A 
ATOM     16  C   LIG    1        6.168   5.843  -1.118  0.00  0.00    +0.030 A 
ATOM     17  C   LIG    1        5.000   5.107  -1.100  0.00  0.00    +0.030 A 
ENDBRANCH   3  12
BRANCH   1  19
ATOM     18  O   LIG    1       -1.046   3.781  -0.743  0.00  0.00    -0.500 OA
ATOM     19  C   LIG    1        0.038   4.332  -0.726  0.00  0.00    +0.600 C 
ATOM     20  N   LIG    1        0.140   5.631  -1.071  0.00  0.00    -0.650 N 
ATOM     21  H   LIG    1        1.013   6.046  -1.144  0.00  0.00    +0.420 HD
BRANCH  20  22
ATOM     22  C   LIG    1       -1.015   6.380  -1.323  0.00  0.00    +0.130 A 
ATOM     23  C   LIG    1       -0.993   7.392  -2.274  0.00  0.00    +0.030 A 
ATOM     24  C   LIG    1       -2.135   8.127  -2.526  0.00  0.00    +0.010 A 
ATOM     25  C   LIG    1       -3.299   7.862  -1.823  0.00  0.00    +0.090 A 
ATOM     26  C   LIG    1       -3.321   6.857  -0.871  0.00  0.00    +0.010 A 
ATOM     27  F   LIG    1       -4.413   8.585  -2.067  0.00  0.00    -0.140 F 
ATOM     28  C   LIG    1       -2.183   6.116  -0.620  0.00  0.00    +0.060 A 
ENDBRANCH  20  22
ENDBRANCH   1  19
TORSDOF 3
