REMARK  Name = ZINCrD0000073vYf.0
REMARK                            x       y       z     vdW  Elec       q    Type
REMARK                         _______ _______ _______ _____ _____    ______ ____
ROOT
ATOM      1  C   LIG    1        2.373   1.335   0.026  0.00  0.00    +0.320 A 
ATOM      2  C   LIG    1        1.192   2.067   0.039  0.00  0.00    -0.020 A 
ATOM      3  C   LIG    1       -0.017   1.393   0.088  0.00  0.00    -0.030 A 
ATOM      4  C   LIG    1       -0.001   0.006   0.122  0.00  0.00    -0.050 A 
ATOM      5  C   LIG    1        1.211  -0.656   0.106  0.00  0.00    +0.300 A 
ATOM      6  N   LIG    1        2.347   0.013   0.059  0.00  0.00    -0.520 NA
ENDROOT
BRANCH   1   7
ATOM      7  O   LIG    1        3.563   1.984  -0.023  0.00  0.00    -0.240 OA
BRANCH   7  11
ATOM      8  C   LIG    1        7.010  -0.273   0.247  0.00  0.00    +0.130 A 
ATOM      9  C   LIG    1        6.296  -0.236  -0.942  0.00  0.00    +0.000 A 
ATOM     10  C   LIG    1        5.143   0.519  -1.032  0.00  0.00    +0.060 A 
ATOM     11  C   LIG    1        4.699   1.240   0.066  0.00  0.00    +0.050 A 
ATOM     12  C   LIG    1        5.415   1.208   1.254  0.00  0.00    +0.060 A 
ATOM     13  C   LIG    1        6.565   0.448   1.346  0.00  0.00    -0.060 A 
BRANCH   8  15
ATOM     14  C   LIG    1        8.829  -1.007   1.591  0.00  0.00    +0.240 C 
ATOM     15  O   LIG    1        8.145  -1.015   0.336  0.00  0.00    -0.310 OA
ENDBRANCH   8  15
ENDBRANCH   7  11
ENDBRANCH   1   7
BRANCH   3  16
ATOM     16  C   LIG    1       -1.320   2.149   0.097  0.00  0.00    +0.340 C 
BRANCH  16  17
ATOM     17  N   LIG    1       -1.713   2.429   1.481  0.00  0.00    -0.730 N 
ATOM     18  H   LIG    1       -1.152   2.131   2.214  0.00  0.00    +0.400 HD
ATOM     19  C   LIG    1       -2.854   3.099   1.735  0.00  0.00    +0.590 C 
ATOM     20  O   LIG    1       -3.558   3.473   0.816  0.00  0.00    -0.520 OA
BRANCH  19  21
ATOM     21  C   LIG    1       -3.247   3.379   3.122  0.00  0.00    -0.070 A 
ATOM     22  C   LIG    1       -4.367   4.049   3.513  0.00  0.00    +0.120 A 
ATOM     23  C   LIG    1       -4.353   4.088   4.928  0.00  0.00    -0.270 A 
ATOM     24  C   LIG    1       -3.201   3.436   5.339  0.00  0.00    +0.280 A 
ATOM     25  N   LIG    1       -2.543   3.014   4.249  0.00  0.00    -0.530 N 
ATOM     26  H   LIG    1       -1.704   2.527   4.254  0.00  0.00    +0.420 HD
BRANCH  23  27
ATOM     27  C   LIG    1       -5.362   4.706   5.794  0.00  0.00    +0.420 C 
ATOM     28  O   LIG    1       -6.331   5.249   5.305  0.00  0.00    -0.470 OA
ATOM     29  C   LIG    1       -5.196   4.667   7.291  0.00  0.00    +0.060 C 
ENDBRANCH  23  27
ENDBRANCH  19  21
ENDBRANCH  16  17
ENDBRANCH   3  16
TORSDOF 7
