REMARK  Name = ZINCvU0000000GrM.0
REMARK                            x       y       z     vdW  Elec       q    Type
REMARK                         _______ _______ _______ _____ _____    ______ ____
ROOT
ATOM      1  N   LIG    1        1.822   2.068  -0.343  0.00  0.00    -0.590 N 
ATOM      2  C   LIG    1        1.224   0.902  -0.028  0.00  0.00    +0.590 C 
ATOM      3  O   LIG    1        1.889  -0.107   0.103  0.00  0.00    -0.530 OA
ENDROOT
BRANCH   2   4
ATOM      4  C   LIG    1       -0.236   0.850   0.152  0.00  0.00    -0.030 A 
ATOM      5  C   LIG    1       -1.102   1.925   0.207  0.00  0.00    -0.010 A 
ATOM      6  C   LIG    1       -2.380   1.364   0.385  0.00  0.00    +0.060 A 
ATOM      7  N   LIG    1       -2.236   0.057   0.436  0.00  0.00    -0.260 NA
ATOM      8  N   LIG    1       -1.002  -0.272   0.304  0.00  0.00    -0.250 N 
ATOM      9  C   LIG    1       -0.491  -1.645   0.314  0.00  0.00    +0.380 C 
BRANCH   6  10
ATOM     10  C   LIG    1       -3.658   2.111   0.501  0.00  0.00    -0.010 A 
ATOM     11  C   LIG    1       -3.662   3.503   0.434  0.00  0.00    +0.060 A 
ATOM     12  C   LIG    1       -4.852   4.193   0.536  0.00  0.00    -0.010 A 
ATOM     13  C   LIG    1       -6.041   3.505   0.716  0.00  0.00    +0.100 A 
ATOM     14  C   LIG    1       -6.041   2.121   0.789  0.00  0.00    -0.010 A 
ATOM     15  F   LIG    1       -7.204   4.185   0.821  0.00  0.00    -0.140 F 
ATOM     16  C   LIG    1       -4.855   1.423   0.682  0.00  0.00    +0.070 A 
ENDBRANCH   6  10
ENDBRANCH   2   4
BRANCH   1  17
ATOM     17  C   LIG    1        3.283   2.144  -0.421  0.00  0.00    +0.300 C 
BRANCH  17  18
ATOM     18  C   LIG    1        3.735   1.820  -1.847  0.00  0.00    +0.070 C 
BRANCH  18  22
ATOM     19  C   LIG    1        7.997   2.042  -2.074  0.00  0.00    +0.150 A 
ATOM     20  C   LIG    1        7.229   3.169  -2.325  0.00  0.00    -0.060 A 
ATOM     21  C   LIG    1        5.851   3.093  -2.256  0.00  0.00    +0.070 A 
ATOM     22  C   LIG    1        5.238   1.898  -1.927  0.00  0.00    -0.120 A 
ATOM     23  C   LIG    1        6.002   0.773  -1.676  0.00  0.00    +0.100 A 
ATOM     24  C   LIG    1        7.380   0.842  -1.749  0.00  0.00    -0.120 A 
ATOM     25 BR   LIG    1        8.424  -0.697  -1.405  0.00  0.00    -0.030 Br
BRANCH  19  27
ATOM     26  C   LIG    1        9.919   3.380  -2.487  0.00  0.00    +0.250 C 
ATOM     27  O   LIG    1        9.353   2.113  -2.147  0.00  0.00    -0.300 OA
ENDBRANCH  19  27
ENDBRANCH  18  22
ENDBRANCH  17  18
ENDBRANCH   1  17
BRANCH   1  28
ATOM     28  C   LIG    1        1.012   3.259  -0.609  0.00  0.00    +0.300 C 
BRANCH  28  29
ATOM     29  C   LIG    1        0.927   4.111   0.660  0.00  0.00    -0.070 C 
ATOM     30  C   LIG    1       -0.370   4.883   0.907  0.00  0.00    +0.010 C 
ATOM     31  C   LIG    1        0.898   5.631   0.489  0.00  0.00    +0.030 C 
ENDBRANCH  28  29
ENDBRANCH   1  28
TORSDOF 8
