REMARK  Name = ZINCtV00000L6k28.0
REMARK                            x       y       z     vdW  Elec       q    Type
REMARK                         _______ _______ _______ _____ _____    ______ ____
ROOT
ATOM      1  O   LIG    1        3.344   7.418  -0.348  0.00  0.00    -0.330 OA
ENDROOT
BRANCH   1   2
ATOM      2  C   LIG    1        4.400   8.249  -0.448  0.00  0.00    +0.510 C 
ATOM      3  O   LIG    1        5.528   7.797  -0.476  0.00  0.00    -0.480 OA
BRANCH   2   4
ATOM      4  C   LIG    1        4.188   9.706  -0.524  0.00  0.00    -0.140 A 
ATOM      5  C   LIG    1        2.893  10.230  -0.493  0.00  0.00    +0.100 A 
ATOM      6  C   LIG    1        2.701  11.592  -0.564  0.00  0.00    +0.010 A 
ATOM      7  C   LIG    1        3.787  12.447  -0.667  0.00  0.00    +0.080 A 
ATOM      8  C   LIG    1        5.072  11.943  -0.699  0.00  0.00    +0.000 A 
ATOM      9  C   LIG    1        5.284  10.574  -0.622  0.00  0.00    +0.150 A 
BRANCH   9  10
ATOM     10  O   LIG    1        6.546  10.078  -0.647  0.00  0.00    -0.250 OA
BRANCH  10  11
ATOM     11  C   LIG    1        7.081   9.756  -1.854  0.00  0.00    +0.140 A 
ATOM     12  C   LIG    1        6.305   9.833  -3.001  0.00  0.00    -0.080 A 
ATOM     13  C   LIG    1        6.852   9.509  -4.228  0.00  0.00    +0.050 A 
ATOM     14  C   LIG    1        8.170   9.098  -4.311  0.00  0.00    -0.020 A 
ATOM     15  C   LIG    1        8.944   9.016  -3.168  0.00  0.00    +0.050 A 
ATOM     16  C   LIG    1        8.403   9.343  -1.940  0.00  0.00    -0.010 A 
ENDBRANCH  10  11
ENDBRANCH   9  10
ENDBRANCH   2   4
ENDBRANCH   1   2
BRANCH   1  17
ATOM     17  C   LIG    1        3.628   5.996  -0.278  0.00  0.00    +0.270 C 
BRANCH  17  19
ATOM     18  O   LIG    1        1.277   5.825  -0.155  0.00  0.00    -0.480 OA
ATOM     19  C   LIG    1        2.334   5.230  -0.171  0.00  0.00    +0.520 C 
ATOM     20  N   LIG    1        2.352   3.885  -0.092  0.00  0.00    -0.660 N 
ATOM     21  H   LIG    1        3.198   3.415  -0.020  0.00  0.00    +0.420 HD
BRANCH  20  22
ATOM     22  C   LIG    1        1.151   3.166  -0.114  0.00  0.00    +0.180 A 
ATOM     23  C   LIG    1        0.024   3.715  -0.710  0.00  0.00    +0.080 A 
ATOM     24  C   LIG    1       -1.162   3.003  -0.730  0.00  0.00    -0.000 A 
ATOM     25  C   LIG    1       -1.223   1.741  -0.162  0.00  0.00    -0.040 A 
ATOM     26  C   LIG    1       -0.102   1.195   0.437  0.00  0.00    +0.100 A 
ATOM     27 CL   LIG    1       -2.710   0.847  -0.196  0.00  0.00    -0.030 Cl
ATOM     28 CL   LIG    1       -2.572   3.688  -1.475  0.00  0.00    -0.030 Cl
ATOM     29  C   LIG    1        1.085   1.902   0.461  0.00  0.00    -0.060 A 
ATOM     30 CL   LIG    1        2.493   1.213   1.206  0.00  0.00    -0.040 Cl
ENDBRANCH  20  22
ENDBRANCH  17  19
ENDBRANCH   1  17
TORSDOF 7
