REMARK  Name = ZINCrH000004sauD.0
REMARK                            x       y       z     vdW  Elec       q    Type
REMARK                         _______ _______ _______ _____ _____    ______ ____
ROOT
ATOM      1  C   LIG    1        4.803  -3.180   0.374  0.00  0.00    -0.170 A 
ATOM      2  C   LIG    1        5.315  -3.512   1.587  0.00  0.00    +0.190 A 
ATOM      3  N   LIG    1        6.506  -4.172   1.649  0.00  0.00    -0.260 N 
ATOM      4  N   LIG    1        7.259  -4.636   2.734  0.00  0.00    -0.340 NA
ATOM      5  C   LIG    1        8.366  -5.219   2.285  0.00  0.00    +0.140 A 
ATOM      6  C   LIG    1        9.453  -5.844   2.930  0.00  0.00    +0.000 A 
ATOM      7  C   LIG    1       10.470  -6.363   2.192  0.00  0.00    +0.070 A 
ATOM      8  C   LIG    1       10.457  -6.288   0.799  0.00  0.00    -0.040 A 
ATOM      9  C   LIG    1        9.425  -5.693   0.141  0.00  0.00    +0.110 A 
ATOM     10  C   LIG    1        8.358  -5.145   0.867  0.00  0.00    -0.190 A 
ATOM     11  C   LIG    1        7.170  -4.479   0.495  0.00  0.00    +0.290 A 
ATOM     12  N   LIG    1        6.665  -4.144  -0.691  0.00  0.00    -0.460 NA
ATOM     13  C   LIG    1        4.572  -3.161   2.850  0.00  0.00    +0.170 C 
ATOM     14  C   LIG    1        5.515  -3.512  -0.783  0.00  0.00    +0.210 A 
ATOM     15  C   LIG    1        4.965  -3.145  -2.137  0.00  0.00    +0.160 C 
ENDROOT
BRANCH   1  16
ATOM     16  C   LIG    1        3.485  -2.456   0.276  0.00  0.00    +0.150 C 
BRANCH  16  17
ATOM     17  C   LIG    1        3.737  -0.950   0.179  0.00  0.00    +0.060 C 
BRANCH  17  20
ATOM     18  N   LIG    1        2.394   1.119  -0.014  0.00  0.00    -0.660 N 
ATOM     19  H   LIG    1        3.224   1.615  -0.094  0.00  0.00    +0.420 HD
ATOM     20  C   LIG    1        2.419  -0.225   0.081  0.00  0.00    +0.500 C 
ATOM     21  O   LIG    1        1.381  -0.852   0.088  0.00  0.00    -0.470 OA
BRANCH  18  27
ATOM     22  C   LIG    1       -0.114   5.352   0.048  0.00  0.00    +0.100 C 
ATOM     23  C   LIG    1       -0.055   3.847   0.032  0.00  0.00    -0.010 A 
ATOM     24  C   LIG    1       -1.219   3.090   0.033  0.00  0.00    -0.060 A 
ATOM     25  C   LIG    1       -1.130   1.712   0.024  0.00  0.00    +0.300 A 
ATOM     26  N   LIG    1        0.044   1.110   0.009  0.00  0.00    -0.480 NA
ATOM     27  C   LIG    1        1.176   1.797   0.002  0.00  0.00    +0.360 A 
ATOM     28  C   LIG    1        1.161   3.186   0.011  0.00  0.00    -0.080 A 
ENDBRANCH  18  27
ENDBRANCH  17  20
ENDBRANCH  16  17
ENDBRANCH   1  16
TORSDOF 4
