REMARK  Name = ZINCpk000005Y558.0
REMARK                            x       y       z     vdW  Elec       q    Type
REMARK                         _______ _______ _______ _____ _____    ______ ____
ROOT
ATOM      1  C   LIG    1       -2.317   9.090   0.072  0.00  0.00    +0.250 C 
ATOM      2  C   LIG    1       -2.631   9.536  -1.371  0.00  0.00    +0.010 C 
ATOM      3  C   LIG    1       -2.432  11.072  -1.346  0.00  0.00    +0.020 C 
ATOM      4  C   LIG    1       -1.206  11.242  -0.415  0.00  0.00    +0.020 C 
ATOM      5  C   LIG    1       -1.411  10.175   0.680  0.00  0.00    -0.020 C 
ENDROOT
BRANCH   1   8
ATOM      6  O   LIG    1       -3.539   6.686   0.071  0.00  0.00    -0.530 OA
ATOM      7  C   LIG    1       -2.323   6.653   0.059  0.00  0.00    +0.590 C 
ATOM      8  N   LIG    1       -1.618   7.802   0.059  0.00  0.00    -0.730 N 
ATOM      9  H   LIG    1       -0.649   7.777   0.049  0.00  0.00    +0.400 HD
BRANCH   7  10
ATOM     10  C   LIG    1       -1.620   5.357   0.046  0.00  0.00    -0.170 A 
ATOM     11  C   LIG    1       -0.252   5.167   0.032  0.00  0.00    +0.160 A 
ATOM     12  N   LIG    1        0.002   3.840   0.023  0.00  0.00    -0.340 N 
ATOM     13  C   LIG    1        1.188   3.145   0.008  0.00  0.00    +0.200 A 
ATOM     14  C   LIG    1        1.196   1.799   0.000  0.00  0.00    +0.020 A 
ATOM     15  C   LIG    1       -0.013   1.076   0.008  0.00  0.00    +0.010 A 
ATOM     16  C   LIG    1       -1.196   1.741   0.017  0.00  0.00    +0.080 A 
ATOM     17  C   LIG    1       -1.195   3.155   0.030  0.00  0.00    +0.030 A 
ATOM     18  C   LIG    1       -2.220   4.079   0.045  0.00  0.00    +0.030 A 
ENDBRANCH   7  10
ENDBRANCH   1   8
BRANCH   5  19
ATOM     19  C   LIG    1       -0.064   9.569   1.080  0.00  0.00    +0.270 C 
BRANCH  19  20
ATOM     20  N   LIG    1        0.743  10.582   1.764  0.00  0.00    -0.720 N 
ATOM     21  H   LIG    1        0.390  11.476   1.897  0.00  0.00    +0.400 HD
ATOM     22  C   LIG    1        1.977  10.272   2.210  0.00  0.00    +0.530 C 
ATOM     23  O   LIG    1        2.419   9.155   2.045  0.00  0.00    -0.530 OA
BRANCH  22  24
ATOM     24  C   LIG    1        2.807  11.314   2.914  0.00  0.00    +0.010 C 
ATOM     25  C   LIG    1        4.285  11.417   2.531  0.00  0.00    +0.060 C 
ATOM     26  C   LIG    1        3.884  10.823   3.884  0.00  0.00    +0.100 C 
BRANCH  24  27
ATOM     27  O   LIG    1        2.125  12.526   3.245  0.00  0.00    -0.520 OA
ATOM     28  H   LIG    1        1.457  12.790   2.598  0.00  0.00    +0.380 HD
ENDBRANCH  24  27
ENDBRANCH  22  24
ENDBRANCH  19  20
ENDBRANCH   5  19
TORSDOF 6
