REMARK  Name = ZINCrD0000073lII.0
REMARK                            x       y       z     vdW  Elec       q    Type
REMARK                         _______ _______ _______ _____ _____    ______ ____
ROOT
ATOM      1  C   LIG    1        2.527  -0.564  -0.052  0.00  0.00    +0.150 C 
ENDROOT
BRANCH   1   4
ATOM      2  C   LIG    1        5.480   1.293  -1.097  0.00  0.00    +0.130 A 
ATOM      3  N   LIG    1        4.270   0.814  -1.132  0.00  0.00    -0.440 NA
ATOM      4  C   LIG    1        3.903   0.047  -0.131  0.00  0.00    +0.090 A 
ATOM      5  C   LIG    1        4.827  -0.163   0.812  0.00  0.00    -0.070 A 
ATOM      6  S   LIG    1        6.286   0.715   0.359  0.00  0.00    +0.080 S 
BRANCH   2  10
ATOM      7  C   LIG    1        7.213   3.828  -4.034  0.00  0.00    +0.150 A 
ATOM      8  C   LIG    1        7.957   3.442  -2.926  0.00  0.00    -0.010 A 
ATOM      9  C   LIG    1        7.398   2.620  -1.971  0.00  0.00    +0.070 A 
ATOM     10  C   LIG    1        6.083   2.175  -2.119  0.00  0.00    -0.070 A 
ATOM     11  C   LIG    1        5.340   2.562  -3.236  0.00  0.00    +0.120 A 
ATOM     12  C   LIG    1        5.905   3.388  -4.184  0.00  0.00    -0.070 A 
BRANCH   7  14
ATOM     13  C   LIG    1        6.947   4.997  -6.086  0.00  0.00    +0.240 C 
ATOM     14  O   LIG    1        7.767   4.639  -4.973  0.00  0.00    -0.310 OA
ENDBRANCH   7  14
ENDBRANCH   2  10
ENDBRANCH   1   4
BRANCH   1  15
ATOM     15  C   LIG    1        1.488   0.524  -0.150  0.00  0.00    +0.520 C 
ATOM     16  N   LIG    1        0.178   0.211  -0.102  0.00  0.00    -0.720 N 
ATOM     17  H   LIG    1       -0.096  -0.714  -0.006  0.00  0.00    +0.410 HD
ATOM     18  O   LIG    1        1.832   1.681  -0.271  0.00  0.00    -0.520 OA
BRANCH  16  19
ATOM     19  C   LIG    1       -0.831   1.268  -0.203  0.00  0.00    +0.280 C 
BRANCH  19  20
ATOM     20  C   LIG    1       -2.228   0.648  -0.129  0.00  0.00    +0.270 C 
BRANCH  20  21
ATOM     21  C   LIG    1       -3.265   1.718  -0.355  0.00  0.00    -0.050 A 
ATOM     22  C   LIG    1       -4.107   2.205   0.573  0.00  0.00    -0.040 A 
ATOM     23  C   LIG    1       -4.901   3.184  -0.068  0.00  0.00    -0.060 A 
ATOM     24  C   LIG    1       -4.496   3.236  -1.350  0.00  0.00    +0.160 A 
ATOM     25  O   LIG    1       -3.501   2.350  -1.516  0.00  0.00    -0.170 OA
ENDBRANCH  20  21
BRANCH  20  26
ATOM     26  N   LIG    1       -2.359  -0.388  -1.163  0.00  0.00    -0.530 NA
ATOM     27  C   LIG    1       -2.098   0.166  -2.498  0.00  0.00    +0.200 C 
ATOM     28  C   LIG    1       -3.682  -1.024  -1.106  0.00  0.00    +0.190 C 
ENDBRANCH  20  26
ENDBRANCH  19  20
ENDBRANCH  16  19
ENDBRANCH   1  15
TORSDOF 8
