REMARK  Name = ZINCvU0000000He2.0
REMARK                            x       y       z     vdW  Elec       q    Type
REMARK                         _______ _______ _______ _____ _____    ______ ____
ROOT
ATOM      1  O   LIG    1        0.457  -0.589   3.500  0.00  0.00    -0.490 OA
ATOM      2  C   LIG    1        0.428   0.076   2.486  0.00  0.00    +0.530 C 
ATOM      3  N   LIG    1       -0.242   1.246   2.466  0.00  0.00    -0.670 N 
ATOM      4  H   LIG    1       -0.209   1.810   1.677  0.00  0.00    +0.420 HD
ENDROOT
BRANCH   3   5
ATOM      5  C   LIG    1       -0.983   1.647   3.583  0.00  0.00    +0.200 A 
ATOM      6  C   LIG    1       -2.168   2.352   3.415  0.00  0.00    -0.020 A 
ATOM      7  C   LIG    1       -2.900   2.742   4.519  0.00  0.00    +0.150 A 
ATOM      8  C   LIG    1       -2.448   2.441   5.791  0.00  0.00    -0.690 A 
ATOM      9  C   LIG    1       -1.266   1.744   5.962  0.00  0.00    +0.140 A 
ATOM     10  C   LIG    1       -0.532   1.346   4.861  0.00  0.00    +0.010 A 
BRANCH   8  11
ATOM     11  S   LIG    1       -3.381   2.948   7.198  0.00  0.00    +2.690 S 
ATOM     12  O   LIG    1       -3.017   2.073   8.257  0.00  0.00    -0.950 OA
ATOM     13  O   LIG    1       -4.720   3.114   6.753  0.00  0.00    -0.960 OA
BRANCH  11  14
ATOM     14  N   LIG    1       -2.841   4.453   7.628  0.00  0.00    -0.990 NA
ATOM     15  C   LIG    1       -1.754   4.555   8.576  0.00  0.00    +0.280 C 
ATOM     16  C   LIG    1       -2.313   4.601  10.013  0.00  0.00    +0.010 C 
ATOM     17  C   LIG    1       -2.975   5.891  10.262  0.00  0.00    +0.000 C 
ATOM     18  C   LIG    1       -4.187   6.157   9.375  0.00  0.00    +0.010 C 
ATOM     19  C   LIG    1       -3.728   6.751   8.066  0.00  0.00    +0.020 C 
ATOM     20  C   LIG    1       -3.493   5.636   7.032  0.00  0.00    +0.270 C 
ENDBRANCH  11  14
ENDBRANCH   8  11
ENDBRANCH   3   5
BRANCH   2  21
ATOM     21  C   LIG    1        1.140  -0.405   1.248  0.00  0.00    +0.080 C 
BRANCH  21  22
ATOM     22  S   LIG    1        1.940  -1.997   1.592  0.00  0.00    -0.020 S 
BRANCH  22  23
ATOM     23  C   LIG    1        2.708  -2.394   0.057  0.00  0.00    -0.100 A 
ATOM     24  C   LIG    1        3.427  -3.564  -0.064  0.00  0.00    +0.050 A 
ATOM     25  C   LIG    1        4.037  -3.877  -1.289  0.00  0.00    -0.030 A 
ATOM     26  C   LIG    1        4.778  -5.061  -1.452  0.00  0.00    +0.020 A 
ATOM     27  C   LIG    1        5.356  -5.334  -2.654  0.00  0.00    +0.020 A 
ATOM     28  C   LIG    1        5.225  -4.456  -3.728  0.00  0.00    +0.010 A 
ATOM     29  C   LIG    1        4.516  -3.300  -3.607  0.00  0.00    +0.030 A 
ATOM     30  C   LIG    1        3.904  -2.984  -2.383  0.00  0.00    -0.060 A 
ATOM     31  C   LIG    1        3.163  -1.800  -2.224  0.00  0.00    +0.050 A 
ATOM     32  C   LIG    1        2.577  -1.521  -1.031  0.00  0.00    -0.010 A 
ENDBRANCH  22  23
ENDBRANCH  21  22
ENDBRANCH   2  21
TORSDOF 6
