REMARK  Name = ZINCkj000005j7pr.0
REMARK                            x       y       z     vdW  Elec       q    Type
REMARK                         _______ _______ _______ _____ _____    ______ ____
ROOT
ATOM      1  C   LIG    1       -1.676   1.385   0.971  0.00  0.00    +0.160 C 
ATOM      2  C   LIG    1       -1.431   0.882  -0.455  0.00  0.00    +0.180 C 
ATOM      3  N   LIG    1       -0.269   1.581  -1.023  0.00  0.00    -0.520 NA
ATOM      4  C   LIG    1        0.927   1.358  -0.198  0.00  0.00    +0.160 C 
ATOM      5  C   LIG    1        0.660   1.856   1.225  0.00  0.00    +0.250 C 
ATOM      6  O   LIG    1       -0.492   1.188   1.749  0.00  0.00    -0.390 OA
ENDROOT
BRANCH   1   8
ATOM      7  C   LIG    1       -2.436  -0.864   1.748  0.00  0.00    +0.090 C 
ATOM      8  C   LIG    1       -2.834   0.605   1.596  0.00  0.00    +0.190 C 
BRANCH   8   9
ATOM      9  N   LIG    1       -3.146   1.167   2.917  0.00  0.00    -0.630 N 
ATOM     10  H   LIG    1       -2.334   1.098   3.512  0.00  0.00    +0.440 HD
ATOM     11  H   LIG    1       -3.910   0.653   3.329  0.00  0.00    +0.440 HD
ATOM     12  H   LIG    1       -3.409   2.136   2.816  0.00  0.00    +0.440 HD
ENDBRANCH   8   9
ENDBRANCH   1   8
BRANCH   3  13
ATOM     13  C   LIG    1       -0.034   1.168  -2.413  0.00  0.00    +0.270 C 
BRANCH  13  14
ATOM     14  C   LIG    1        0.015  -0.337  -2.488  0.00  0.00    -0.130 A 
ATOM     15  C   LIG    1       -1.155  -1.058  -2.612  0.00  0.00    +0.010 A 
ATOM     16  C   LIG    1       -1.110  -2.438  -2.682  0.00  0.00    +0.010 A 
ATOM     17  C   LIG    1        0.106  -3.090  -2.625  0.00  0.00    +0.030 A 
ATOM     18  C   LIG    1        1.282  -2.367  -2.498  0.00  0.00    -0.110 A 
ATOM     19  C   LIG    1        2.588  -3.115  -2.428  0.00  0.00    +0.280 C 
ATOM     20  O   LIG    1        3.679  -2.228  -2.686  0.00  0.00    -0.370 OA
ATOM     21  C   LIG    1        3.652  -1.058  -1.861  0.00  0.00    +0.210 C 
ATOM     22  C   LIG    1        2.495  -0.168  -2.320  0.00  0.00    +0.050 C 
ATOM     23  C   LIG    1        1.237  -0.990  -2.439  0.00  0.00    -0.060 A 
ENDBRANCH  13  14
ENDBRANCH   3  13
TORSDOF 4
