REMARK  Name = ZINCtj00000olnGj.0
REMARK                            x       y       z     vdW  Elec       q    Type
REMARK                         _______ _______ _______ _____ _____    ______ ____
ROOT
ATOM      1  C   LIG    1       -3.006  -0.361   2.758  0.00  0.00    +0.070 C 
ATOM      2  C   LIG    1       -4.147   0.666   2.547  0.00  0.00    +0.060 C 
ATOM      3  C   LIG    1       -2.940   1.644   2.492  0.00  0.00    -0.150 C 
ATOM      4  C   LIG    1       -2.169   1.098   1.252  0.00  0.00    +0.130 C 
ATOM      5  C   LIG    1       -0.730   1.580   1.269  0.00  0.00    +0.080 C 
ATOM      6  C   LIG    1       -0.013   1.086   0.008  0.00  0.00    +0.270 C 
ATOM      7  N   LIG    1       -0.723   1.572  -1.181  0.00  0.00    -0.510 N 
ATOM      8  C   LIG    1       -2.072   0.995  -1.233  0.00  0.00    +0.270 C 
ATOM      9  H   LIG    1       -0.213   1.303  -2.009  0.00  0.00    +0.430 HD
ATOM     10  H   LIG    1       -0.791   2.578  -1.143  0.00  0.00    +0.430 HD
ATOM     11  C   LIG    1       -2.884   1.485  -0.029  0.00  0.00    +0.090 C 
ATOM     12  O   LIG    1       -2.257  -0.319   1.502  0.00  0.00    -0.330 OA
ATOM     13  C   LIG    1       -2.458   0.782   3.702  0.00  0.00    +0.080 C 
ENDROOT
BRANCH   3  14
ATOM     14  C   LIG    1       -3.126   3.132   2.635  0.00  0.00    +0.570 C 
ATOM     15  N   LIG    1       -3.789   3.629   3.698  0.00  0.00    -0.710 N 
ATOM     16  H   LIG    1       -4.147   3.029   4.370  0.00  0.00    +0.400 HD
ATOM     17  O   LIG    1       -2.679   3.883   1.794  0.00  0.00    -0.520 OA
BRANCH  15  18
ATOM     18  C   LIG    1       -3.970   5.076   3.837  0.00  0.00    +0.320 C 
ATOM     19  C   LIG    1       -5.213   5.350   4.682  0.00  0.00    +0.030 C 
ATOM     20  C   LIG    1       -5.267   6.850   4.994  0.00  0.00    +0.030 C 
ATOM     21  C   LIG    1       -4.137   7.180   5.968  0.00  0.00    +0.080 C 
ATOM     22  C   LIG    1       -2.827   6.638   5.461  0.00  0.00    -0.110 A 
ATOM     23  C   LIG    1       -1.655   7.146   6.012  0.00  0.00    +0.060 A 
ATOM     24  C   LIG    1       -0.439   6.658   5.562  0.00  0.00    -0.020 A 
ATOM     25  C   LIG    1       -0.434   5.683   4.583  0.00  0.00    +0.240 A 
ATOM     26  N   LIG    1       -1.562   5.228   4.085  0.00  0.00    -0.470 NA
ATOM     27  C   LIG    1       -2.747   5.670   4.487  0.00  0.00    +0.110 A 
ENDBRANCH  15  18
ENDBRANCH   3  14
BRANCH   1  28
ATOM     28  C   LIG    1       -3.324  -1.734   3.353  0.00  0.00    +0.330 C 
BRANCH  28  31
ATOM     29  C   LIG    1       -0.860  -4.579   4.055  0.00  0.00    +0.110 C 
ATOM     30  C   LIG    1       -2.127  -3.771   3.952  0.00  0.00    +0.510 C 
ATOM     31  N   LIG    1       -2.091  -2.520   3.453  0.00  0.00    -0.730 N 
ATOM     32  H   LIG    1       -1.248  -2.139   3.160  0.00  0.00    +0.400 HD
ATOM     33  O   LIG    1       -3.181  -4.247   4.319  0.00  0.00    -0.540 OA
ENDBRANCH  28  31
ENDBRANCH   1  28
TORSDOF 4
