REMARK  Name = ZINCnE00000gTDuK.0
REMARK                            x       y       z     vdW  Elec       q    Type
REMARK                         _______ _______ _______ _____ _____    ______ ____
ROOT
ATOM      1  C   LIG    1        3.944   6.684  -0.100  0.00  0.00    -0.010 A 
ATOM      2  C   LIG    1        2.854   7.547  -0.013  0.00  0.00    +0.010 A 
ATOM      3  C   LIG    1        1.573   7.035   0.030  0.00  0.00    +0.010 A 
ATOM      4  C   LIG    1        1.371   5.663  -0.013  0.00  0.00    +0.100 A 
ATOM      5  C   LIG    1        2.456   4.801  -0.094  0.00  0.00    +0.020 A 
ATOM      6  C   LIG    1        3.738   5.307  -0.143  0.00  0.00    +0.010 A 
ENDROOT
BRANCH   1   9
ATOM      7  N   LIG    1        7.506   7.377  -0.245  0.00  0.00    -0.370 N 
ATOM      8  C   LIG    1        6.476   6.506  -0.230  0.00  0.00    +0.240 A 
ATOM      9  C   LIG    1        5.324   7.231  -0.145  0.00  0.00    -0.190 A 
ATOM     10  C   LIG    1        5.680   8.594  -0.115  0.00  0.00    +0.250 A 
ATOM     11  N   LIG    1        6.983   8.674  -0.169  0.00  0.00    -0.300 NA
BRANCH   7  13
ATOM     12  C   LIG    1        9.562   7.755  -1.515  0.00  0.00    +0.030 C 
ATOM     13  C   LIG    1        8.926   7.027  -0.329  0.00  0.00    +0.310 C 
ENDBRANCH   7  13
ENDBRANCH   1   9
BRANCH   4  14
ATOM     14  O   LIG    1        0.108   5.162   0.029  0.00  0.00    -0.200 OA
BRANCH  14  15
ATOM     15  C   LIG    1       -0.638   5.224  -1.099  0.00  0.00    +0.340 A 
ATOM     16  N   LIG    1       -0.167   5.846  -2.166  0.00  0.00    -0.540 NA
ATOM     17  C   LIG    1       -0.860   5.929  -3.285  0.00  0.00    +0.270 A 
ATOM     18  C   LIG    1       -2.119   5.367  -3.393  0.00  0.00    -0.100 A 
ATOM     19  C   LIG    1       -2.666   4.708  -2.306  0.00  0.00    +0.120 A 
ATOM     20  C   LIG    1       -1.910   4.627  -1.129  0.00  0.00    -0.190 A 
BRANCH  20  21
ATOM     21  C   LIG    1       -2.440   3.933   0.056  0.00  0.00    +0.530 C 
ATOM     22  O   LIG    1       -1.772   3.872   1.079  0.00  0.00    -0.660 OA
ATOM     23  O   LIG    1       -3.549   3.417   0.017  0.00  0.00    -0.690 OA
ENDBRANCH  20  21
ENDBRANCH  14  15
ENDBRANCH   4  14
TORSDOF 5
