REMARK  Name = ZINCpe00000MJIBT.1
REMARK                            x       y       z     vdW  Elec       q    Type
REMARK                         _______ _______ _______ _____ _____    ______ ____
ROOT
ATOM      1  C   LIG    1       -2.512   0.973   0.019  0.00  0.00    +0.320 C 
ENDROOT
BRANCH   1   2
ATOM      2  N   LIG    1       -3.062   0.934  -1.342  0.00  0.00    -0.380 N 
ATOM      3  C   LIG    1       -2.155   0.177  -2.214  0.00  0.00    +0.260 C 
ATOM      4  C   LIG    1       -2.682   0.206  -3.650  0.00  0.00    +0.040 C 
ATOM      5  C   LIG    1       -4.075  -0.426  -3.691  0.00  0.00    +0.130 C 
ATOM      6  C   LIG    1       -3.980  -1.894  -3.264  0.00  0.00    -0.020 C 
ATOM      7  C   LIG    1       -5.387  -2.496  -3.214  0.00  0.00    +0.230 C 
ATOM      8  O   LIG    1       -6.196  -1.738  -2.313  0.00  0.00    -0.380 OA
ATOM      9  C   LIG    1       -6.362  -0.369  -2.689  0.00  0.00    +0.260 C 
ATOM     10  C   LIG    1       -4.995   0.320  -2.719  0.00  0.00    -0.020 C 
ATOM     11  C   LIG    1       -4.381   0.290  -1.318  0.00  0.00    +0.280 C 
ATOM     12  H   LIG    1       -3.156   1.876  -1.693  0.00  0.00    +0.420 HD
BRANCH   5  13
ATOM     13  O   LIG    1       -4.604  -0.336  -5.015  0.00  0.00    -0.540 OA
ATOM     14  H   LIG    1       -4.069  -0.785  -5.684  0.00  0.00    +0.390 HD
ENDBRANCH   5  13
ENDBRANCH   1   2
BRANCH   1  20
ATOM     15  C   LIG    1       -1.246   3.137   0.030  0.00  0.00    +0.150 A 
ATOM     16  C   LIG    1       -0.061   3.852   0.022  0.00  0.00    -0.040 A 
ATOM     17  C   LIG    1        1.157   3.175   0.008  0.00  0.00    +0.140 A 
ATOM     18  C   LIG    1        1.175   1.780   0.000  0.00  0.00    +0.000 A 
ATOM     19  C   LIG    1       -0.013   1.076   0.008  0.00  0.00    +0.070 A 
ATOM     20  C   LIG    1       -1.220   1.748   0.017  0.00  0.00    -0.220 A 
BRANCH  17  21
ATOM     21  C   LIG    1        2.429   3.933  -0.001  0.00  0.00    +0.050 A 
ATOM     22  N   LIG    1        2.567   5.260  -0.002  0.00  0.00    -0.360 NA
ATOM     23  N   LIG    1        3.830   5.518  -0.008  0.00  0.00    -0.180 NA
ATOM     24  N   LIG    1        4.489   4.413  -0.019  0.00  0.00    -0.170 NA
ATOM     25  N   LIG    1        3.662   3.424  -0.015  0.00  0.00    -0.350 NA
ENDBRANCH  17  21
BRANCH  15  27
ATOM     26  C   LIG    1       -2.389   5.222   0.052  0.00  0.00    +0.250 C 
ATOM     27  O   LIG    1       -2.436   3.793   0.045  0.00  0.00    -0.330 OA
ENDBRANCH  15  27
ENDBRANCH   1  20
TORSDOF 5
