REMARK  Name = ZINCpe00000MJIBT.0
REMARK                            x       y       z     vdW  Elec       q    Type
REMARK                         _______ _______ _______ _____ _____    ______ ____
ROOT
ATOM      1  C   LIG    1        0.049  -2.825  -0.029  0.00  0.00    +0.320 C 
ENDROOT
BRANCH   1   2
ATOM      2  N   LIG    1       -1.404  -2.908  -0.229  0.00  0.00    -0.380 N 
ATOM      3  C   LIG    1       -1.994  -1.572  -0.079  0.00  0.00    +0.280 C 
ATOM      4  C   LIG    1       -3.495  -1.638  -0.366  0.00  0.00    +0.020 C 
ATOM      5  C   LIG    1       -4.158  -2.604   0.619  0.00  0.00    +0.130 C 
ATOM      6  C   LIG    1       -5.642  -2.745   0.272  0.00  0.00    +0.000 C 
ATOM      7  C   LIG    1       -5.778  -3.350  -1.127  0.00  0.00    +0.220 C 
ATOM      8  O   LIG    1       -5.107  -4.612  -1.165  0.00  0.00    -0.360 OA
ATOM      9  C   LIG    1       -3.705  -4.534  -0.899  0.00  0.00    +0.220 C 
ATOM     10  C   LIG    1       -3.483  -3.975   0.509  0.00  0.00    +0.000 C 
ATOM     11  C   LIG    1       -1.982  -3.821   0.763  0.00  0.00    +0.270 C 
ATOM     12  H   LIG    1       -1.596  -3.256  -1.156  0.00  0.00    +0.410 HD
BRANCH   5  13
ATOM     13  O   LIG    1       -4.013  -2.105   1.950  0.00  0.00    -0.550 OA
ATOM     14  H   LIG    1       -4.415  -1.236   2.090  0.00  0.00    +0.390 HD
ENDBRANCH   5  13
ENDBRANCH   1   2
BRANCH   1  20
ATOM     15  C   LIG    1        0.606  -0.607  -1.056  0.00  0.00    +0.140 A 
ATOM     16  C   LIG    1        1.161   0.160  -2.066  0.00  0.00    -0.040 A 
ATOM     17  C   LIG    1        1.785  -0.462  -3.146  0.00  0.00    +0.130 A 
ATOM     18  C   LIG    1        1.835  -1.854  -3.209  0.00  0.00    +0.000 A 
ATOM     19  C   LIG    1        1.273  -2.611  -2.200  0.00  0.00    +0.090 A 
ATOM     20  C   LIG    1        0.660  -1.993  -1.126  0.00  0.00    -0.220 A 
BRANCH  17  21
ATOM     21  C   LIG    1        2.386   0.352  -4.226  0.00  0.00    +0.050 A 
ATOM     22  N   LIG    1        2.409   1.684  -4.304  0.00  0.00    -0.360 NA
ATOM     23  N   LIG    1        3.026   1.998  -5.392  0.00  0.00    -0.180 NA
ATOM     24  N   LIG    1        3.382   0.923  -6.003  0.00  0.00    -0.170 NA
ATOM     25  N   LIG    1        3.006  -0.102  -5.317  0.00  0.00    -0.350 NA
ENDBRANCH  17  21
BRANCH  15  27
ATOM     26  C   LIG    1       -0.017   1.425   0.010  0.00  0.00    +0.250 C 
ATOM     27  O   LIG    1        0.002  -0.004   0.002  0.00  0.00    -0.330 OA
ENDBRANCH  15  27
ENDBRANCH   1  20
TORSDOF 5
