REMARK  Name = ZINCpk00000xU4BW.0
REMARK                            x       y       z     vdW  Elec       q    Type
REMARK                         _______ _______ _______ _____ _____    ______ ____
ROOT
ATOM      1  N   LIG    1        2.071   9.588   0.145  0.00  0.00    -0.590 N 
ATOM      2  C   LIG    1        1.000  10.083   0.767  0.00  0.00    +0.520 C 
ATOM      3  C   LIG    1       -0.135   9.235   1.266  0.00  0.00    +0.070 C 
ATOM      4  C   LIG    1        0.308   7.772   1.355  0.00  0.00    +0.040 C 
ATOM      5  C   LIG    1        0.985   7.389   0.034  0.00  0.00    -0.010 C 
ATOM      6  O   LIG    1        0.940  11.282   0.939  0.00  0.00    -0.540 OA
ATOM      7  C   LIG    1        2.296   8.166  -0.091  0.00  0.00    +0.340 C 
ENDROOT
BRANCH   7   8
ATOM      8  C   LIG    1        2.861   7.971  -1.475  0.00  0.00    +0.180 A 
ATOM      9  N   LIG    1        2.415   8.534  -2.565  0.00  0.00    -0.470 NA
ATOM     10  C   LIG    1        3.158   8.131  -3.607  0.00  0.00    +0.140 A 
ATOM     11  C   LIG    1        4.100   7.287  -3.144  0.00  0.00    +0.140 A 
ATOM     12  N   LIG    1        3.916   7.190  -1.792  0.00  0.00    -0.450 N 
ATOM     13  C   LIG    1        4.712   6.385  -0.861  0.00  0.00    +0.330 C 
ENDBRANCH   7   8
BRANCH   1  15
ATOM     14  C   LIG    1        4.125  10.762   0.761  0.00  0.00    +0.020 C 
ATOM     15  C   LIG    1        3.084  10.531  -0.335  0.00  0.00    +0.280 C 
ENDBRANCH   1  15
BRANCH   5  16
ATOM     16  C   LIG    1        1.276   5.887   0.022  0.00  0.00    +0.290 C 
BRANCH  16  17
ATOM     17  N   LIG    1        0.013   5.145   0.030  0.00  0.00    -0.700 N 
ATOM     18  H   LIG    1       -0.831   5.624   0.041  0.00  0.00    +0.410 HD
BRANCH  17  19
ATOM     19  C   LIG    1        0.023   3.761   0.022  0.00  0.00    +0.410 A 
ATOM     20  N   LIG    1        1.175   3.103   0.007  0.00  0.00    -0.490 NA
ATOM     21  C   LIG    1        1.180   1.781   0.000  0.00  0.00    +0.320 A 
ATOM     22  C   LIG    1       -0.013   1.076   0.008  0.00  0.00    +0.170 A 
ATOM     23  N   LIG    1       -1.165   1.716   0.017  0.00  0.00    -0.360 NA
ATOM     24  C   LIG    1       -1.187   3.046   0.030  0.00  0.00    +0.070 A 
BRANCH  24  25
ATOM     25  C   LIG    1       -2.437   3.745   0.046  0.00  0.00    +0.260 C 
ATOM     26  N   LIG    1       -3.428   4.300   0.059  0.00  0.00    -0.380 NA
ENDBRANCH  24  25
ENDBRANCH  17  19
ENDBRANCH  16  17
ENDBRANCH   5  16
TORSDOF 6
