REMARK  Name = ZINCqH0000001HzW.0
REMARK                            x       y       z     vdW  Elec       q    Type
REMARK                         _______ _______ _______ _____ _____    ______ ____
ROOT
ATOM      1  C   LIG    1        0.111  -0.208   0.290  0.00  0.00    +0.480 C 
ATOM      2  O   LIG    1        1.164  -0.792   0.391  0.00  0.00    -0.490 OA
ENDROOT
BRANCH   1   3
ATOM      3  O   LIG    1        0.095   1.128   0.162  0.00  0.00    -0.320 OA
BRANCH   3  10
ATOM      4  C   LIG    1        1.283   3.074  -0.697  0.00  0.00    +0.010 C 
ATOM      5  C   LIG    1        0.221   4.003  -0.106  0.00  0.00    +0.030 C 
ATOM      6  C   LIG    1        0.610   4.377   1.326  0.00  0.00    +0.010 C 
ATOM      7  C   LIG    1        0.707   3.108   2.176  0.00  0.00    -0.020 C 
ATOM      8  C   LIG    1        1.769   2.179   1.585  0.00  0.00    +0.020 C 
ATOM      9  C   LIG    1       -0.647   2.395   2.185  0.00  0.00    +0.010 C 
ATOM     10  C   LIG    1        1.380   1.805   0.153  0.00  0.00    +0.190 C 
BRANCH   4  12
ATOM     11  C   LIG    1        0.796   3.968  -2.978  0.00  0.00    +0.020 C 
ATOM     12  C   LIG    1        0.893   2.700  -2.128  0.00  0.00    -0.010 C 
ATOM     13  C   LIG    1        1.956   1.770  -2.719  0.00  0.00    +0.020 C 
ENDBRANCH   4  12
ENDBRANCH   3  10
ENDBRANCH   1   3
BRANCH   1  14
ATOM     14  C   LIG    1       -1.183  -0.979   0.307  0.00  0.00    +0.140 C 
BRANCH  14  15
ATOM     15  S   LIG    1       -0.832  -2.745   0.490  0.00  0.00    +0.130 S 
BRANCH  15  16
ATOM     16  C   LIG    1       -2.473  -3.386   0.480  0.00  0.00    +0.200 A 
ATOM     17  N   LIG    1       -3.585  -2.691   0.371  0.00  0.00    -0.330 NA
ATOM     18  N   LIG    1       -4.607  -3.468   0.396  0.00  0.00    -0.020 NA
ATOM     19  N   LIG    1       -4.237  -4.696   0.528  0.00  0.00    -0.070 NA
ATOM     20  N   LIG    1       -2.833  -4.695   0.589  0.00  0.00    -0.310 N 
BRANCH  20  21
ATOM     21  C   LIG    1       -1.985  -5.803   0.730  0.00  0.00    +0.120 A 
ATOM     22  C   LIG    1       -0.755  -5.825   0.087  0.00  0.00    +0.030 A 
ATOM     23  C   LIG    1        0.080  -6.915   0.233  0.00  0.00    +0.050 A 
ATOM     24  C   LIG    1       -0.313  -7.990   1.009  0.00  0.00    +0.040 A 
ATOM     25  C   LIG    1       -1.540  -7.974   1.646  0.00  0.00    +0.040 A 
ATOM     26  C   LIG    1       -2.377  -6.884   1.509  0.00  0.00    +0.050 A 
ENDBRANCH  20  21
ENDBRANCH  15  16
ENDBRANCH  14  15
ENDBRANCH   1  14
TORSDOF 7
