REMARK  Name = ZINCpk00000KfLfq.0
REMARK                            x       y       z     vdW  Elec       q    Type
REMARK                         _______ _______ _______ _____ _____    ______ ____
ROOT
ATOM      1  N   LIG    1        1.783   5.663   0.014  0.00  0.00    -0.440 N 
ATOM      2  N   LIG    1        2.223   4.331   0.009  0.00  0.00    -0.240 NA
ATOM      3  C   LIG    1        1.170   3.565   0.009  0.00  0.00    +0.290 A 
ATOM      4  O   LIG    1        0.062   4.339   0.024  0.00  0.00    -0.270 OA
ATOM      5  C   LIG    1        0.434   5.629   0.027  0.00  0.00    +0.610 A 
ATOM      6  O   LIG    1       -0.310   6.593   0.040  0.00  0.00    -0.480 OA
ENDROOT
BRANCH   3   7
ATOM      7  C   LIG    1        1.184   2.087   0.002  0.00  0.00    -0.050 A 
ATOM      8  C   LIG    1       -0.017   1.375   0.010  0.00  0.00    +0.110 A 
ATOM      9  C   LIG    1        0.002  -0.004   0.002  0.00  0.00    -0.010 A 
ATOM     10  C   LIG    1        1.210  -0.683  -0.013  0.00  0.00    +0.130 A 
ATOM     11  C   LIG    1        2.405   0.019  -0.020  0.00  0.00    +0.000 A 
ATOM     12  F   LIG    1        1.223  -2.034  -0.021  0.00  0.00    -0.130 F 
ATOM     13  C   LIG    1        2.397   1.398  -0.012  0.00  0.00    +0.120 A 
ENDBRANCH   3   7
BRANCH   1  14
ATOM     14  C   LIG    1        2.627   6.860   0.013  0.00  0.00    +0.520 C 
BRANCH  14  18
ATOM     15  C   LIG    1        4.160   8.520   3.643  0.00  0.00    -0.010 C 
ATOM     16  C   LIG    1        5.122   7.864   2.648  0.00  0.00    +0.060 C 
ATOM     17  C   LIG    1        4.465   7.814   1.267  0.00  0.00    +0.190 C 
ATOM     18  N   LIG    1        3.215   7.047   1.346  0.00  0.00    -0.550 NA
ATOM     19  C   LIG    1        2.257   7.684   2.259  0.00  0.00    +0.180 C 
ATOM     20  C   LIG    1        2.849   7.730   3.670  0.00  0.00    +0.040 C 
BRANCH  15  23
ATOM     21  C   LIG    1        4.707   9.046   7.395  0.00  0.00    +0.290 C 
ATOM     22  N   LIG    1        4.107   9.048   6.058  0.00  0.00    -0.620 N 
ATOM     23  C   LIG    1        4.778   8.518   5.017  0.00  0.00    +0.520 C 
ATOM     24  O   LIG    1        5.879   8.038   5.186  0.00  0.00    -0.530 OA
ATOM     25  C   LIG    1        2.777   9.627   5.854  0.00  0.00    +0.270 C 
ENDBRANCH  15  23
ENDBRANCH  14  18
ENDBRANCH   1  14
TORSDOF 4
