REMARK  Name = ZINCpe000000Z4io.0
REMARK                            x       y       z     vdW  Elec       q    Type
REMARK                         _______ _______ _______ _____ _____    ______ ____
ROOT
ATOM      1  O   LIG    1        0.799   0.741   7.463  0.00  0.00    -0.530 OA
ATOM      2  C   LIG    1       -0.065   1.581   7.327  0.00  0.00    +0.530 C 
ATOM      3  N   LIG    1       -0.513   1.894   6.095  0.00  0.00    -0.730 N 
ATOM      4  H   LIG    1       -1.204   2.566   5.987  0.00  0.00    +0.400 HD
ENDROOT
BRANCH   2   5
ATOM      5  C   LIG    1       -0.637   2.276   8.536  0.00  0.00    +0.000 C 
ATOM      6  C   LIG    1       -0.374   3.799   8.475  0.00  0.00    +0.070 C 
ATOM      7  C   LIG    1       -0.098   4.185   9.912  0.00  0.00    +0.520 C 
ATOM      8  N   LIG    1        0.174   3.090  10.641  0.00  0.00    -0.610 N 
ATOM      9  O   LIG    1       -0.118   5.319  10.342  0.00  0.00    -0.520 OA
ATOM     10  C   LIG    1        0.127   1.876   9.817  0.00  0.00    +0.300 C 
BRANCH   8  11
ATOM     11  C   LIG    1        0.479   3.105  12.074  0.00  0.00    +0.350 C 
BRANCH  11  12
ATOM     12  C   LIG    1       -0.798   2.965  12.861  0.00  0.00    -0.110 A 
ATOM     13  C   LIG    1       -1.504   4.091  13.240  0.00  0.00    +0.030 A 
ATOM     14  C   LIG    1       -2.678   3.962  13.958  0.00  0.00    +0.000 A 
ATOM     15  C   LIG    1       -3.142   2.707  14.305  0.00  0.00    +0.010 A 
ATOM     16  C   LIG    1       -2.433   1.581  13.930  0.00  0.00    +0.000 A 
ATOM     17  C   LIG    1       -1.262   1.709  13.208  0.00  0.00    +0.010 A 
ENDBRANCH  11  12
ENDBRANCH   8  11
ENDBRANCH   2   5
BRANCH   3  18
ATOM     18  C   LIG    1        0.043   1.218   4.920  0.00  0.00    +0.260 C 
BRANCH  18  19
ATOM     19  C   LIG    1       -0.634   1.753   3.657  0.00  0.00    +0.010 C 
BRANCH  19  20
ATOM     20  C   LIG    1       -0.053   1.047   2.430  0.00  0.00    +0.180 C 
BRANCH  20  21
ATOM     21  N   LIG    1       -0.703   1.561   1.216  0.00  0.00    -0.540 NA
ATOM     22  C   LIG    1       -0.013   1.086   0.008  0.00  0.00    +0.150 C 
ATOM     23  C   LIG    1       -0.755   1.594  -1.231  0.00  0.00    +0.220 C 
ATOM     24  O   LIG    1       -0.837   3.021  -1.180  0.00  0.00    -0.390 OA
ATOM     25  C   LIG    1       -1.504   3.518  -0.017  0.00  0.00    +0.220 C 
ATOM     26  C   LIG    1       -0.769   3.029   1.235  0.00  0.00    +0.140 C 
ENDBRANCH  20  21
ENDBRANCH  19  20
ENDBRANCH  18  19
ENDBRANCH   3  18
TORSDOF 7
