REMARK  Name = ZINCpk00000y6wSk.0
REMARK                            x       y       z     vdW  Elec       q    Type
REMARK                         _______ _______ _______ _____ _____    ______ ____
ROOT
ATOM      1  C   LIG    1        3.399   2.409  -0.630  0.00  0.00    +0.050 C 
ATOM      2  C   LIG    1        2.775   3.698  -0.033  0.00  0.00    +0.060 C 
ATOM      3  C   LIG    1        1.268   3.366   0.002  0.00  0.00    +0.230 C 
ATOM      4  N   LIG    1        1.143   1.901   0.001  0.00  0.00    -0.620 N 
ATOM      5  C   LIG    1       -0.014   1.212   0.009  0.00  0.00    +0.610 C 
ATOM      6  O   LIG    1        0.002  -0.004   0.002  0.00  0.00    -0.530 OA
ATOM      7  C   LIG    1        2.495   1.312  -0.015  0.00  0.00    +0.280 C 
ENDROOT
BRANCH   1  10
ATOM      8  C   LIG    1        6.368   2.127   1.534  0.00  0.00    +0.640 A 
ATOM      9  N   LIG    1        5.127   2.269   1.113  0.00  0.00    -0.590 NA
ATOM     10  C   LIG    1        4.829   2.244  -0.184  0.00  0.00    +0.240 A 
ATOM     11  C   LIG    1        5.815   2.063  -1.110  0.00  0.00    -0.190 A 
ATOM     12  C   LIG    1        7.142   1.917  -0.670  0.00  0.00    +0.540 A 
ATOM     13  O   LIG    1        8.049   1.758  -1.470  0.00  0.00    -0.540 OA
ATOM     14  N   LIG    1        7.393   1.949   0.657  0.00  0.00    -0.650 N 
ATOM     15  H   LIG    1        8.300   1.847   0.983  0.00  0.00    +0.410 HD
BRANCH   8  17
ATOM     16  C   LIG    1        5.536   2.350   3.833  0.00  0.00    +0.330 C 
ATOM     17  N   LIG    1        6.630   2.159   2.877  0.00  0.00    -0.590 N 
ATOM     18  C   LIG    1        8.005   2.002   3.359  0.00  0.00    +0.310 C 
ENDBRANCH   8  17
ENDBRANCH   1  10
BRANCH   5  19
ATOM     19  C   LIG    1       -1.301   1.932   0.019  0.00  0.00    -0.280 A 
ATOM     20  C   LIG    1       -1.474   3.301   0.026  0.00  0.00    +0.290 A 
ATOM     21  N   LIG    1       -2.795   3.539   0.034  0.00  0.00    -0.460 N 
ATOM     22  H   LIG    1       -3.213   4.415   0.041  0.00  0.00    +0.450 HD
ATOM     23  N   LIG    1       -3.467   2.312   0.031  0.00  0.00    -0.290 NA
ATOM     24  C   LIG    1       -2.588   1.349   0.016  0.00  0.00    +0.170 A 
BRANCH  24  25
ATOM     25  C   LIG    1       -2.892  -0.127   0.002  0.00  0.00    +0.050 C 
ATOM     26  C   LIG    1       -4.349  -0.547  -0.202  0.00  0.00    +0.030 C 
ATOM     27  C   LIG    1       -3.696  -0.694   1.174  0.00  0.00    +0.030 C 
ENDBRANCH  24  25
ENDBRANCH   5  19
TORSDOF 4
