REMARK  Name = ZINCvU0000000BhV.0
REMARK                            x       y       z     vdW  Elec       q    Type
REMARK                         _______ _______ _______ _____ _____    ______ ____
ROOT
ATOM      1  C   LIG    1       -0.217   0.149  -0.339  0.00  0.00    -0.650 A 
ATOM      2  C   LIG    1       -0.404  -0.657   0.769  0.00  0.00    +0.200 A 
ATOM      3  C   LIG    1       -0.570  -2.019   0.614  0.00  0.00    +0.100 A 
ATOM      4  C   LIG    1       -0.549  -2.579  -0.657  0.00  0.00    -0.080 A 
ATOM      5  C   LIG    1       -0.361  -1.766  -1.768  0.00  0.00    -0.020 A 
ATOM      6  C   LIG    1       -0.201  -0.405  -1.606  0.00  0.00    +0.220 A 
ENDROOT
BRANCH   1   7
ATOM      7  S   LIG    1       -0.005   1.886  -0.136  0.00  0.00    +2.690 S 
ATOM      8  O   LIG    1       -0.700   2.239   1.052  0.00  0.00    -0.930 OA
ATOM      9  O   LIG    1       -0.279   2.474  -1.400  0.00  0.00    -0.930 OA
BRANCH   7  10
ATOM     10  N   LIG    1        1.601   2.153   0.166  0.00  0.00    -1.050 N 
ATOM     11  H   LIG    1        2.126   2.694  -0.445  0.00  0.00    +0.430 HD
BRANCH  10  15
ATOM     12  C   LIG    1        3.390   0.496   3.547  0.00  0.00    +0.130 A 
ATOM     13  C   LIG    1        4.024   0.412   2.316  0.00  0.00    +0.010 A 
ATOM     14  C   LIG    1        3.432   0.961   1.195  0.00  0.00    +0.060 A 
ATOM     15  C   LIG    1        2.202   1.597   1.301  0.00  0.00    +0.090 A 
ATOM     16  C   LIG    1        1.570   1.685   2.534  0.00  0.00    +0.050 A 
ATOM     17  C   LIG    1        2.161   1.131   3.653  0.00  0.00    -0.050 A 
BRANCH  12  19
ATOM     18  C   LIG    1        3.264   0.078   5.885  0.00  0.00    +0.240 C 
ATOM     19  O   LIG    1        3.973  -0.045   4.650  0.00  0.00    -0.310 OA
ENDBRANCH  12  19
ENDBRANCH  10  15
ENDBRANCH   7  10
ENDBRANCH   1   7
BRANCH   5  20
ATOM     20  N   LIG    1       -0.338  -2.359  -3.125  0.00  0.00    +0.020 N 
ATOM     21  O   LIG    1       -0.484  -3.560  -3.268  0.00  0.00    -0.120 OA
ATOM     22  O   LIG    1       -0.173  -1.645  -4.098  0.00  0.00    -0.140 OA
ENDBRANCH   5  20
BRANCH   4  23
ATOM     23  S   LIG    1       -0.760  -4.317  -0.860  0.00  0.00    +0.200 S 
BRANCH  23  24
ATOM     24  C   LIG    1       -2.434  -4.360  -1.408  0.00  0.00    +0.080 A 
ATOM     25  N   LIG    1       -3.055  -5.422  -1.796  0.00  0.00    -0.430 NA
ATOM     26  C   LIG    1       -4.338  -5.294  -2.187  0.00  0.00    +0.090 A 
ATOM     27  C   LIG    1       -5.224  -6.290  -2.648  0.00  0.00    +0.080 A 
ATOM     28  C   LIG    1       -6.509  -5.967  -3.006  0.00  0.00    +0.040 A 
ATOM     29  C   LIG    1       -6.957  -4.658  -2.920  0.00  0.00    +0.050 A 
ATOM     30  C   LIG    1       -6.110  -3.668  -2.471  0.00  0.00    +0.060 A 
ATOM     31  C   LIG    1       -4.803  -3.978  -2.104  0.00  0.00    -0.160 A 
ATOM     32  S   LIG    1       -3.498  -2.963  -1.496  0.00  0.00    +0.040 S 
ENDBRANCH  23  24
ENDBRANCH   4  23
TORSDOF 7
