REMARK  Name = ZINCpe00000bFopL.0
REMARK                            x       y       z     vdW  Elec       q    Type
REMARK                         _______ _______ _______ _____ _____    ______ ____
ROOT
ATOM      1  C   LIG    1        6.067  -0.977  -0.310  0.00  0.00    +0.210 C 
ATOM      2  C   LIG    1        7.459  -0.363  -0.050  0.00  0.00    +0.060 C 
ATOM      3  C   LIG    1        7.120   1.071   0.432  0.00  0.00    +0.040 C 
ATOM      4  C   LIG    1        5.879   1.405  -0.433  0.00  0.00    +0.250 C 
ATOM      5  N   LIG    1        5.133   0.138  -0.528  0.00  0.00    -0.610 N 
ATOM      6  C   LIG    1        3.812   0.020  -0.768  0.00  0.00    +0.610 C 
ATOM      7  O   LIG    1        3.278  -1.072  -0.710  0.00  0.00    -0.520 OA
ENDROOT
BRANCH   6   8
ATOM      8  C   LIG    1        3.016   1.211  -1.102  0.00  0.00    -0.210 A 
ATOM      9  C   LIG    1        3.035   1.723  -2.364  0.00  0.00    +0.320 A 
ATOM     10  N   LIG    1        2.317   2.819  -2.710  0.00  0.00    -0.620 N 
ATOM     11  H   LIG    1        2.368   3.141  -3.623  0.00  0.00    +0.420 HD
ATOM     12  C   LIG    1        1.534   3.478  -1.835  0.00  0.00    +0.550 A 
ATOM     13  C   LIG    1        1.442   3.007  -0.447  0.00  0.00    -0.150 A 
ATOM     14  C   LIG    1        0.648   3.653   0.500  0.00  0.00    +0.100 A 
ATOM     15  C   LIG    1        0.599   3.169   1.789  0.00  0.00    +0.000 A 
ATOM     16  C   LIG    1        1.332   2.047   2.153  0.00  0.00    +0.060 A 
ATOM     17  C   LIG    1        2.123   1.395   1.232  0.00  0.00    +0.010 A 
ATOM     18  O   LIG    1        0.910   4.461  -2.190  0.00  0.00    -0.510 OA
ATOM     19  C   LIG    1        2.187   1.867  -0.075  0.00  0.00    +0.030 A 
ENDBRANCH   6   8
BRANCH   1  20
ATOM     20  C   LIG    1        6.116  -1.865  -1.555  0.00  0.00    +0.260 C 
BRANCH  20  22
ATOM     21  C   LIG    1        4.656  -3.440  -2.706  0.00  0.00    +0.510 C 
ATOM     22  N   LIG    1        4.907  -2.690  -1.614  0.00  0.00    -0.720 N 
ATOM     23  H   LIG    1        4.288  -2.697  -0.868  0.00  0.00    +0.410 HD
ATOM     24  O   LIG    1        5.431  -3.431  -3.639  0.00  0.00    -0.530 OA
BRANCH  21  25
ATOM     25  C   LIG    1        3.413  -4.289  -2.767  0.00  0.00    +0.200 C 
BRANCH  25  27
ATOM     26  C   LIG    1        2.226  -5.823  -4.175  0.00  0.00    +0.200 C 
ATOM     27  O   LIG    1        3.372  -4.985  -4.014  0.00  0.00    -0.370 OA
ENDBRANCH  25  27
ENDBRANCH  21  25
ENDBRANCH  20  22
ENDBRANCH   1  20
TORSDOF 5
