REMARK  Name = ZINCb70000003YNU.0
REMARK                            x       y       z     vdW  Elec       q    Type
REMARK                         _______ _______ _______ _____ _____    ______ ____
ROOT
ATOM      1  C   LIG    1        0.195   2.364  -2.032  0.00  0.00    +0.100 C 
ATOM      2  C   LIG    1       -0.735   1.498  -1.179  0.00  0.00    +0.060 C 
ATOM      3  C   LIG    1       -1.922   2.343  -0.673  0.00  0.00    +0.130 C 
ATOM      4  C   LIG    1       -1.476   2.751   0.756  0.00  0.00    -0.460 C 
ATOM      5  C   LIG    1       -0.714   1.486   1.216  0.00  0.00    +0.310 C 
ATOM      6  C   LIG    1       -1.251   0.316  -2.002  0.00  0.00    +0.110 C 
ATOM      7  N   LIG    1       -0.012   1.005   0.008  0.00  0.00    -0.510 N 
ATOM      8  H   LIG    1        0.933   1.358   0.000  0.00  0.00    +0.430 HD
ATOM      9  H   LIG    1        0.002  -0.004   0.002  0.00  0.00    +0.430 HD
ENDROOT
BRANCH   4  10
ATOM     10  S   LIG    1       -2.912   3.068   1.819  0.00  0.00    +2.440 S 
ATOM     11  O   LIG    1       -3.620   1.849   1.998  0.00  0.00    -0.920 OA
ATOM     12  O   LIG    1       -3.603   4.205   1.320  0.00  0.00    -0.900 OA
ATOM     13  C   LIG    1       -2.123   3.514   3.391  0.00  0.00    -0.230 C 
ENDBRANCH   4  10
TORSDOF 1
