REMARK  Name = ZINCpk000000nRFN.0
REMARK                            x       y       z     vdW  Elec       q    Type
REMARK                         _______ _______ _______ _____ _____    ______ ____
ROOT
ATOM      1  C   LIG    1        1.268   1.974   0.001  0.00  0.00    +0.510 C 
ATOM      2  N   LIG    1        2.445   1.316  -0.014  0.00  0.00    -0.700 N 
ATOM      3  H   LIG    1        2.458   0.346  -0.020  0.00  0.00    +0.420 HD
ATOM      4  O   LIG    1        1.252   3.188   0.007  0.00  0.00    -0.510 OA
ENDROOT
BRANCH   1   7
ATOM      5  N   LIG    1       -1.191   1.868   0.018  0.00  0.00    -0.610 N 
ATOM      6  H   LIG    1       -1.204   2.838   0.023  0.00  0.00    +0.420 HD
ATOM      7  C   LIG    1       -0.014   1.210   0.009  0.00  0.00    +0.510 C 
ATOM      8  O   LIG    1        0.002  -0.004   0.002  0.00  0.00    -0.510 OA
BRANCH   5  11
ATOM      9  N   LIG    1       -4.530   0.658   0.027  0.00  0.00    -0.360 N 
ATOM     10  C   LIG    1       -3.647   1.682   0.029  0.00  0.00    +0.220 A 
ATOM     11  C   LIG    1       -2.398   1.149   0.020  0.00  0.00    -0.020 A 
ATOM     12  C   LIG    1       -2.528  -0.248   0.007  0.00  0.00    +0.260 A 
ATOM     13  N   LIG    1       -3.803  -0.540   0.017  0.00  0.00    -0.280 NA
BRANCH   9  15
ATOM     14  C   LIG    1       -6.481   0.939   1.474  0.00  0.00    +0.040 C 
ATOM     15  C   LIG    1       -5.990   0.779   0.034  0.00  0.00    +0.270 C 
ATOM     16  C   LIG    1       -6.404   2.003  -0.785  0.00  0.00    +0.060 C 
ENDBRANCH   9  15
ENDBRANCH   5  11
ENDBRANCH   1   7
BRANCH   2  17
ATOM     17  C   LIG    1        3.703   2.066  -0.022  0.00  0.00    +0.310 C 
BRANCH  17  18
ATOM     18  C   LIG    1        4.880   1.087  -0.039  0.00  0.00    -0.250 C 
BRANCH  18  19
ATOM     19  S   LIG    1        6.438   2.016  -0.049  0.00  0.00    +1.270 S 
ATOM     20  O   LIG    1        6.552   2.763   1.155  0.00  0.00    -0.830 OA
BRANCH  19  21
ATOM     21  C   LIG    1        7.693   0.706  -0.068  0.00  0.00    -0.180 C 
BRANCH  21  22
ATOM     22  C   LIG    1        9.066   1.326  -0.077  0.00  0.00    -0.070 A 
ATOM     23  C   LIG    1        9.687   1.612  -1.279  0.00  0.00    +0.020 A 
ATOM     24  C   LIG    1       10.945   2.186  -1.288  0.00  0.00    +0.010 A 
ATOM     25  C   LIG    1       11.586   2.464  -0.095  0.00  0.00    +0.000 A 
ATOM     26  C   LIG    1       10.968   2.173   1.106  0.00  0.00    +0.000 A 
ATOM     27  C   LIG    1        9.708   1.605   1.115  0.00  0.00    +0.010 A 
ENDBRANCH  21  22
ENDBRANCH  19  21
ENDBRANCH  18  19
ENDBRANCH  17  18
ENDBRANCH   2  17
TORSDOF 8
