REMARK  Name = ZINCrD00000F5LE9.0
REMARK                            x       y       z     vdW  Elec       q    Type
REMARK                         _______ _______ _______ _____ _____    ______ ____
ROOT
ATOM      1  N   LIG    1        1.159   1.924  -0.011  0.00  0.00    -0.670 N 
ATOM      2  H   LIG    1        1.152   2.891  -0.085  0.00  0.00    +0.410 HD
ATOM      3  C   LIG    1       -0.003   1.241   0.002  0.00  0.00    +0.520 C 
ATOM      4  O   LIG    1        0.006   0.028   0.010  0.00  0.00    -0.500 OA
ENDROOT
BRANCH   1   8
ATOM      5  C   LIG    1        4.783  -0.120   0.266  0.00  0.00    +0.130 A 
ATOM      6  C   LIG    1        3.717  -0.687  -0.420  0.00  0.00    +0.010 A 
ATOM      7  C   LIG    1        2.517  -0.010  -0.511  0.00  0.00    +0.040 A 
ATOM      8  C   LIG    1        2.376   1.237   0.083  0.00  0.00    +0.130 A 
ATOM      9  C   LIG    1        3.444   1.806   0.764  0.00  0.00    +0.010 A 
ATOM     10  C   LIG    1        4.642   1.127   0.860  0.00  0.00    +0.040 A 
BRANCH   5  13
ATOM     11  C   LIG    1        8.002  -1.528   1.619  0.00  0.00    +0.110 C 
ATOM     12  C   LIG    1        6.745  -0.710   1.478  0.00  0.00    +0.510 C 
ATOM     13  N   LIG    1        6.000  -0.806   0.358  0.00  0.00    -0.670 N 
ATOM     14  H   LIG    1        6.308  -1.351  -0.383  0.00  0.00    +0.410 HD
ATOM     15  O   LIG    1        6.404   0.036   2.371  0.00  0.00    -0.530 OA
ENDBRANCH   5  13
ENDBRANCH   1   8
BRANCH   3  16
ATOM     16  C   LIG    1       -1.314   1.984   0.001  0.00  0.00    +0.180 C 
ATOM     17  C   LIG    1       -1.454   2.774   1.303  0.00  0.00    +0.070 C 
BRANCH  16  18
ATOM     18  O   LIG    1       -2.391   1.050  -0.108  0.00  0.00    -0.320 OA
BRANCH  18  19
ATOM     19  C   LIG    1       -3.511   1.477  -0.727  0.00  0.00    +0.500 C 
ATOM     20  O   LIG    1       -3.571   2.611  -1.162  0.00  0.00    -0.510 OA
BRANCH  19  21
ATOM     21  C   LIG    1       -4.653   0.576  -0.874  0.00  0.00    -0.050 C 
ATOM     22  C   LIG    1       -5.774   1.003  -1.493  0.00  0.00    +0.140 C 
BRANCH  22  23
ATOM     23  C   LIG    1       -6.922   0.097  -1.642  0.00  0.00    -0.100 A 
ATOM     24  C   LIG    1       -6.854  -1.211  -1.147  0.00  0.00    +0.070 A 
ATOM     25  C   LIG    1       -7.936  -2.053  -1.284  0.00  0.00    -0.020 A 
ATOM     26  C   LIG    1       -9.086  -1.611  -1.921  0.00  0.00    +0.120 A 
ATOM     27  C   LIG    1       -9.158  -0.319  -2.418  0.00  0.00    -0.020 A 
ATOM     28  F   LIG    1      -10.142  -2.444  -2.057  0.00  0.00    -0.130 F 
ATOM     29  C   LIG    1       -8.086   0.536  -2.283  0.00  0.00    +0.080 A 
ENDBRANCH  22  23
ENDBRANCH  19  21
ENDBRANCH  18  19
ENDBRANCH  16  18
ENDBRANCH   3  16
TORSDOF 7
