REMARK  Name = ZINCkj000005kSys.0
REMARK                            x       y       z     vdW  Elec       q    Type
REMARK                         _______ _______ _______ _____ _____    ______ ____
ROOT
ATOM      1  C   LIG    1       -1.300   2.128   0.020  0.00  0.00    +0.580 C 
ATOM      2  N   LIG    1       -2.462   1.453  -0.080  0.00  0.00    -0.610 N 
ATOM      3  C   LIG    1       -2.475  -0.016  -0.096  0.00  0.00    +0.270 C 
ATOM      4  C   LIG    1       -3.241  -0.494  -1.328  0.00  0.00    +0.020 C 
ATOM      5  C   LIG    1       -4.631   0.148  -1.342  0.00  0.00    +0.050 C 
ATOM      6  C   LIG    1       -4.491   1.670  -1.418  0.00  0.00    -0.040 C 
ATOM      7  C   LIG    1       -3.739   2.172  -0.181  0.00  0.00    +0.280 C 
ATOM      8  O   LIG    1       -1.306   3.341   0.092  0.00  0.00    -0.520 OA
ENDROOT
BRANCH   1  16
ATOM      9  C   LIG    1        1.413  -2.333   2.649  0.00  0.00    +0.190 C 
ATOM     10  C   LIG    1        2.022  -1.460   1.581  0.00  0.00    +0.070 A 
ATOM     11  N   LIG    1        3.218  -1.546   1.079  0.00  0.00    -0.300 NA
ATOM     12  O   LIG    1        3.446  -0.714   0.232  0.00  0.00    +0.090 OA
ATOM     13  C   LIG    1        2.406   0.108   0.007  0.00  0.00    +0.240 A 
ATOM     14  N   LIG    1        2.183   1.136  -0.795  0.00  0.00    -0.450 NA
ATOM     15  C   LIG    1        1.032   1.772  -0.802  0.00  0.00    +0.390 A 
ATOM     16  C   LIG    1       -0.018   1.393   0.042  0.00  0.00    -0.210 A 
ATOM     17  C   LIG    1        0.166   0.312   0.910  0.00  0.00    +0.200 A 
ATOM     18  C   LIG    1        1.393  -0.332   0.887  0.00  0.00    -0.220 A 
ENDBRANCH   1  16
BRANCH   6  19
ATOM     19  C   LIG    1       -5.880   2.310  -1.466  0.00  0.00    +0.280 C 
BRANCH  19  20
ATOM     20  N   LIG    1       -5.745   3.760  -1.656  0.00  0.00    -0.640 N 
ATOM     21  H   LIG    1       -5.261   3.942  -2.522  0.00  0.00    +0.440 HD
ATOM     22  H   LIG    1       -5.220   4.152  -0.888  0.00  0.00    +0.430 HD
ATOM     23  H   LIG    1       -6.661   4.182  -1.688  0.00  0.00    +0.440 HD
ENDBRANCH  19  20
ENDBRANCH   6  19
TORSDOF 3
