REMARK  Name = ZINCpk000005C2hI.0
REMARK                            x       y       z     vdW  Elec       q    Type
REMARK                         _______ _______ _______ _____ _____    ______ ____
ROOT
ATOM      1  N   LIG    1        0.115   0.086  -0.064  0.00  0.00    -0.730 N 
ATOM      2  H   LIG    1       -0.286  -0.432   0.652  0.00  0.00    +0.400 HD
ATOM      3  C   LIG    1        0.721  -0.541  -1.091  0.00  0.00    +0.520 C 
ATOM      4  O   LIG    1        1.223   0.105  -1.986  0.00  0.00    -0.530 OA
ENDROOT
BRANCH   3   5
ATOM      5  C   LIG    1        0.777  -2.047  -1.127  0.00  0.00    +0.040 C 
ATOM      6  C   LIG    1        1.518  -2.560   0.109  0.00  0.00    +0.070 C 
BRANCH   5   7
ATOM      7  C   LIG    1        1.503  -2.493  -2.370  0.00  0.00    -0.120 A 
ATOM      8  C   LIG    1        2.813  -2.106  -2.581  0.00  0.00    +0.110 A 
ATOM      9  C   LIG    1        3.481  -2.514  -3.720  0.00  0.00    -0.020 A 
ATOM     10  C   LIG    1        2.838  -3.312  -4.651  0.00  0.00    +0.130 A 
ATOM     11  C   LIG    1        1.526  -3.702  -4.441  0.00  0.00    -0.040 A 
ATOM     12  F   LIG    1        3.491  -3.711  -5.765  0.00  0.00    -0.130 F 
ATOM     13  C   LIG    1        0.860  -3.296  -3.297  0.00  0.00    +0.140 A 
ATOM     14  F   LIG    1       -0.418  -3.679  -3.088  0.00  0.00    -0.130 F 
ENDBRANCH   5   7
ENDBRANCH   3   5
BRANCH   1  15
ATOM     15  C   LIG    1        0.061   1.550  -0.029  0.00  0.00    +0.260 C 
BRANCH  15  17
ATOM     16  C   LIG    1        0.130   1.597   2.469  0.00  0.00    +0.040 C 
ATOM     17  C   LIG    1       -0.677   2.002   1.233  0.00  0.00    -0.010 C 
BRANCH  17  18
ATOM     18  C   LIG    1       -0.843   3.523   1.209  0.00  0.00    +0.220 C 
BRANCH  18  19
ATOM     19  N   LIG    1       -1.654   3.946   2.358  0.00  0.00    -0.470 N 
ATOM     20  C   LIG    1       -3.029   3.442   2.245  0.00  0.00    +0.250 C 
BRANCH  19  21
ATOM     21  C   LIG    1       -1.639   5.323   2.496  0.00  0.00    +0.410 A 
ATOM     22  N   LIG    1       -1.972   6.203   1.578  0.00  0.00    -0.350 NA
ATOM     23  N   LIG    1       -1.846   7.397   2.033  0.00  0.00    -0.030 NA
ATOM     24  N   LIG    1       -1.431   7.370   3.253  0.00  0.00    -0.080 NA
ATOM     25  N   LIG    1       -1.286   6.016   3.603  0.00  0.00    -0.360 N 
ATOM     26  C   LIG    1       -0.844   5.472   4.889  0.00  0.00    +0.390 C 
ENDBRANCH  19  21
ENDBRANCH  18  19
ENDBRANCH  17  18
ENDBRANCH  15  17
ENDBRANCH   1  15
TORSDOF 7
