REMARK  Name = ZINCpk000000pH85.0
REMARK                            x       y       z     vdW  Elec       q    Type
REMARK                         _______ _______ _______ _____ _____    ______ ____
ROOT
ATOM      1  C   LIG    1       -4.700   1.376  -0.962  0.00  0.00    +0.250 C 
ENDROOT
BRANCH   1   6
ATOM      2  C   LIG    1       -0.013   1.086   0.008  0.00  0.00    +0.010 C 
ATOM      3  C   LIG    1       -0.838   1.637  -1.182  0.00  0.00    +0.270 C 
ATOM      4  N   LIG    1       -2.243   1.544  -0.741  0.00  0.00    -0.620 N 
ATOM      5  C   LIG    1       -2.277   1.550   0.729  0.00  0.00    +0.230 C 
ATOM      6  C   LIG    1       -3.317   1.467  -1.551  0.00  0.00    +0.520 C 
ATOM      7  O   LIG    1       -3.169   1.470  -2.755  0.00  0.00    -0.500 OA
ATOM      8  C   LIG    1       -0.816   1.624   1.221  0.00  0.00    +0.180 C 
BRANCH   2  10
ATOM      9  C   LIG    1        2.183   1.063  -1.185  0.00  0.00    +0.010 C 
ATOM     10  C   LIG    1        1.409   1.651  -0.003  0.00  0.00    +0.050 C 
ENDBRANCH   2  10
BRANCH   8  11
ATOM     11  O   LIG    1       -0.446   2.973   1.514  0.00  0.00    -0.550 OA
ATOM     12  H   LIG    1       -0.920   3.357   2.265  0.00  0.00    +0.380 HD
ENDBRANCH   8  11
ENDBRANCH   1   6
BRANCH   1  13
ATOM     13  N   LIG    1       -5.623   0.835  -1.963  0.00  0.00    -0.720 N 
ATOM     14  H   LIG    1       -6.101   0.010  -1.786  0.00  0.00    +0.400 HD
ATOM     15  C   LIG    1       -5.808   1.484  -3.129  0.00  0.00    +0.520 C 
ATOM     16  O   LIG    1       -5.211   2.516  -3.351  0.00  0.00    -0.510 OA
ATOM     17  C   LIG    1       -6.758   0.927  -4.159  0.00  0.00    +0.090 C 
ENDBRANCH   1  13
BRANCH   1  18
ATOM     18  C   LIG    1       -5.167   2.771  -0.539  0.00  0.00    +0.130 C 
BRANCH  18  19
ATOM     19  C   LIG    1       -6.497   2.665   0.161  0.00  0.00    -0.170 A 
ATOM     20  C   LIG    1       -7.708   2.825  -0.397  0.00  0.00    +0.230 A 
ATOM     21  N   LIG    1       -8.683   2.651   0.548  0.00  0.00    -0.590 N 
ATOM     22  H   LIG    1       -9.636   2.714   0.382  0.00  0.00    +0.420 HD
ATOM     23  C   LIG    1       -8.108   2.378   1.769  0.00  0.00    +0.100 A 
ATOM     24  C   LIG    1       -8.625   2.129   3.036  0.00  0.00    -0.010 A 
ATOM     25  C   LIG    1       -7.769   1.884   4.088  0.00  0.00    +0.030 A 
ATOM     26  C   LIG    1       -6.395   1.882   3.897  0.00  0.00    -0.020 A 
ATOM     27  C   LIG    1       -5.866   2.124   2.660  0.00  0.00    +0.050 A 
ATOM     28  C   LIG    1       -6.714   2.375   1.580  0.00  0.00    -0.100 A 
ENDBRANCH  18  19
ENDBRANCH   1  18
TORSDOF 6
