REMARK  Name = ZINCqH0000008lHf.0
REMARK                            x       y       z     vdW  Elec       q    Type
REMARK                         _______ _______ _______ _____ _____    ______ ____
ROOT
ATOM      1  C   LIG    1       -1.997   0.855   1.365  0.00  0.00    +0.200 C 
ENDROOT
BRANCH   1   4
ATOM      2  N   LIG    1       -4.137   1.181   2.561  0.00  0.00    -0.730 N 
ATOM      3  H   LIG    1       -4.464   0.374   2.132  0.00  0.00    +0.400 HD
ATOM      4  C   LIG    1       -2.888   1.619   2.311  0.00  0.00    +0.510 C 
ATOM      5  O   LIG    1       -2.480   2.627   2.847  0.00  0.00    -0.500 OA
BRANCH   2   7
ATOM      6  C   LIG    1       -4.718   1.481   4.918  0.00  0.00    +0.040 C 
ATOM      7  C   LIG    1       -5.003   1.923   3.481  0.00  0.00    +0.290 C 
BRANCH   7   8
ATOM      8  C   LIG    1       -6.446   1.645   3.147  0.00  0.00    -0.100 A 
ATOM      9  C   LIG    1       -6.839   0.368   2.790  0.00  0.00    +0.040 A 
ATOM     10  C   LIG    1       -8.163   0.111   2.488  0.00  0.00    -0.010 A 
ATOM     11  C   LIG    1       -9.094   1.135   2.533  0.00  0.00    +0.100 A 
ATOM     12  C   LIG    1       -8.698   2.414   2.885  0.00  0.00    -0.010 A 
ATOM     13  F   LIG    1      -10.388   0.885   2.233  0.00  0.00    -0.140 F 
ATOM     14  C   LIG    1       -7.375   2.668   3.191  0.00  0.00    +0.060 A 
ENDBRANCH   7   8
ENDBRANCH   2   7
ENDBRANCH   1   4
BRANCH   1  15
ATOM     15  N   LIG    1       -0.722   1.568   1.210  0.00  0.00    -0.510 NA
BRANCH  15  16
ATOM     16  C   LIG    1        0.100   1.445   2.422  0.00  0.00    +0.210 C 
BRANCH  16  17
ATOM     17  C   LIG    1        1.296   2.394   2.325  0.00  0.00    +0.150 C 
ATOM     18  C   LIG    1        2.242   2.192   3.530  0.00  0.00    +0.010 C 
ATOM     19  C   LIG    1        2.736   3.617   3.862  0.00  0.00    +0.000 C 
ATOM     20  C   LIG    1        2.031   4.512   2.819  0.00  0.00    +0.190 C 
ATOM     21  O   LIG    1        0.859   3.767   2.426  0.00  0.00    -0.340 OA
ENDBRANCH  16  17
ENDBRANCH  15  16
BRANCH  15  22
ATOM     22  C   LIG    1        0.008   1.091   0.028  0.00  0.00    +0.270 C 
BRANCH  22  23
ATOM     23  C   LIG    1       -0.619   1.666  -1.215  0.00  0.00    -0.170 A 
ATOM     24  C   LIG    1       -0.349   2.868  -1.727  0.00  0.00    +0.030 A 
ATOM     25  C   LIG    1       -1.047   3.181  -2.881  0.00  0.00    +0.010 A 
ATOM     26  C   LIG    1       -1.890   2.237  -3.301  0.00  0.00    -0.050 A 
ATOM     27  S   LIG    1       -1.823   0.859  -2.210  0.00  0.00    +0.080 S 
ENDBRANCH  22  23
ENDBRANCH  15  22
ENDBRANCH   1  15
TORSDOF 8
