REMARK  Name = ZINCkj000005iTih.2
REMARK                            x       y       z     vdW  Elec       q    Type
REMARK                         _______ _______ _______ _____ _____    ______ ____
ROOT
ATOM      1  N   LIG    1        5.792   0.326   0.677  0.00  0.00    -0.390 N 
ATOM      2  C   LIG    1        5.993  -0.214  -0.692  0.00  0.00    +0.270 C 
ATOM      3  C   LIG    1        4.554  -0.276  -1.263  0.00  0.00    +0.080 C 
ATOM      4  C   LIG    1        3.715  -0.707  -0.039  0.00  0.00    +0.070 C 
ATOM      5  C   LIG    1        4.561  -0.319   1.188  0.00  0.00    +0.270 C 
ATOM      6  H   LIG    1        5.673   1.327   0.643  0.00  0.00    +0.430 HD
ENDROOT
BRANCH   4   7
ATOM      7  C   LIG    1        2.399   0.028  -0.021  0.00  0.00    -0.170 A 
ATOM      8  C   LIG    1        1.210  -0.681  -0.014  0.00  0.00    +0.150 A 
ATOM      9  C   LIG    1        0.002  -0.004   0.002  0.00  0.00    +0.000 A 
ATOM     10  C   LIG    1       -0.017   1.378   0.010  0.00  0.00    +0.100 A 
ATOM     11  C   LIG    1        1.170   2.086   0.002  0.00  0.00    +0.000 A 
ATOM     12  F   LIG    1        1.228  -2.031  -0.022  0.00  0.00    -0.120 F 
ATOM     13  C   LIG    1        2.379   1.412  -0.013  0.00  0.00    +0.120 A 
ATOM     14  F   LIG    1        3.539   2.104  -0.021  0.00  0.00    -0.140 F 
ENDBRANCH   4   7
BRANCH   1  15
ATOM     15  C   LIG    1        6.937  -0.020   1.530  0.00  0.00    +0.270 C 
BRANCH  15  16
ATOM     16  C   LIG    1        8.185   0.709   1.030  0.00  0.00    +0.280 C 
BRANCH  16  17
ATOM     17  N   LIG    1        9.327   0.364   1.881  0.00  0.00    -1.120 NA
ATOM     18  H   LIG    1        9.180  -0.059   2.741  0.00  0.00    +0.430 HD
BRANCH  17  20
ATOM     19  C   LIG    1       10.937   2.509   1.298  0.00  0.00    -0.270 C 
ATOM     20  S   LIG    1       10.868   0.698   1.374  0.00  0.00    +2.620 S 
ATOM     21  O   LIG    1       10.936   0.141   0.069  0.00  0.00    -0.950 OA
ATOM     22  O   LIG    1       11.694   0.211   2.423  0.00  0.00    -0.940 OA
ENDBRANCH  17  20
ENDBRANCH  16  17
ENDBRANCH  15  16
ENDBRANCH   1  15
TORSDOF 5
