REMARK  Name = ZINCkj000005iTih.1
REMARK                            x       y       z     vdW  Elec       q    Type
REMARK                         _______ _______ _______ _____ _____    ______ ____
ROOT
ATOM      1  N   LIG    1       -0.012   1.005   0.008  0.00  0.00    -0.390 N 
ATOM      2  C   LIG    1        1.370   1.534  -0.003  0.00  0.00    +0.270 C 
ATOM      3  C   LIG    1        1.743   1.793  -1.474  0.00  0.00    +0.080 C 
ATOM      4  C   LIG    1        0.483   1.409  -2.284  0.00  0.00    +0.060 C 
ATOM      5  C   LIG    1       -0.650   1.515  -1.233  0.00  0.00    +0.270 C 
ATOM      6  H   LIG    1        0.002  -0.004   0.002  0.00  0.00    +0.430 HD
ENDROOT
BRANCH   4   7
ATOM      7  C   LIG    1        0.257   2.384  -3.412  0.00  0.00    -0.170 A 
ATOM      8  C   LIG    1        0.084   3.730  -3.140  0.00  0.00    +0.130 A 
ATOM      9  C   LIG    1       -0.119   4.625  -4.177  0.00  0.00    +0.000 A 
ATOM     10  C   LIG    1       -0.158   4.173  -5.482  0.00  0.00    +0.110 A 
ATOM     11  C   LIG    1        0.009   2.828  -5.755  0.00  0.00    +0.000 A 
ATOM     12  F   LIG    1        0.118   4.171  -1.863  0.00  0.00    -0.130 F 
ATOM     13  C   LIG    1        0.217   1.932  -4.719  0.00  0.00    +0.150 A 
ATOM     14  F   LIG    1        0.380   0.618  -4.986  0.00  0.00    -0.120 F 
ENDBRANCH   4   7
BRANCH   1  15
ATOM     15  C   LIG    1       -0.733   1.496   1.189  0.00  0.00    +0.270 C 
BRANCH  15  16
ATOM     16  C   LIG    1       -0.124   0.881   2.451  0.00  0.00    +0.280 C 
BRANCH  16  17
ATOM     17  N   LIG    1       -0.843   1.371   3.629  0.00  0.00    -1.120 NA
ATOM     18  H   LIG    1       -1.427   2.142   3.555  0.00  0.00    +0.430 HD
BRANCH  17  20
ATOM     19  C   LIG    1        1.081   0.875   5.522  0.00  0.00    -0.270 C 
ATOM     20  S   LIG    1       -0.660   0.608   5.088  0.00  0.00    +2.610 S 
ATOM     21  O   LIG    1       -0.897  -0.763   4.798  0.00  0.00    -0.950 OA
ATOM     22  O   LIG    1       -1.510   1.328   5.969  0.00  0.00    -0.940 OA
ENDBRANCH  17  20
ENDBRANCH  16  17
ENDBRANCH  15  16
ENDBRANCH   1  15
TORSDOF 5
