REMARK  Name = ZINCrH000004kfo0.0
REMARK                            x       y       z     vdW  Elec       q    Type
REMARK                         _______ _______ _______ _____ _____    ______ ____
ROOT
ATOM      1  N   LIG    1       -3.676   1.667   0.029  0.00  0.00    -0.660 N 
ATOM      2  H   LIG    1       -3.688   2.634   0.108  0.00  0.00    +0.420 HD
ATOM      3  C   LIG    1       -2.501   1.007   0.018  0.00  0.00    +0.560 C 
ATOM      4  O   LIG    1       -2.486  -0.209   0.012  0.00  0.00    -0.470 OA
ENDROOT
BRANCH   1   9
ATOM      5  C   LIG    1       -5.970  -1.071  -0.179  0.00  0.00    +0.110 A 
ATOM      6  C   LIG    1       -7.206  -0.439  -0.277  0.00  0.00    +0.010 A 
ATOM      7  C   LIG    1       -7.260   0.948  -0.272  0.00  0.00    +0.100 A 
ATOM      8  C   LIG    1       -6.077   1.656  -0.170  0.00  0.00    -0.040 A 
ATOM      9  C   LIG    1       -4.872   0.961  -0.075  0.00  0.00    +0.360 A 
ATOM     10  N   LIG    1       -4.852  -0.359  -0.087  0.00  0.00    -0.460 NA
BRANCH   5  14
ATOM     11  C   LIG    1       -4.636  -4.632  -0.090  0.00  0.00    +0.290 C 
ATOM     12  N   LIG    1       -4.706  -3.169  -0.087  0.00  0.00    -0.710 N 
ATOM     13  H   LIG    1       -3.893  -2.645  -0.017  0.00  0.00    +0.420 HD
ATOM     14  C   LIG    1       -5.900  -2.550  -0.182  0.00  0.00    +0.570 C 
ATOM     15  O   LIG    1       -6.919  -3.207  -0.270  0.00  0.00    -0.530 OA
ENDBRANCH   5  14
ENDBRANCH   1   9
BRANCH   3  16
ATOM     16  C   LIG    1       -1.233   1.760   0.014  0.00  0.00    -0.150 A 
ATOM     17  C   LIG    1       -0.013   1.076   0.003  0.00  0.00    +0.110 A 
ATOM     18  C   LIG    1        1.165   1.778  -0.006  0.00  0.00    +0.030 A 
ATOM     19  C   LIG    1        1.147   3.171   0.001  0.00  0.00    -0.060 A 
ATOM     20  C   LIG    1       -0.067   3.855   0.017  0.00  0.00    -0.010 A 
ATOM     21  C   LIG    1       -1.248   3.158   0.026  0.00  0.00    +0.070 A 
BRANCH  19  22
ATOM     22  S   LIG    1        2.662   4.071  -0.011  0.00  0.00    -0.070 S 
BRANCH  22  23
ATOM     23  C   LIG    1        2.111   5.799   0.003  0.00  0.00    +0.180 C 
BRANCH  23  24
ATOM     24  C   LIG    1        3.312   6.709  -0.005  0.00  0.00    +0.080 A 
ATOM     25  C   LIG    1        3.897   7.144   1.115  0.00  0.00    -0.060 A 
ATOM     26  S   LIG    1        5.252   8.172   0.654  0.00  0.00    +0.140 S 
ATOM     27  C   LIG    1        4.892   7.921  -0.999  0.00  0.00    +0.050 A 
ATOM     28  C   LIG    1        5.660   8.519  -2.149  0.00  0.00    +0.180 C 
ATOM     29  N   LIG    1        3.868   7.145  -1.118  0.00  0.00    -0.470 NA
ENDBRANCH  23  24
ENDBRANCH  22  23
ENDBRANCH  19  22
ENDBRANCH   3  16
TORSDOF 6
