REMARK  Name = ZINCrH000004rQlg.0
REMARK                            x       y       z     vdW  Elec       q    Type
REMARK                         _______ _______ _______ _____ _____    ______ ____
ROOT
ATOM      1  C   LIG    1        0.168  -0.205   2.384  0.00  0.00    -0.110 A 
ATOM      2  C   LIG    1        0.226  -0.908   3.555  0.00  0.00    +0.140 A 
ATOM      3  N   LIG    1        0.149  -0.004   4.556  0.00  0.00    -0.310 N 
ATOM      4  N   LIG    1        0.043   1.258   3.955  0.00  0.00    -0.050 NA
ATOM      5  C   LIG    1        0.351  -2.402   3.701  0.00  0.00    +0.200 C 
ATOM      6  N   LIG    1        0.063   1.103   2.677  0.00  0.00    -0.200 NA
ENDROOT
BRANCH   3   7
ATOM      7  C   LIG    1        0.171  -0.277   5.932  0.00  0.00    +0.100 A 
ATOM      8  C   LIG    1       -0.714   0.372   6.783  0.00  0.00    +0.090 A 
ATOM      9  C   LIG    1       -0.696   0.100   8.136  0.00  0.00    -0.030 A 
ATOM     10  C   LIG    1        0.214  -0.814   8.648  0.00  0.00    +0.120 A 
ATOM     11  C   LIG    1        1.102  -1.459   7.799  0.00  0.00    +0.030 A 
ATOM     12  C   LIG    1        1.081  -1.192   6.445  0.00  0.00    +0.080 A 
BRANCH  10  13
ATOM     13  O   LIG    1        0.236  -1.078   9.981  0.00  0.00    -0.310 OA
BRANCH  13  14
ATOM     14  C   LIG    1       -0.706  -0.378  10.796  0.00  0.00    +0.600 C 
ATOM     15  F   LIG    1       -2.005  -0.682  10.374  0.00  0.00    -0.200 F 
ATOM     16  F   LIG    1       -0.489   0.999  10.682  0.00  0.00    -0.190 F 
ENDBRANCH  13  14
ENDBRANCH  10  13
ENDBRANCH   3   7
BRANCH   1  18
ATOM     17  N   LIG    1        0.035   0.006  -0.048  0.00  0.00    -0.540 N 
ATOM     18  C   LIG    1        0.219  -0.783   1.028  0.00  0.00    +0.610 C 
ATOM     19  O   LIG    1        0.427  -1.972   0.882  0.00  0.00    -0.510 OA
ATOM     20  C   LIG    1       -0.089   1.456   0.119  0.00  0.00    +0.320 C 
BRANCH  17  26
ATOM     21  C   LIG    1       -0.153   0.584  -4.926  0.00  0.00    +0.100 C 
ATOM     22  C   LIG    1       -0.130  -0.302  -3.708  0.00  0.00    -0.060 A 
ATOM     23  C   LIG    1       -0.181  -1.676  -3.853  0.00  0.00    -0.020 A 
ATOM     24  C   LIG    1       -0.161  -2.493  -2.737  0.00  0.00    +0.040 A 
ATOM     25  C   LIG    1       -0.083  -1.939  -1.474  0.00  0.00    +0.000 A 
ATOM     26  C   LIG    1       -0.038  -0.559  -1.325  0.00  0.00    +0.150 A 
ATOM     27  C   LIG    1       -0.058   0.259  -2.448  0.00  0.00    -0.030 A 
ENDBRANCH  17  26
ENDBRANCH   1  18
TORSDOF 5
