REMARK  Name = ZINCrH000004uyI8.0
REMARK                            x       y       z     vdW  Elec       q    Type
REMARK                         _______ _______ _______ _____ _____    ______ ____
ROOT
ATOM      1  O   LIG    1        4.661   1.454  -0.034  0.00  0.00    -0.520 OA
ATOM      2  C   LIG    1        3.610   2.065  -0.021  0.00  0.00    +0.580 C 
ATOM      3  N   LIG    1        3.614   3.412  -0.014  0.00  0.00    -0.720 N 
ATOM      4  H   LIG    1        2.775   3.900  -0.003  0.00  0.00    +0.400 HD
ENDROOT
BRANCH   2   5
ATOM      5  C   LIG    1        2.329   1.330  -0.013  0.00  0.00    -0.260 A 
ATOM      6  C   LIG    1        1.107   2.016   0.002  0.00  0.00    +0.360 A 
ATOM      7  N   LIG    1       -0.016   1.323   0.009  0.00  0.00    -0.510 NA
ATOM      8  C   LIG    1        0.002  -0.004   0.002  0.00  0.00    +0.390 A 
ATOM      9  N   LIG    1        1.138  -0.690  -0.013  0.00  0.00    -0.510 NA
ATOM     10  C   LIG    1        2.303  -0.071  -0.020  0.00  0.00    +0.410 A 
BRANCH   8  11
ATOM     11  C   LIG    1       -1.283  -0.741   0.011  0.00  0.00    -0.060 A 
ATOM     12  C   LIG    1       -2.490  -0.043   0.032  0.00  0.00    +0.080 A 
ATOM     13  C   LIG    1       -3.684  -0.735   0.035  0.00  0.00    +0.000 A 
ATOM     14  C   LIG    1       -3.685  -2.119   0.028  0.00  0.00    +0.040 A 
ATOM     15  C   LIG    1       -2.491  -2.817   0.012  0.00  0.00    +0.000 A 
ATOM     16  C   LIG    1       -1.291  -2.136   0.003  0.00  0.00    +0.080 A 
ENDBRANCH   8  11
ENDBRANCH   2   5
BRANCH   3  17
ATOM     17  C   LIG    1        4.885   4.141  -0.021  0.00  0.00    +0.390 C 
BRANCH  17  18
ATOM     18  C   LIG    1        4.614   5.623  -0.011  0.00  0.00    -0.000 A 
ATOM     19  N   LIG    1        4.380   6.380  -1.046  0.00  0.00    -0.340 NA
ATOM     20  O   LIG    1        4.194   7.532  -0.730  0.00  0.00    +0.120 OA
ATOM     21  C   LIG    1        4.292   7.699   0.601  0.00  0.00    +0.020 A 
ATOM     22  C   LIG    1        4.569   6.464   1.120  0.00  0.00    -0.030 A 
BRANCH  21  23
ATOM     23  C   LIG    1        4.134   8.963   1.351  0.00  0.00    -0.030 A 
ATOM     24  C   LIG    1        4.262   8.974   2.741  0.00  0.00    +0.040 A 
ATOM     25  C   LIG    1        4.118  10.158   3.434  0.00  0.00    +0.010 A 
ATOM     26  C   LIG    1        3.837  11.331   2.756  0.00  0.00    +0.030 A 
ATOM     27  C   LIG    1        3.704  11.326   1.379  0.00  0.00    +0.010 A 
ATOM     28  C   LIG    1        3.850  10.150   0.673  0.00  0.00    +0.040 A 
ENDBRANCH  21  23
ENDBRANCH  17  18
ENDBRANCH   3  17
TORSDOF 5
