REMARK  Name = ZINCpk00001AZiLp.1
REMARK                            x       y       z     vdW  Elec       q    Type
REMARK                         _______ _______ _______ _____ _____    ______ ____
ROOT
ATOM      1  N   LIG    1       -2.317  -0.324  -1.302  0.00  0.00    -0.600 N 
ATOM      2  C   LIG    1       -2.146   1.013  -1.257  0.00  0.00    +0.520 C 
ATOM      3  O   LIG    1       -3.112   1.747  -1.238  0.00  0.00    -0.540 OA
ATOM      4  C   LIG    1       -1.151  -1.210  -1.324  0.00  0.00    +0.300 C 
ENDROOT
BRANCH   2   5
ATOM      5  C   LIG    1       -0.756   1.595  -1.230  0.00  0.00    +0.010 C 
ATOM      6  C   LIG    1       -0.013   1.086   0.008  0.00  0.00    +0.050 C 
ATOM      7  C   LIG    1       -0.733   1.581   1.266  0.00  0.00    +0.070 C 
ATOM      8  C   LIG    1       -0.822   3.108   1.227  0.00  0.00    +0.080 C 
ATOM      9  N   LIG    1       -1.566   3.531   0.035  0.00  0.00    -0.360 N 
ATOM     10  C   LIG    1       -1.713   4.992   0.045  0.00  0.00    +0.310 C 
ATOM     11  H   LIG    1       -2.480   3.102   0.041  0.00  0.00    +0.430 HD
ATOM     12  C   LIG    1       -0.843   3.121  -1.175  0.00  0.00    +0.270 C 
BRANCH   8  13
ATOM     13  C   LIG    1       -1.532   3.600   2.462  0.00  0.00    +0.490 C 
ATOM     14  O   LIG    1       -0.894   3.862   3.468  0.00  0.00    -0.640 OA
ATOM     15  O   LIG    1       -2.743   3.736   2.456  0.00  0.00    -0.670 OA
ENDBRANCH   8  13
ENDBRANCH   2   5
BRANCH   1  16
ATOM     16  C   LIG    1       -3.668  -0.889  -1.327  0.00  0.00    +0.290 C 
BRANCH  16  17
ATOM     17  C   LIG    1       -4.130  -1.039  -2.778  0.00  0.00    +0.010 C 
BRANCH  17  18
ATOM     18  C   LIG    1       -5.541  -1.630  -2.805  0.00  0.00    +0.150 C 
BRANCH  18  23
ATOM     19  N   LIG    1       -5.811  -2.866  -5.011  0.00  0.00    -0.460 N 
ATOM     20  C   LIG    1       -6.372  -2.594  -6.230  0.00  0.00    +0.110 A 
ATOM     21  C   LIG    1       -6.881  -1.349  -6.156  0.00  0.00    +0.140 A 
ATOM     22  N   LIG    1       -6.642  -0.876  -4.924  0.00  0.00    -0.490 NA
ATOM     23  C   LIG    1       -5.997  -1.777  -4.234  0.00  0.00    +0.210 A 
BRANCH  19  24
ATOM     24  C   LIG    1       -5.135  -4.106  -4.622  0.00  0.00    +0.280 C 
BRANCH  24  26
ATOM     25  C   LIG    1       -5.425  -6.325  -3.511  0.00  0.00    +0.030 C 
ATOM     26  C   LIG    1       -6.131  -5.030  -3.917  0.00  0.00    +0.000 C 
ENDBRANCH  24  26
ENDBRANCH  19  24
ENDBRANCH  18  23
ENDBRANCH  17  18
ENDBRANCH  16  17
ENDBRANCH   1  16
TORSDOF 8
