REMARK  Name = ZINCpk00001AZiLp.0
REMARK                            x       y       z     vdW  Elec       q    Type
REMARK                         _______ _______ _______ _____ _____    ______ ____
ROOT
ATOM      1  N   LIG    1       -0.425   2.107  -1.416  0.00  0.00    -0.620 N 
ATOM      2  C   LIG    1       -1.240   1.081  -1.099  0.00  0.00    +0.510 C 
ATOM      3  O   LIG    1       -2.438   1.190  -1.248  0.00  0.00    -0.510 OA
ATOM      4  C   LIG    1        1.023   1.973  -1.242  0.00  0.00    +0.280 C 
ENDROOT
BRANCH   2   5
ATOM      5  C   LIG    1       -0.660  -0.204  -0.566  0.00  0.00    +0.000 C 
ATOM      6  C   LIG    1       -1.742  -1.288  -0.559  0.00  0.00    +0.060 C 
ATOM      7  C   LIG    1       -2.865  -0.869   0.393  0.00  0.00    +0.080 C 
ATOM      8  C   LIG    1       -2.281  -0.625   1.786  0.00  0.00    +0.070 C 
ATOM      9  N   LIG    1       -1.273   0.440   1.718  0.00  0.00    -0.350 N 
ATOM     10  C   LIG    1       -1.882   1.654   1.159  0.00  0.00    +0.310 C 
ATOM     11  H   LIG    1       -0.928   0.636   2.645  0.00  0.00    +0.420 HD
ATOM     12  C   LIG    1       -0.158   0.016   0.862  0.00  0.00    +0.260 C 
BRANCH   8  13
ATOM     13  C   LIG    1       -3.383  -0.212   2.727  0.00  0.00    +0.490 C 
ATOM     14  O   LIG    1       -4.297  -0.981   2.970  0.00  0.00    -0.640 OA
ATOM     15  O   LIG    1       -3.361   0.891   3.246  0.00  0.00    -0.670 OA
ENDBRANCH   8  13
ENDBRANCH   2   5
BRANCH   1  16
ATOM     16  C   LIG    1       -0.988   3.356  -1.934  0.00  0.00    +0.300 C 
BRANCH  16  17
ATOM     17  C   LIG    1       -1.299   4.298  -0.769  0.00  0.00    -0.000 C 
BRANCH  17  18
ATOM     18  C   LIG    1       -1.887   5.602  -1.310  0.00  0.00    +0.150 C 
BRANCH  18  23
ATOM     19  N   LIG    1       -1.344   7.438   0.364  0.00  0.00    -0.460 N 
ATOM     20  C   LIG    1       -2.007   8.070   1.381  0.00  0.00    +0.110 A 
ATOM     21  C   LIG    1       -3.237   7.527   1.442  0.00  0.00    +0.150 A 
ATOM     22  N   LIG    1       -3.325   6.591   0.484  0.00  0.00    -0.480 NA
ATOM     23  C   LIG    1       -2.194   6.530  -0.162  0.00  0.00    +0.200 A 
BRANCH  19  24
ATOM     24  C   LIG    1        0.029   7.699  -0.073  0.00  0.00    +0.280 C 
BRANCH  24  26
ATOM     25  C   LIG    1        1.449   8.961  -1.697  0.00  0.00    +0.030 C 
ATOM     26  C   LIG    1        0.014   8.688  -1.240  0.00  0.00    +0.000 C 
ENDBRANCH  24  26
ENDBRANCH  19  24
ENDBRANCH  18  23
ENDBRANCH  17  18
ENDBRANCH  16  17
ENDBRANCH   1  16
TORSDOF 8
