REMARK  Name = ZINCqH0000034gRP.0
REMARK                            x       y       z     vdW  Elec       q    Type
REMARK                         _______ _______ _______ _____ _____    ______ ____
ROOT
ATOM      1  N   LIG    1        2.076   2.237   1.669  0.00  0.00    -0.670 N 
ATOM      2  H   LIG    1        2.044   2.014   0.726  0.00  0.00    +0.410 HD
ATOM      3  C   LIG    1        2.839   3.264   2.094  0.00  0.00    +0.520 C 
ATOM      4  O   LIG    1        2.842   3.572   3.267  0.00  0.00    -0.500 OA
ENDROOT
BRANCH   1  10
ATOM      5  C   LIG    1       -0.009   1.219   2.339  0.00  0.00    -0.090 A 
ATOM      6  C   LIG    1       -0.745   0.488   3.251  0.00  0.00    +0.020 A 
ATOM      7  C   LIG    1       -0.148   0.021   4.408  0.00  0.00    +0.000 A 
ATOM      8  C   LIG    1        1.184   0.294   4.660  0.00  0.00    +0.010 A 
ATOM      9  C   LIG    1        1.924   1.028   3.754  0.00  0.00    -0.070 A 
ATOM     10  C   LIG    1        1.329   1.494   2.589  0.00  0.00    +0.140 A 
BRANCH   5  12
ATOM     11  C   LIG    1       -0.396   0.734  -0.062  0.00  0.00    +0.020 C 
ATOM     12  C   LIG    1       -0.659   1.722   1.076  0.00  0.00    +0.060 C 
ENDBRANCH   5  12
BRANCH   9  13
ATOM     13  C   LIG    1        3.376   1.324   4.030  0.00  0.00    +0.050 C 
ATOM     14  C   LIG    1        3.493   2.156   5.308  0.00  0.00    +0.030 C 
ENDBRANCH   9  13
ENDBRANCH   1  10
BRANCH   3  15
ATOM     15  C   LIG    1        3.688   4.029   1.111  0.00  0.00    +0.000 C 
ATOM     16  C   LIG    1        2.807   4.767   0.076  0.00  0.00    +0.070 C 
ATOM     17  C   LIG    1        3.531   6.075  -0.160  0.00  0.00    +0.520 C 
ATOM     18  N   LIG    1        4.427   6.291   0.818  0.00  0.00    -0.610 N 
ATOM     19  O   LIG    1        3.332   6.819  -1.097  0.00  0.00    -0.520 OA
ATOM     20  C   LIG    1        4.413   5.203   1.804  0.00  0.00    +0.300 C 
BRANCH  18  21
ATOM     21  C   LIG    1        5.304   7.462   0.891  0.00  0.00    +0.350 C 
BRANCH  21  22
ATOM     22  C   LIG    1        4.618   8.556   1.667  0.00  0.00    -0.120 A 
ATOM     23  C   LIG    1        3.832   9.482   1.008  0.00  0.00    +0.030 A 
ATOM     24  C   LIG    1        3.199  10.484   1.720  0.00  0.00    +0.000 A 
ATOM     25  C   LIG    1        3.360  10.565   3.091  0.00  0.00    +0.010 A 
ATOM     26  C   LIG    1        4.151   9.642   3.750  0.00  0.00    +0.000 A 
ATOM     27  C   LIG    1        4.780   8.638   3.038  0.00  0.00    +0.020 A 
ENDBRANCH  21  22
ENDBRANCH  18  21
ENDBRANCH   3  15
TORSDOF 6
