REMARK  Name = ZINCvU0000000CbC.0
REMARK                            x       y       z     vdW  Elec       q    Type
REMARK                         _______ _______ _______ _____ _____    ______ ____
ROOT
ATOM      1  N   LIG    1       -2.093   1.042   1.256  0.00  0.00    -0.380 N 
ATOM      2  N   LIG    1       -3.074   1.306   0.292  0.00  0.00    -0.230 NA
ATOM      3  C   LIG    1       -4.182   0.703   0.615  0.00  0.00    +0.300 A 
ATOM      4  C   LIG    1       -3.982   0.013   1.829  0.00  0.00    -0.180 A 
ATOM      5  C   LIG    1       -4.811  -0.791   2.645  0.00  0.00    -0.010 A 
ATOM      6  C   LIG    1       -4.263  -1.324   3.807  0.00  0.00    -0.020 A 
ATOM      7  C   LIG    1       -2.930  -1.049   4.122  0.00  0.00    +0.240 A 
ATOM      8  N   LIG    1       -2.178  -0.292   3.339  0.00  0.00    -0.480 NA
ATOM      9  C   LIG    1       -2.647   0.241   2.221  0.00  0.00    +0.320 A 
ENDROOT
BRANCH   7  10
ATOM     10  C   LIG    1       -2.345  -1.617   5.360  0.00  0.00    -0.060 A 
ATOM     11  C   LIG    1       -3.122  -2.412   6.201  0.00  0.00    +0.040 A 
ATOM     12  C   LIG    1       -2.571  -2.941   7.350  0.00  0.00    +0.010 A 
ATOM     13  C   LIG    1       -1.253  -2.677   7.673  0.00  0.00    +0.030 A 
ATOM     14  C   LIG    1       -0.477  -1.885   6.845  0.00  0.00    +0.000 A 
ATOM     15  C   LIG    1       -1.016  -1.354   5.691  0.00  0.00    +0.070 A 
ENDBRANCH   7  10
BRANCH   5  16
ATOM     16  C   LIG    1       -6.218  -1.057   2.274  0.00  0.00    +0.570 C 
ATOM     17  N   LIG    1       -6.989  -1.827   3.067  0.00  0.00    -0.660 N 
ATOM     18  H   LIG    1       -6.605  -2.260   3.845  0.00  0.00    +0.420 HD
ATOM     19  O   LIG    1       -6.678  -0.582   1.255  0.00  0.00    -0.490 OA
BRANCH  17  20
ATOM     20  C   LIG    1       -8.346  -2.002   2.767  0.00  0.00    +0.170 A 
ATOM     21  C   LIG    1       -8.763  -2.056   1.444  0.00  0.00    +0.070 A 
ATOM     22  C   LIG    1      -10.104  -2.233   1.148  0.00  0.00    +0.060 A 
ATOM     23  C   LIG    1      -11.034  -2.347   2.178  0.00  0.00    +0.030 A 
ATOM     24  O   LIG    1      -12.275  -2.507   1.630  0.00  0.00    -0.300 OA
ATOM     25  C   LIG    1      -12.044  -2.900   0.264  0.00  0.00    +0.440 C 
ATOM     26  C   LIG    1      -10.615  -2.288   3.498  0.00  0.00    +0.080 A 
ATOM     27  O   LIG    1      -10.762  -2.322  -0.045  0.00  0.00    -0.300 OA
ATOM     28  C   LIG    1       -9.276  -2.116   3.793  0.00  0.00    -0.050 A 
ATOM     29 CL   LIG    1       -8.755  -2.042   5.448  0.00  0.00    -0.040 Cl
ENDBRANCH  17  20
ENDBRANCH   5  16
BRANCH   1  31
ATOM     30  C   LIG    1       -0.008   1.043  -0.022  0.00  0.00    +0.050 C 
ATOM     31  C   LIG    1       -0.716   1.540   1.240  0.00  0.00    +0.270 C 
ATOM     32  C   LIG    1       -0.727   3.070   1.248  0.00  0.00    +0.050 C 
ENDBRANCH   1  31
TORSDOF 4
