REMARK  Name = ZINCkj000005l5Jd.1
REMARK                            x       y       z     vdW  Elec       q    Type
REMARK                         _______ _______ _______ _____ _____    ______ ____
ROOT
ATOM      1  C   LIG    1        4.882   0.167   0.675  0.00  0.00    +0.220 C 
ATOM      2  C   LIG    1        3.836  -0.952   0.701  0.00  0.00    +0.090 C 
ATOM      3  C   LIG    1        2.436  -0.334   0.697  0.00  0.00    +0.240 C 
ATOM      4  N   LIG    1        2.267   0.490  -0.507  0.00  0.00    -0.470 NA
ATOM      5  C   LIG    1        3.230   1.599  -0.530  0.00  0.00    +0.220 C 
ATOM      6  C   LIG    1        4.654   1.039  -0.562  0.00  0.00    +0.070 C 
ENDROOT
BRANCH   4   7
ATOM      7  C   LIG    1        0.961   0.961  -0.610  0.00  0.00    +0.250 C 
ATOM      8  C   LIG    1        0.679   2.321  -0.490  0.00  0.00    +0.010 C 
ATOM      9  C   LIG    1       -0.629   2.747  -0.594  0.00  0.00    +0.380 C 
ATOM     10  N   LIG    1       -1.605   1.887  -0.813  0.00  0.00    -0.460 NA
ATOM     11  C   LIG    1       -1.380   0.591  -0.932  0.00  0.00    +0.380 C 
ATOM     12  H   LIG    1       -2.515   2.215  -0.885  0.00  0.00    +0.460 HD
ATOM     13  C   LIG    1       -0.101   0.084  -0.836  0.00  0.00    -0.090 C 
ATOM     14 CL   LIG    1        0.184  -1.621  -0.993  0.00  0.00    +0.040 Cl
ENDBRANCH   4   7
BRANCH   1  20
ATOM     15  C   LIG    1        6.243  -1.578   2.857  0.00  0.00    +0.370 C 
ATOM     16  N   LIG    1        6.834  -1.188   1.575  0.00  0.00    -0.360 N 
ATOM     17  N   LIG    1        8.110  -1.530   1.097  0.00  0.00    -0.310 NA
ATOM     18  C   LIG    1        8.235  -0.974  -0.079  0.00  0.00    +0.420 A 
ATOM     19  N   LIG    1        7.115  -0.312  -0.365  0.00  0.00    -0.530 NA
ATOM     20  C   LIG    1        6.262  -0.435   0.619  0.00  0.00    +0.230 A 
ENDBRANCH   1  20
BRANCH   1  21
ATOM     21  O   LIG    1        4.757   0.965   1.854  0.00  0.00    -0.550 OA
ATOM     22  H   LIG    1        5.390   1.694   1.904  0.00  0.00    +0.390 HD
ENDBRANCH   1  21
TORSDOF 3
