REMARK  Name = ZINCrD00000F5LrO.0
REMARK                            x       y       z     vdW  Elec       q    Type
REMARK                         _______ _______ _______ _____ _____    ______ ____
ROOT
ATOM      1  N   LIG    1        4.124  -0.939  -1.425  0.00  0.00    -0.470 N 
ATOM      2  C   LIG    1        4.890  -0.040  -2.097  0.00  0.00    +0.250 A 
ATOM      3  C   LIG    1        5.210  -0.344  -3.349  0.00  0.00    -0.080 A 
ATOM      4  S   LIG    1        4.454  -1.915  -3.663  0.00  0.00    +0.190 S 
ATOM      5  C   LIG    1        3.763  -2.062  -2.092  0.00  0.00    +0.370 A 
ATOM      6  N   LIG    1        3.026  -3.069  -1.629  0.00  0.00    -0.610 NA
ENDROOT
BRANCH   6   7
ATOM      7  C   LIG    1        2.754  -4.115  -2.416  0.00  0.00    +0.500 C 
ATOM      8  O   LIG    1        3.182  -4.146  -3.557  0.00  0.00    -0.520 OA
BRANCH   7   9
ATOM      9  C   LIG    1        1.938  -5.230  -1.903  0.00  0.00    +0.160 C 
ATOM     10  C   LIG    1        1.668  -6.270  -2.685  0.00  0.00    -0.490 C 
BRANCH  10  11
ATOM     11  S   LIG    1        0.692  -7.603  -2.073  0.00  0.00    +2.570 S 
ATOM     12  O   LIG    1        0.325  -7.255  -0.745  0.00  0.00    -0.930 OA
ATOM     13  O   LIG    1        1.393  -8.796  -2.398  0.00  0.00    -0.930 OA
BRANCH  11  14
ATOM     14  C   LIG    1       -0.799  -7.631  -3.010  0.00  0.00    -0.660 A 
ATOM     15  C   LIG    1       -1.898  -6.909  -2.583  0.00  0.00    +0.120 A 
ATOM     16  C   LIG    1       -3.067  -6.927  -3.321  0.00  0.00    +0.000 A 
ATOM     17  C   LIG    1       -3.140  -7.676  -4.481  0.00  0.00    +0.070 A 
ATOM     18  C   LIG    1       -2.043  -8.402  -4.905  0.00  0.00    +0.000 A 
ATOM     19  C   LIG    1       -0.873  -8.380  -4.170  0.00  0.00    +0.120 A 
ENDBRANCH  11  14
ENDBRANCH  10  11
ENDBRANCH   7   9
ENDBRANCH   6   7
BRANCH   1  20
ATOM     20  C   LIG    1        3.711  -0.707  -0.038  0.00  0.00    +0.370 C 
BRANCH  20  25
ATOM     21  C   LIG    1       -1.332   2.114   0.020  0.00  0.00    +0.090 C 
ATOM     22  C   LIG    1       -0.017   1.378   0.010  0.00  0.00    -0.070 A 
ATOM     23  C   LIG    1        1.171   2.086   0.002  0.00  0.00    -0.010 A 
ATOM     24  C   LIG    1        2.377   1.411  -0.015  0.00  0.00    +0.020 A 
ATOM     25  C   LIG    1        2.396   0.029  -0.022  0.00  0.00    -0.130 A 
ATOM     26  C   LIG    1        1.208  -0.679  -0.013  0.00  0.00    +0.050 A 
ATOM     27  C   LIG    1        0.002  -0.004   0.002  0.00  0.00    +0.010 A 
ENDBRANCH  20  25
ENDBRANCH   1  20
TORSDOF 6
