REMARK  Name = ZINCnE000001GXWb.0
REMARK                            x       y       z     vdW  Elec       q    Type
REMARK                         _______ _______ _______ _____ _____    ______ ____
ROOT
ATOM      1  C   LIG    1       -2.156  -3.082   0.006  0.00  0.00    +0.210 C 
ENDROOT
BRANCH   1   3
ATOM      2  N   LIG    1       -1.112  -0.840   0.008  0.00  0.00    -0.670 NA
ATOM      3  C   LIG    1       -0.951  -2.178  -0.001  0.00  0.00    +0.460 C 
ATOM      4  O   LIG    1        0.165  -2.654  -0.014  0.00  0.00    -0.550 OA
BRANCH   2   8
ATOM      5  C   LIG    1        1.743   1.751  -0.005  0.00  0.00    -0.090 A 
ATOM      6  N   LIG    1        2.133   0.510  -0.016  0.00  0.00    -0.230 NA
ATOM      7  N   LIG    1        1.244  -0.385  -0.012  0.00  0.00    -0.350 NA
ATOM      8  C   LIG    1        0.002  -0.004   0.002  0.00  0.00    +0.330 A 
ATOM      9  S   LIG    1       -0.022   1.761   0.012  0.00  0.00    +0.010 S 
BRANCH   5  10
ATOM     10  S   LIG    1        2.789   3.168  -0.008  0.00  0.00    -0.040 S 
BRANCH  10  12
ATOM     11  C   LIG    1        5.495   3.568  -0.032  0.00  0.00    +0.060 C 
ATOM     12  C   LIG    1        4.454   2.447  -0.028  0.00  0.00    +0.080 C 
ENDBRANCH  10  12
ENDBRANCH   5  10
ENDBRANCH   2   8
ENDBRANCH   1   3
BRANCH   1  13
ATOM     13  O   LIG    1       -1.729  -4.446  -0.005  0.00  0.00    -0.360 OA
BRANCH  13  14
ATOM     14  C   LIG    1       -2.801  -5.391  -0.000  0.00  0.00    +0.280 C 
BRANCH  14  15
ATOM     15  C   LIG    1       -2.238  -6.789  -0.013  0.00  0.00    +0.100 A 
ATOM     16  N   LIG    1       -1.954  -7.460   1.038  0.00  0.00    -0.450 NA
ATOM     17  C   LIG    1       -1.460  -8.702   0.877  0.00  0.00    +0.080 A 
ATOM     18  C   LIG    1       -1.072  -9.649   1.846  0.00  0.00    +0.070 A 
ATOM     19  C   LIG    1       -0.585 -10.864   1.467  0.00  0.00    +0.020 A 
ATOM     20  C   LIG    1       -0.463 -11.192   0.125  0.00  0.00    +0.030 A 
ATOM     21  C   LIG    1       -0.835 -10.287  -0.844  0.00  0.00    +0.060 A 
ATOM     22  C   LIG    1       -1.334  -9.040  -0.475  0.00  0.00    -0.190 A 
ATOM     23  S   LIG    1       -1.893  -7.672  -1.432  0.00  0.00    +0.130 S 
ENDBRANCH  14  15
ENDBRANCH  13  14
ENDBRANCH   1  13
TORSDOF 7
