REMARK  Name = ZINCvU0000000Fru.1
REMARK                            x       y       z     vdW  Elec       q    Type
REMARK                         _______ _______ _______ _____ _____    ______ ____
ROOT
ATOM      1  N   LIG    1        2.352   3.862   0.057  0.00  0.00    -1.050 N 
ATOM      2  H   LIG    1        3.060   3.662  -0.575  0.00  0.00    +0.430 HD
ENDROOT
BRANCH   1   3
ATOM      3  C   LIG    1        1.262   2.994   0.186  0.00  0.00    +0.170 A 
ATOM      4  C   LIG    1       -0.004   3.499   0.439  0.00  0.00    +0.020 A 
ATOM      5  C   LIG    1       -1.079   2.638   0.566  0.00  0.00    -0.010 A 
ATOM      6  C   LIG    1       -0.896   1.274   0.436  0.00  0.00    +0.040 A 
ATOM      7  C   LIG    1        0.366   0.762   0.190  0.00  0.00    +0.060 A 
ATOM      8 CL   LIG    1       -2.664   3.273   0.881  0.00  0.00    -0.050 Cl
ATOM      9  C   LIG    1        1.447   1.618   0.061  0.00  0.00    +0.070 A 
BRANCH   9  10
ATOM     10  O   LIG    1        2.687   1.116  -0.186  0.00  0.00    -0.250 OA
BRANCH  10  11
ATOM     11  C   LIG    1        3.100   1.045  -1.478  0.00  0.00    +0.100 A 
ATOM     12  C   LIG    1        2.307   1.563  -2.491  0.00  0.00    -0.060 A 
ATOM     13  C   LIG    1        2.733   1.495  -3.804  0.00  0.00    +0.050 A 
ATOM     14  C   LIG    1        3.942   0.899  -4.109  0.00  0.00    -0.110 A 
ATOM     15  C   LIG    1        4.732   0.376  -3.102  0.00  0.00    +0.050 A 
ATOM     16  C   LIG    1        4.401   0.820  -5.543  0.00  0.00    +0.100 C 
ATOM     17  C   LIG    1        4.314   0.447  -1.788  0.00  0.00    -0.010 A 
ENDBRANCH  10  11
ENDBRANCH   9  10
ENDBRANCH   1   3
BRANCH   1  18
ATOM     18  S   LIG    1        2.433   5.233   0.983  0.00  0.00    +2.690 S 
ATOM     19  O   LIG    1        1.208   5.926   0.782  0.00  0.00    -0.940 OA
ATOM     20  O   LIG    1        3.705   5.813   0.731  0.00  0.00    -0.940 OA
BRANCH  18  23
ATOM     21  C   LIG    1        1.259   4.177   4.680  0.00  0.00    +0.080 A 
ATOM     22  C   LIG    1        1.252   4.582   3.356  0.00  0.00    +0.060 A 
ATOM     23  C   LIG    1        2.444   4.723   2.670  0.00  0.00    -0.660 A 
ATOM     24  C   LIG    1        3.646   4.469   3.305  0.00  0.00    +0.130 A 
ATOM     25  C   LIG    1        3.661   4.070   4.628  0.00  0.00    +0.050 A 
ATOM     26  C   LIG    1        2.470   3.922   5.321  0.00  0.00    +0.190 A 
BRANCH  26  27
ATOM     27  N   LIG    1        2.483   3.516   6.662  0.00  0.00    -0.670 N 
ATOM     28  H   LIG    1        1.703   3.085   7.047  0.00  0.00    +0.420 HD
ATOM     29  C   LIG    1        3.579   3.725   7.419  0.00  0.00    +0.510 C 
ATOM     30  O   LIG    1        4.515   4.352   6.970  0.00  0.00    -0.520 OA
ATOM     31  C   LIG    1        3.641   3.178   8.822  0.00  0.00    +0.120 C 
ENDBRANCH  26  27
BRANCH  21  33
ATOM     32  C   LIG    1       -1.115   4.311   4.634  0.00  0.00    +0.250 C 
ATOM     33  O   LIG    1        0.087   4.033   5.355  0.00  0.00    -0.320 OA
ENDBRANCH  21  33
ENDBRANCH  18  23
ENDBRANCH   1  18
TORSDOF 7
