REMARK  Name = ZINCrH000004tR5D.0
REMARK                            x       y       z     vdW  Elec       q    Type
REMARK                         _______ _______ _______ _____ _____    ______ ____
ROOT
ATOM      1  C   LIG    1        6.878   1.911   1.500  0.00  0.00    +0.130 A 
ATOM      2  C   LIG    1        7.121   2.877   0.533  0.00  0.00    +0.050 A 
ATOM      3  C   LIG    1        6.123   3.766   0.182  0.00  0.00    +0.020 A 
ATOM      4  C   LIG    1        4.885   3.694   0.792  0.00  0.00    +0.110 A 
ATOM      5  C   LIG    1        4.640   2.733   1.756  0.00  0.00    -0.660 A 
ATOM      6  C   LIG    1        5.634   1.845   2.115  0.00  0.00    +0.130 A 
ENDROOT
BRANCH   1   9
ATOM      7  O   LIG    1        6.418  -0.630   2.142  0.00  0.00    -0.490 OA
ATOM      8  C   LIG    1        7.567  -0.250   2.219  0.00  0.00    +0.530 C 
ATOM      9  N   LIG    1        7.886   1.009   1.859  0.00  0.00    -0.670 N 
ATOM     10  H   LIG    1        8.815   1.290   1.847  0.00  0.00    +0.420 HD
BRANCH   8  11
ATOM     11  C   LIG    1        8.639  -1.185   2.719  0.00  0.00    +0.090 C 
BRANCH  11  12
ATOM     12  S   LIG    1        7.899  -2.792   3.121  0.00  0.00    -0.010 S 
BRANCH  12  13
ATOM     13  C   LIG    1        9.279  -3.735   3.677  0.00  0.00    -0.120 A 
ATOM     14  C   LIG    1       10.546  -3.164   3.706  0.00  0.00    +0.020 A 
ATOM     15  C   LIG    1       11.625  -3.904   4.149  0.00  0.00    +0.010 A 
ATOM     16  C   LIG    1       11.448  -5.217   4.552  0.00  0.00    +0.090 A 
ATOM     17  C   LIG    1       10.187  -5.789   4.519  0.00  0.00    +0.010 A 
ATOM     18  F   LIG    1       12.506  -5.940   4.979  0.00  0.00    -0.140 F 
ATOM     19  C   LIG    1        9.104  -5.052   4.083  0.00  0.00    +0.070 A 
ENDBRANCH  12  13
ENDBRANCH  11  12
ENDBRANCH   8  11
ENDBRANCH   1   9
BRANCH   5  20
ATOM     20  S   LIG    1        3.060   2.646   2.531  0.00  0.00    +2.690 S 
ATOM     21  O   LIG    1        3.262   2.003   3.782  0.00  0.00    -0.950 OA
ATOM     22  O   LIG    1        2.480   3.937   2.405  0.00  0.00    -0.950 OA
BRANCH  20  23
ATOM     23  N   LIG    1        2.125   1.623   1.625  0.00  0.00    -0.990 NA
ATOM     24  C   LIG    1        1.307   2.138   0.518  0.00  0.00    +0.280 C 
ATOM     25  C   LIG    1       -0.140   1.678   0.719  0.00  0.00    +0.020 C 
ATOM     26  C   LIG    1       -0.171   0.155   0.866  0.00  0.00    +0.010 C 
ATOM     27  C   LIG    1        0.641  -0.257   2.096  0.00  0.00    +0.020 C 
ATOM     28  C   LIG    1        2.098   0.182   1.911  0.00  0.00    +0.280 C 
ENDBRANCH  20  23
ENDBRANCH   5  20
TORSDOF 6
