REMARK  Name = ZINCpe000000WwW5.0
REMARK                            x       y       z     vdW  Elec       q    Type
REMARK                         _______ _______ _______ _____ _____    ______ ____
ROOT
ATOM      1  C   LIG    1       -2.275   1.164  -7.366  0.00  0.00    +0.520 C 
ATOM      2  N   LIG    1       -1.917   1.668  -6.169  0.00  0.00    -0.620 N 
ATOM      3  C   LIG    1       -0.684   2.456  -6.018  0.00  0.00    +0.300 C 
ATOM      4  C   LIG    1        0.126   1.875  -4.854  0.00  0.00    +0.170 C 
ATOM      5  N   LIG    1       -0.721   1.812  -3.656  0.00  0.00    -0.540 NA
ATOM      6  C   LIG    1       -1.859   0.905  -3.854  0.00  0.00    +0.160 C 
ATOM      7  C   LIG    1       -2.750   1.446  -4.977  0.00  0.00    +0.280 C 
ATOM      8  O   LIG    1       -1.576   1.357  -8.339  0.00  0.00    -0.530 OA
ENDROOT
BRANCH   1   9
ATOM      9  C   LIG    1       -3.542   0.360  -7.498  0.00  0.00    +0.110 C 
BRANCH   9  14
ATOM     10  C   LIG    1       -3.331  -1.697 -10.661  0.00  0.00    +0.130 A 
ATOM     11  C   LIG    1       -4.022  -0.894 -11.557  0.00  0.00    -0.080 A 
ATOM     12  C   LIG    1       -4.553   0.310 -11.136  0.00  0.00    +0.050 A 
ATOM     13  C   LIG    1       -4.402   0.712  -9.822  0.00  0.00    -0.020 A 
ATOM     14  C   LIG    1       -3.710  -0.084  -8.928  0.00  0.00    -0.030 A 
ATOM     15  C   LIG    1       -3.176  -1.288  -9.344  0.00  0.00    -0.010 A 
BRANCH  10  17
ATOM     16  C   LIG    1       -3.005  -3.238 -12.441  0.00  0.00    +0.250 C 
ATOM     17  O   LIG    1       -2.807  -2.881 -11.072  0.00  0.00    -0.320 OA
ENDBRANCH  10  17
ENDBRANCH   9  14
ENDBRANCH   1   9
BRANCH   5  18
ATOM     18  C   LIG    1        0.063   1.423  -2.476  0.00  0.00    +0.200 C 
BRANCH  18  19
ATOM     19  C   LIG    1       -0.784   1.609  -1.216  0.00  0.00    +0.010 C 
ATOM     20  C   LIG    1       -0.013   1.086   0.008  0.00  0.00    +0.070 C 
ATOM     21  C   LIG    1       -0.766   1.600   1.262  0.00  0.00    -0.310 C 
ATOM     22  S   LIG    1       -1.166   3.330   0.805  0.00  0.00    +2.380 S 
ATOM     23  O   LIG    1       -2.504   3.623   1.183  0.00  0.00    -0.940 OA
ATOM     24  O   LIG    1       -0.110   4.183   1.224  0.00  0.00    -0.940 OA
ATOM     25  C   LIG    1       -1.083   3.107  -1.009  0.00  0.00    -0.290 C 
ENDBRANCH  18  19
ENDBRANCH   5  18
TORSDOF 5
