REMARK  Name = ZINCtV000002KBw7.0
REMARK                            x       y       z     vdW  Elec       q    Type
REMARK                         _______ _______ _______ _____ _____    ______ ____
ROOT
ATOM      1  C   LIG    1       -0.129  -8.286  -0.604  0.00  0.00    +0.250 A 
ATOM      2  N   LIG    1        0.273  -7.032  -0.489  0.00  0.00    -0.470 NA
ATOM      3  C   LIG    1       -0.855  -6.293  -0.457  0.00  0.00    +0.230 A 
ATOM      4  N   LIG    1       -1.866  -7.119  -0.560  0.00  0.00    -0.370 NA
ATOM      5  O   LIG    1       -1.471  -8.262  -0.646  0.00  0.00    +0.110 OA
ENDROOT
BRANCH   1  13
ATOM      6 CL   LIG    1        3.047 -15.245  -1.103  0.00  0.00    -0.040 Cl
ATOM      7  C   LIG    1        2.847 -13.526  -0.960  0.00  0.00    -0.060 A 
ATOM      8  C   LIG    1        3.967 -12.709  -0.853  0.00  0.00    +0.000 A 
ATOM      9  C   LIG    1        3.829 -11.341  -0.739  0.00  0.00    +0.040 A 
ATOM     10  C   LIG    1        2.560 -10.773  -0.731  0.00  0.00    +0.130 A 
ATOM     11  N   LIG    1        2.110  -9.475  -0.639  0.00  0.00    -0.560 N 
ATOM     12  H   LIG    1        2.670  -8.687  -0.557  0.00  0.00    +0.430 HD
ATOM     13  C   LIG    1        0.730  -9.479  -0.679  0.00  0.00    +0.130 A 
ATOM     14  C   LIG    1        0.291 -10.758  -0.803  0.00  0.00    +0.060 A 
ATOM     15  C   LIG    1        1.427 -11.603  -0.839  0.00  0.00    -0.100 A 
ATOM     16 CL   LIG    1        5.552 -13.415  -0.862  0.00  0.00    -0.040 Cl
ATOM     17  C   LIG    1        1.591 -12.989  -0.954  0.00  0.00    +0.120 A 
ENDBRANCH   1  13
BRANCH   3  18
ATOM     18  C   LIG    1       -0.936  -4.817  -0.333  0.00  0.00    -0.060 A 
ATOM     19  C   LIG    1       -2.178  -4.184  -0.319  0.00  0.00    +0.100 A 
ATOM     20  C   LIG    1       -2.249  -2.812  -0.204  0.00  0.00    +0.010 A 
ATOM     21  C   LIG    1       -1.086  -2.061  -0.103  0.00  0.00    +0.140 A 
ATOM     22  C   LIG    1        0.153  -2.688  -0.122  0.00  0.00    -0.060 A 
ATOM     23  C   LIG    1        0.231  -4.060  -0.230  0.00  0.00    +0.110 A 
BRANCH  21  24
ATOM     24  O   LIG    1       -1.160  -0.709   0.010  0.00  0.00    -0.250 OA
BRANCH  24  25
ATOM     25  C   LIG    1        0.001  -0.002  -0.021  0.00  0.00    +0.030 A 
ATOM     26  C   LIG    1        0.758   0.060  -1.186  0.00  0.00    +0.050 A 
ATOM     27  C   LIG    1        1.933   0.794  -1.169  0.00  0.00    +0.000 A 
ATOM     28  C   LIG    1        2.312   1.435  -0.005  0.00  0.00    +0.270 A 
ATOM     29  N   LIG    1        1.571   1.355   1.083  0.00  0.00    -0.460 NA
ATOM     30  C   LIG    1        0.447   0.668   1.109  0.00  0.00    +0.280 A 
ENDBRANCH  24  25
ENDBRANCH  21  24
ENDBRANCH   3  18
TORSDOF 4
