REMARK  Name = ZINCvU0000000Fcs.0
REMARK                            x       y       z     vdW  Elec       q    Type
REMARK                         _______ _______ _______ _____ _____    ______ ____
ROOT
ATOM      1  C   LIG    1        0.203   9.361  -1.376  0.00  0.00    +0.210 A 
ATOM      2  N   LIG    1       -0.972   9.949  -1.506  0.00  0.00    -0.460 NA
ATOM      3  C   LIG    1       -2.103   9.258  -1.646  0.00  0.00    +0.150 A 
ATOM      4  C   LIG    1       -3.341   9.913  -1.782  0.00  0.00    +0.070 A 
ATOM      5  C   LIG    1       -4.480   9.181  -1.923  0.00  0.00    +0.060 A 
ATOM      6  C   LIG    1       -4.443   7.788  -1.936  0.00  0.00    -0.090 A 
ATOM      7  C   LIG    1       -3.260   7.119  -1.807  0.00  0.00    +0.090 A 
ATOM      8 BR   LIG    1       -6.051   6.813  -2.134  0.00  0.00    -0.040 Br
ATOM      9  C   LIG    1       -2.071   7.840  -1.660  0.00  0.00    -0.070 A 
ATOM     10  C   LIG    1       -0.781   7.164  -1.519  0.00  0.00    -0.050 A 
ATOM     11  C   LIG    1        0.344   7.961  -1.372  0.00  0.00    +0.020 A 
ENDROOT
BRANCH  10  12
ATOM     12  C   LIG    1       -0.681   5.688  -1.526  0.00  0.00    +0.560 C 
ATOM     13  N   LIG    1       -0.070   5.049  -0.508  0.00  0.00    -0.600 N 
ATOM     14  C   LIG    1        0.582   5.808   0.568  0.00  0.00    +0.270 C 
ATOM     15  C   LIG    1        0.027   5.329   1.914  0.00  0.00    -0.010 C 
ATOM     16  C   LIG    1        0.198   3.812   2.022  0.00  0.00    +0.030 C 
ATOM     17  C   LIG    1       -0.591   3.128   0.903  0.00  0.00    -0.020 C 
ATOM     18  C   LIG    1       -1.458   5.684   2.010  0.00  0.00    +0.020 C 
ATOM     19  C   LIG    1       -0.044   3.581  -0.454  0.00  0.00    +0.290 C 
ATOM     20  O   LIG    1       -1.150   5.052  -2.449  0.00  0.00    -0.510 OA
BRANCH  17  21
ATOM     21  C   LIG    1       -0.446   1.610   1.030  0.00  0.00    +0.180 C 
BRANCH  21  22
ATOM     22  O   LIG    1       -1.273   0.969   0.057  0.00  0.00    -0.570 OA
ATOM     23  H   LIG    1       -1.231   0.003   0.080  0.00  0.00    +0.380 HD
ENDBRANCH  21  22
ENDBRANCH  17  21
ENDBRANCH  10  12
BRANCH   1  25
ATOM     24  C   LIG    1        1.295  11.537  -1.223  0.00  0.00    +0.100 C 
ATOM     25  C   LIG    1        1.404  10.197  -1.226  0.00  0.00    +0.000 C 
BRANCH  24  31
ATOM     26  C   LIG    1        3.402  16.047  -0.921  0.00  0.00    +0.090 C 
ATOM     27  C   LIG    1        3.518  14.545  -0.927  0.00  0.00    -0.090 A 
ATOM     28  C   LIG    1        4.759  13.948  -0.789  0.00  0.00    +0.010 A 
ATOM     29  C   LIG    1        4.876  12.569  -0.792  0.00  0.00    +0.010 A 
ATOM     30  C   LIG    1        3.754  11.779  -0.927  0.00  0.00    +0.020 A 
ATOM     31  C   LIG    1        2.498  12.374  -1.072  0.00  0.00    -0.070 A 
ATOM     32  C   LIG    1        2.388  13.767  -1.068  0.00  0.00    +0.030 A 
ENDBRANCH  24  31
ENDBRANCH   1  25
TORSDOF 5
