REMARK  Name = ZINCkj000005g3cZ.0
REMARK                            x       y       z     vdW  Elec       q    Type
REMARK                         _______ _______ _______ _____ _____    ______ ____
ROOT
ATOM      1  N   LIG    1        0.091   0.129  -0.076  0.00  0.00    -0.390 N 
ATOM      2  C   LIG    1        1.051  -0.341   0.931  0.00  0.00    +0.270 C 
ATOM      3  C   LIG    1        1.022  -1.870   0.991  0.00  0.00    +0.200 C 
ATOM      4  N   LIG    1        1.364  -2.416  -0.330  0.00  0.00    -0.530 NA
ATOM      5  C   LIG    1        0.426  -1.934  -1.353  0.00  0.00    +0.220 C 
ATOM      6  C   LIG    1       -0.379  -2.338   1.390  0.00  0.00    +0.030 C 
ATOM      7  C   LIG    1        0.460  -0.405  -1.393  0.00  0.00    +0.170 C 
ATOM      8  C   LIG    1        1.871   0.064  -1.756  0.00  0.00    +0.100 C 
ATOM      9  H   LIG    1       -0.835  -0.190   0.168  0.00  0.00    +0.420 HD
ENDROOT
BRANCH   1  11
ATOM     10  C   LIG    1       -0.400   2.153   1.212  0.00  0.00    +0.080 C 
ATOM     11  C   LIG    1        0.106   1.597  -0.120  0.00  0.00    +0.250 C 
ENDBRANCH   1  11
BRANCH   4  12
ATOM     12  C   LIG    1        1.402  -3.884  -0.299  0.00  0.00    +0.340 C 
BRANCH  12  13
ATOM     13  C   LIG    1        1.667  -4.409  -1.686  0.00  0.00    +0.170 A 
ATOM     14  N   LIG    1        0.777  -4.633  -2.622  0.00  0.00    -0.300 NA
ATOM     15  N   LIG    1        1.395  -5.076  -3.661  0.00  0.00    -0.070 NA
ATOM     16  N   LIG    1        2.657  -5.142  -3.413  0.00  0.00    -0.080 NA
ATOM     17  N   LIG    1        2.865  -4.733  -2.207  0.00  0.00    -0.280 N 
BRANCH  17  18
ATOM     18  C   LIG    1        4.162  -4.643  -1.531  0.00  0.00    +0.160 C 
ATOM     19  C   LIG    1        4.339  -3.238  -0.954  0.00  0.00    +0.080 C 
ATOM     20  C   LIG    1        5.281  -4.928  -2.534  0.00  0.00    +0.080 C 
ATOM     21  C   LIG    1        4.218  -5.671  -0.399  0.00  0.00    +0.070 C 
ENDBRANCH  17  18
ENDBRANCH  12  13
ENDBRANCH   4  12
TORSDOF 4
