REMARK  Name = ZINCkj000005g3cZ.1
REMARK                            x       y       z     vdW  Elec       q    Type
REMARK                         _______ _______ _______ _____ _____    ______ ____
ROOT
ATOM      1  N   LIG    1       -0.730   0.652  -0.160  0.00  0.00    -0.390 N 
ATOM      2  C   LIG    1       -0.093   0.068  -1.348  0.00  0.00    +0.280 C 
ATOM      3  C   LIG    1        1.411   0.344  -1.309  0.00  0.00    +0.140 C 
ATOM      4  N   LIG    1        1.639   1.796  -1.274  0.00  0.00    -0.530 NA
ATOM      5  C   LIG    1        0.987   2.399  -0.103  0.00  0.00    +0.230 C 
ATOM      6  C   LIG    1        2.071  -0.246  -2.556  0.00  0.00    +0.080 C 
ATOM      7  C   LIG    1       -0.515   2.106  -0.152  0.00  0.00    +0.170 C 
ATOM      8  C   LIG    1       -1.194   2.715   1.076  0.00  0.00    +0.100 C 
ATOM      9  H   LIG    1       -0.325   0.248   0.671  0.00  0.00    +0.420 HD
ENDROOT
BRANCH   1  11
ATOM     10  C   LIG    1       -2.399  -1.137  -0.072  0.00  0.00    +0.080 C 
ATOM     11  C   LIG    1       -2.171   0.371  -0.189  0.00  0.00    +0.240 C 
ENDBRANCH   1  11
BRANCH   4  12
ATOM     12  C   LIG    1        3.075   2.104  -1.293  0.00  0.00    +0.340 C 
BRANCH  12  13
ATOM     13  C   LIG    1        3.269   3.584  -1.504  0.00  0.00    +0.170 A 
ATOM     14  N   LIG    1        3.241   4.516  -0.583  0.00  0.00    -0.300 NA
ATOM     15  N   LIG    1        3.448   5.650  -1.157  0.00  0.00    -0.070 NA
ATOM     16  N   LIG    1        3.608   5.466  -2.422  0.00  0.00    -0.080 NA
ATOM     17  N   LIG    1        3.510   4.204  -2.674  0.00  0.00    -0.280 N 
BRANCH  17  18
ATOM     18  C   LIG    1        3.633   3.567  -3.987  0.00  0.00    +0.160 C 
ATOM     19  C   LIG    1        4.866   2.660  -4.000  0.00  0.00    +0.070 C 
ATOM     20  C   LIG    1        3.781   4.644  -5.064  0.00  0.00    +0.080 C 
ATOM     21  C   LIG    1        2.383   2.732  -4.269  0.00  0.00    +0.080 C 
ENDBRANCH  17  18
ENDBRANCH  12  13
ENDBRANCH   4  12
TORSDOF 4
