REMARK  Name = ZINCpe00000MyEfK.0
REMARK                            x       y       z     vdW  Elec       q    Type
REMARK                         _______ _______ _______ _____ _____    ______ ____
ROOT
ATOM      1  C   LIG    1        3.576   0.717  -0.961  0.00  0.00    +0.530 C 
ATOM      2  N   LIG    1        2.247   0.911  -1.070  0.00  0.00    -0.610 N 
ATOM      3  C   LIG    1        1.608   1.053  -2.388  0.00  0.00    +0.280 C 
ATOM      4  C   LIG    1        0.416   0.090  -2.454  0.00  0.00    +0.240 C 
ATOM      5  O   LIG    1       -0.422   0.301  -1.315  0.00  0.00    -0.380 OA
ATOM      6  C   LIG    1        0.211   0.027  -0.063  0.00  0.00    +0.130 C 
ATOM      7  C   LIG    1        1.392   0.987   0.125  0.00  0.00    +0.290 C 
ATOM      8  O   LIG    1        4.278   0.759  -1.950  0.00  0.00    -0.500 OA
ENDROOT
BRANCH   1  10
ATOM      9  C   LIG    1        4.067   1.698   1.263  0.00  0.00    +0.050 C 
ATOM     10  C   LIG    1        4.190   0.448   0.388  0.00  0.00    +0.170 C 
BRANCH  10  11
ATOM     11  O   LIG    1        5.571   0.115   0.226  0.00  0.00    -0.280 OA
BRANCH  11  12
ATOM     12  C   LIG    1        6.150  -0.613   1.216  0.00  0.00    +0.160 A 
ATOM     13  C   LIG    1        5.387  -1.068   2.282  0.00  0.00    -0.100 A 
ATOM     14  C   LIG    1        5.977  -1.808   3.288  0.00  0.00    +0.090 A 
ATOM     15  C   LIG    1        7.327  -2.098   3.234  0.00  0.00    -0.050 A 
ATOM     16  C   LIG    1        8.093  -1.646   2.171  0.00  0.00    +0.140 A 
ATOM     17  F   LIG    1        9.412  -1.930   2.120  0.00  0.00    -0.130 F 
ATOM     18  C   LIG    1        7.504  -0.908   1.159  0.00  0.00    -0.040 A 
ENDBRANCH  11  12
ENDBRANCH  10  11
ENDBRANCH   1  10
BRANCH   6  19
ATOM     19  C   LIG    1       -0.794   0.225   1.073  0.00  0.00    +0.280 C 
BRANCH  19  20
ATOM     20  N   LIG    1       -1.924  -0.696   0.893  0.00  0.00    -0.360 N 
ATOM     21  C   LIG    1       -2.953  -0.411   1.902  0.00  0.00    +0.320 C 
ATOM     22  H   LIG    1       -2.314  -0.574  -0.029  0.00  0.00    +0.430 HD
BRANCH  20  23
ATOM     23  C   LIG    1       -1.457  -2.080   1.048  0.00  0.00    +0.150 C 
BRANCH  23  24
ATOM     24  C   LIG    1       -2.587  -3.029   0.743  0.00  0.00    +0.490 C 
ATOM     25  O   LIG    1       -2.408  -4.233   0.814  0.00  0.00    -0.640 OA
ATOM     26  O   LIG    1       -3.680  -2.593   0.426  0.00  0.00    -0.670 OA
ENDBRANCH  23  24
ENDBRANCH  20  23
ENDBRANCH  19  20
ENDBRANCH   6  19
TORSDOF 7
