REMARK  Name = ZINCpe00000MyEfK.1
REMARK                            x       y       z     vdW  Elec       q    Type
REMARK                         _______ _______ _______ _____ _____    ______ ____
ROOT
ATOM      1  C   LIG    1       -1.114   1.130  -7.152  0.00  0.00    +0.530 C 
ATOM      2  N   LIG    1       -0.443   1.514  -6.048  0.00  0.00    -0.620 N 
ATOM      3  C   LIG    1        0.168   2.849  -5.959  0.00  0.00    +0.250 C 
ATOM      4  C   LIG    1       -0.276   3.498  -4.643  0.00  0.00    +0.240 C 
ATOM      5  O   LIG    1       -0.006   2.603  -3.562  0.00  0.00    -0.380 OA
ATOM      6  C   LIG    1       -0.722   1.367  -3.631  0.00  0.00    +0.140 C 
ATOM      7  C   LIG    1       -0.301   0.610  -4.895  0.00  0.00    +0.290 C 
ATOM      8  O   LIG    1       -1.527  -0.007  -7.245  0.00  0.00    -0.500 OA
ENDROOT
BRANCH   1  10
ATOM      9  C   LIG    1       -2.364   3.166  -7.816  0.00  0.00    +0.060 C 
ATOM     10  C   LIG    1       -1.351   2.112  -8.269  0.00  0.00    +0.170 C 
BRANCH  10  11
ATOM     11  O   LIG    1       -1.860   1.421  -9.411  0.00  0.00    -0.280 OA
BRANCH  11  12
ATOM     12  C   LIG    1       -1.646   1.993 -10.625  0.00  0.00    +0.160 A 
ATOM     13  C   LIG    1       -1.051   3.244 -10.708  0.00  0.00    -0.090 A 
ATOM     14  C   LIG    1       -0.833   3.824 -11.943  0.00  0.00    +0.090 A 
ATOM     15  C   LIG    1       -1.206   3.161 -13.096  0.00  0.00    -0.050 A 
ATOM     16  C   LIG    1       -1.800   1.912 -13.017  0.00  0.00    +0.140 A 
ATOM     17  F   LIG    1       -2.165   1.264 -14.146  0.00  0.00    -0.130 F 
ATOM     18  C   LIG    1       -2.016   1.325 -11.783  0.00  0.00    -0.040 A 
ENDBRANCH  11  12
ENDBRANCH  10  11
ENDBRANCH   1  10
BRANCH   6  19
ATOM     19  C   LIG    1       -0.403   0.521  -2.397  0.00  0.00    +0.280 C 
BRANCH  19  20
ATOM     20  N   LIG    1       -0.910   1.197  -1.195  0.00  0.00    -0.360 N 
ATOM     21  C   LIG    1       -2.376   1.263  -1.252  0.00  0.00    +0.310 C 
ATOM     22  H   LIG    1       -0.532   2.132  -1.151  0.00  0.00    +0.430 HD
BRANCH  20  23
ATOM     23  C   LIG    1       -0.499   0.446  -0.002  0.00  0.00    +0.160 C 
BRANCH  23  24
ATOM     24  C   LIG    1       -0.912   1.202   1.235  0.00  0.00    +0.490 C 
ATOM     25  O   LIG    1       -0.664   0.748   2.339  0.00  0.00    -0.640 OA
ATOM     26  O   LIG    1       -1.495   2.268   1.131  0.00  0.00    -0.670 OA
ENDBRANCH  23  24
ENDBRANCH  20  23
ENDBRANCH  19  20
ENDBRANCH   6  19
TORSDOF 7
