REMARK  Name = ZINCrg00000SjSCe.0
REMARK                            x       y       z     vdW  Elec       q    Type
REMARK                         _______ _______ _______ _____ _____    ______ ____
ROOT
ATOM      1  C   LIG    1        4.298  -1.041  -5.615  0.00  0.00    +0.530 C 
ATOM      2  N   LIG    1        3.966  -0.854  -4.322  0.00  0.00    -0.610 N 
ATOM      3  C   LIG    1        4.391   0.359  -3.609  0.00  0.00    +0.290 C 
ATOM      4  C   LIG    1        5.158  -0.058  -2.348  0.00  0.00    +0.300 C 
ATOM      5  N   LIG    1        4.366  -1.063  -1.626  0.00  0.00    -1.000 NA
ATOM      6  C   LIG    1        3.946  -2.279  -2.338  0.00  0.00    +0.290 C 
ATOM      7  C   LIG    1        3.173  -1.859  -3.600  0.00  0.00    +0.260 C 
ATOM      8  O   LIG    1        4.878  -0.168  -6.224  0.00  0.00    -0.520 OA
ENDROOT
BRANCH   5   9
ATOM      9  S   LIG    1        3.959  -0.834  -0.037  0.00  0.00    +2.690 S 
ATOM     10  O   LIG    1        3.717  -2.125   0.505  0.00  0.00    -0.950 OA
ATOM     11  O   LIG    1        4.920   0.066   0.497  0.00  0.00    -0.950 OA
BRANCH   9  12
ATOM     12  C   LIG    1        2.414   0.014  -0.012  0.00  0.00    -0.680 A 
ATOM     13  C   LIG    1        1.232  -0.703   0.002  0.00  0.00    +0.120 A 
ATOM     14  C   LIG    1        0.021  -0.038   0.024  0.00  0.00    -0.010 A 
ATOM     15  C   LIG    1       -0.009   1.344   0.031  0.00  0.00    +0.070 A 
ATOM     16  C   LIG    1        1.173   2.061   0.018  0.00  0.00    -0.010 A 
ATOM     17  C   LIG    1        2.385   1.396  -0.005  0.00  0.00    +0.120 A 
ENDBRANCH   9  12
ENDBRANCH   5   9
BRANCH   1  18
ATOM     18  C   LIG    1        3.948  -2.335  -6.303  0.00  0.00    -0.030 C 
ATOM     19  C   LIG    1        3.848  -2.099  -7.812  0.00  0.00    +0.070 C 
BRANCH  18  20
ATOM     20  C   LIG    1        5.035  -3.374  -6.020  0.00  0.00    +0.350 C 
BRANCH  20  24
ATOM     21  C   LIG    1        4.431  -7.218  -9.186  0.00  0.00    +0.190 C 
ATOM     22  C   LIG    1        4.382  -6.326  -7.972  0.00  0.00    +0.220 A 
ATOM     23  N   LIG    1        4.918  -5.137  -7.880  0.00  0.00    -0.310 NA
ATOM     24  N   LIG    1        4.637  -4.664  -6.588  0.00  0.00    -0.380 N 
ATOM     25  C   LIG    1        3.936  -5.633  -5.974  0.00  0.00    +0.280 A 
ATOM     26  C   LIG    1        3.411  -5.587  -4.562  0.00  0.00    +0.190 C 
ATOM     27  N   LIG    1        3.786  -6.622  -6.817  0.00  0.00    -0.540 NA
ENDBRANCH  20  24
ENDBRANCH  18  20
ENDBRANCH   1  18
TORSDOF 5
