REMARK  Name = ZINCpk000000oNXO.0
REMARK                            x       y       z     vdW  Elec       q    Type
REMARK                         _______ _______ _______ _____ _____    ______ ____
ROOT
ATOM      1  N   LIG    1        1.176  -2.201  -0.074  0.00  0.00    -0.520 NA
ATOM      2  C   LIG    1        0.419  -2.608  -1.264  0.00  0.00    +0.190 C 
ATOM      3  C   LIG    1        0.167  -4.117  -1.218  0.00  0.00    +0.030 C 
ATOM      4  C   LIG    1        1.508  -4.853  -1.166  0.00  0.00    +0.240 C 
ATOM      5  C   LIG    1        2.297  -4.375   0.056  0.00  0.00    +0.040 C 
ATOM      6  C   LIG    1        2.488  -2.859  -0.027  0.00  0.00    +0.180 C 
ENDROOT
BRANCH   4   7
ATOM      7  N   LIG    1        1.272  -6.295  -1.063  0.00  0.00    -0.720 N 
ATOM      8  H   LIG    1        1.262  -6.724  -0.193  0.00  0.00    +0.400 HD
ATOM      9  C   LIG    1        1.069  -7.026  -2.176  0.00  0.00    +0.590 C 
ATOM     10  O   LIG    1        1.081  -6.488  -3.268  0.00  0.00    -0.530 OA
BRANCH   9  11
ATOM     11  C   LIG    1        0.832  -8.469  -2.073  0.00  0.00    -0.280 A 
ATOM     12  C   LIG    1        0.609  -9.313  -3.124  0.00  0.00    +0.110 A 
ATOM     13  C   LIG    1        0.421 -10.620  -2.742  0.00  0.00    -0.010 A 
ATOM     14  C   LIG    1        0.478 -10.839  -1.423  0.00  0.00    -0.190 A 
ATOM     15  C   LIG    1        0.297 -12.187  -0.772  0.00  0.00    +0.140 C 
ATOM     16  S   LIG    1        0.783  -9.390  -0.576  0.00  0.00    +0.200 S 
ENDBRANCH   9  11
ENDBRANCH   4   7
BRANCH   1  17
ATOM     17  C   LIG    1        1.317  -0.740  -0.015  0.00  0.00    +0.140 C 
ATOM     18  C   LIG    1       -0.062  -0.088  -0.140  0.00  0.00    +0.080 C 
BRANCH  17  24
ATOM     19  N   LIG    1        3.929   2.278   2.665  0.00  0.00    -0.740 N 
ATOM     20  H   LIG    1        4.048   2.842   1.885  0.00  0.00    +0.400 HD
ATOM     21  C   LIG    1        3.211   1.142   2.571  0.00  0.00    +0.690 C 
ATOM     22  N   LIG    1        2.658   0.789   1.394  0.00  0.00    -0.690 N 
ATOM     23  H   LIG    1        2.774   1.355   0.615  0.00  0.00    +0.410 HD
ATOM     24  C   LIG    1        1.940  -0.348   1.301  0.00  0.00    +0.520 C 
ATOM     25  O   LIG    1        1.796  -1.056   2.274  0.00  0.00    -0.440 OA
ATOM     26  O   LIG    1        3.062   0.435   3.549  0.00  0.00    -0.530 OA
BRANCH  19  28
ATOM     27  C   LIG    1        5.285   3.982   3.778  0.00  0.00    +0.030 C 
ATOM     28  C   LIG    1        4.530   2.662   3.945  0.00  0.00    +0.270 C 
ENDBRANCH  19  28
ENDBRANCH  17  24
ENDBRANCH   1  17
TORSDOF 5
