REMARK  Name = ZINCvU00000006JQ.0
REMARK                            x       y       z     vdW  Elec       q    Type
REMARK                         _______ _______ _______ _____ _____    ______ ____
ROOT
ATOM      1  N   LIG    1        3.447  -0.880  -0.035  0.00  0.00    -0.430 N 
ATOM      2  C   LIG    1        2.421   0.053  -0.021  0.00  0.00    +0.060 A 
ATOM      3  C   LIG    1        2.384   1.439  -0.013  0.00  0.00    +0.010 A 
ATOM      4  C   LIG    1        1.168   2.093   0.002  0.00  0.00    +0.030 A 
ATOM      5  C   LIG    1       -0.017   1.373   0.010  0.00  0.00    +0.010 A 
ATOM      6  C   LIG    1        0.002  -0.004   0.002  0.00  0.00    +0.060 A 
ATOM      7  C   LIG    1        1.224  -0.681  -0.013  0.00  0.00    +0.060 A 
ATOM      8  N   LIG    1        1.560  -1.998  -0.024  0.00  0.00    -0.490 NA
ATOM      9  C   LIG    1        2.865  -2.119  -0.037  0.00  0.00    +0.260 A 
ENDROOT
BRANCH   1  13
ATOM     10  C   LIG    1        7.537  -0.065  -0.070  0.00  0.00    +0.150 A 
ATOM     11  C   LIG    1        6.967  -0.704   1.021  0.00  0.00    +0.000 A 
ATOM     12  C   LIG    1        5.613  -0.975   1.033  0.00  0.00    +0.080 A 
ATOM     13  C   LIG    1        4.822  -0.606  -0.047  0.00  0.00    +0.070 A 
ATOM     14  C   LIG    1        5.395   0.029  -1.141  0.00  0.00    +0.070 A 
ATOM     15  C   LIG    1        6.748   0.303  -1.150  0.00  0.00    -0.060 A 
BRANCH  10  17
ATOM     16  C   LIG    1        9.391   0.862  -1.237  0.00  0.00    +0.250 C 
ATOM     17  O   LIG    1        8.871   0.201  -0.081  0.00  0.00    -0.310 OA
ENDBRANCH  10  17
ENDBRANCH   1  13
BRANCH   9  18
ATOM     18  S   LIG    1        3.740  -3.648  -0.054  0.00  0.00    +0.050 S 
BRANCH  18  19
ATOM     19  C   LIG    1        2.349  -4.806  -0.046  0.00  0.00    +0.010 C 
ATOM     20  C   LIG    1        1.580  -4.671   1.269  0.00  0.00    +0.100 C 
BRANCH  19  21
ATOM     21  C   LIG    1        2.867  -6.215  -0.183  0.00  0.00    +0.420 C 
ATOM     22  O   LIG    1        3.997  -6.483   0.169  0.00  0.00    -0.410 OA
BRANCH  21  23
ATOM     23  C   LIG    1        2.006  -7.262  -0.742  0.00  0.00    -0.250 A 
ATOM     24  C   LIG    1        0.697  -6.958  -1.145  0.00  0.00    +0.210 A 
ATOM     25  C   LIG    1       -0.105  -7.949  -1.676  0.00  0.00    -0.040 A 
ATOM     26  C   LIG    1        0.376  -9.243  -1.799  0.00  0.00    +0.200 A 
ATOM     27  C   LIG    1        1.667  -9.554  -1.398  0.00  0.00    -0.050 A 
ATOM     28  F   LIG    1       -0.417 -10.208  -2.314  0.00  0.00    -0.110 F 
ATOM     29  F   LIG    1        0.225  -5.699  -1.020  0.00  0.00    -0.100 F 
ATOM     30  C   LIG    1        2.484  -8.575  -0.871  0.00  0.00    +0.230 A 
ATOM     31  F   LIG    1        3.741  -8.879  -0.481  0.00  0.00    -0.090 F 
ENDBRANCH  21  23
ENDBRANCH  19  21
ENDBRANCH  18  19
ENDBRANCH   9  18
TORSDOF 6
