REMARK  Name = ZINCrg00001JduXZ.0
REMARK                            x       y       z     vdW  Elec       q    Type
REMARK                         _______ _______ _______ _____ _____    ______ ____
ROOT
ATOM      1  C   LIG    1        2.305  -3.734  -1.594  0.00  0.00    +0.310 C 
ENDROOT
BRANCH   1   2
ATOM      2  C   LIG    1        2.330  -4.101  -3.055  0.00  0.00    -0.010 A 
ATOM      3  C   LIG    1        3.403  -4.067  -3.880  0.00  0.00    +0.190 A 
ATOM      4  N   LIG    1        2.961  -4.481  -5.090  0.00  0.00    -0.310 N 
ATOM      5  N   LIG    1        1.703  -4.737  -4.995  0.00  0.00    -0.080 NA
ATOM      6  N   LIG    1        1.296  -4.521  -3.793  0.00  0.00    -0.240 NA
BRANCH   4   7
ATOM      7  C   LIG    1        3.773  -4.610  -6.303  0.00  0.00    +0.530 C 
BRANCH   7   8
ATOM      8  O   LIG    1        5.144  -4.230  -6.010  0.00  0.00    -0.360 OA
BRANCH   8   9
ATOM      9  C   LIG    1        6.023  -4.293  -7.022  0.00  0.00    +0.490 C 
ATOM     10  O   LIG    1        5.660  -4.654  -8.116  0.00  0.00    -0.490 OA
BRANCH   9  11
ATOM     11  C   LIG    1        7.463  -3.914  -6.793  0.00  0.00    -0.050 C 
ATOM     12  C   LIG    1        8.067  -4.825  -5.722  0.00  0.00    +0.060 C 
ATOM     13  C   LIG    1        7.540  -2.459  -6.327  0.00  0.00    +0.060 C 
ATOM     14  C   LIG    1        8.246  -4.074  -8.098  0.00  0.00    +0.080 C 
ENDBRANCH   9  11
ENDBRANCH   8   9
ENDBRANCH   7   8
ENDBRANCH   4   7
ENDBRANCH   1   2
BRANCH   1  15
ATOM     15  N   LIG    1        1.866  -2.340  -1.447  0.00  0.00    -0.520 NA
BRANCH  15  16
ATOM     16  C   LIG    1        1.708  -1.984  -0.031  0.00  0.00    +0.310 C 
BRANCH  16  21
ATOM     17  N   LIG    1       -0.297  -0.434   0.150  0.00  0.00    -0.360 N 
ATOM     18  N   LIG    1       -0.474   0.957   0.238  0.00  0.00    -0.320 NA
ATOM     19  C   LIG    1        0.719   1.491   0.214  0.00  0.00    +0.420 A 
ATOM     20  N   LIG    1        1.626   0.520   0.117  0.00  0.00    -0.540 NA
ATOM     21  C   LIG    1        1.028  -0.643   0.078  0.00  0.00    +0.290 A 
BRANCH  17  23
ATOM     22  C   LIG    1       -1.781  -1.726  -1.303  0.00  0.00    +0.050 C 
ATOM     23  C   LIG    1       -1.349  -1.454   0.139  0.00  0.00    +0.330 C 
ENDBRANCH  17  23
ENDBRANCH  16  21
ENDBRANCH  15  16
BRANCH  15  24
ATOM     24  C   LIG    1        2.794  -1.422  -2.120  0.00  0.00    +0.230 C 
BRANCH  24  25
ATOM     25  C   LIG    1        4.116  -1.377  -1.350  0.00  0.00    +0.150 C 
BRANCH  25  26
ATOM     26  O   LIG    1        4.766  -2.646  -1.445  0.00  0.00    -0.390 OA
ATOM     27  C   LIG    1        6.016  -2.712  -0.756  0.00  0.00    +0.200 C 
ENDBRANCH  25  26
ENDBRANCH  24  25
ENDBRANCH  15  24
ENDBRANCH   1  15
TORSDOF 12
