REMARK  Name = ZINCvU0000000CRf.0
REMARK                            x       y       z     vdW  Elec       q    Type
REMARK                         _______ _______ _______ _____ _____    ______ ____
ROOT
ATOM      1  N   LIG    1       -2.445  -0.104   0.024  0.00  0.00    -0.700 N 
ATOM      2  H   LIG    1       -2.458   0.866   0.029  0.00  0.00    +0.410 HD
ATOM      3  C   LIG    1       -1.268  -0.761   0.010  0.00  0.00    +0.590 C 
ATOM      4  O   LIG    1       -1.251  -1.977   0.003  0.00  0.00    -0.520 OA
ENDROOT
BRANCH   3   5
ATOM      5  C   LIG    1        0.002  -0.004   0.002  0.00  0.00    -0.030 A 
ATOM      6  C   LIG    1        1.219  -0.683  -0.013  0.00  0.00    +0.350 A 
ATOM      7  N   LIG    1        2.353  -0.006  -0.020  0.00  0.00    -0.500 NA
ATOM      8  C   LIG    1        2.333   1.320  -0.013  0.00  0.00    +0.300 A 
ATOM      9  C   LIG    1        1.114   2.001   0.002  0.00  0.00    +0.240 A 
ATOM     10  N   LIG    1       -0.016   1.328   0.009  0.00  0.00    -0.380 NA
BRANCH   8  11
ATOM     11  O   LIG    1        3.496   2.014  -0.021  0.00  0.00    -0.280 OA
BRANCH  11  12
ATOM     12  C   LIG    1        4.706   1.253  -0.036  0.00  0.00    +0.270 C 
BRANCH  12  13
ATOM     13  C   LIG    1        5.888   2.189  -0.042  0.00  0.00    -0.100 A 
ATOM     14  C   LIG    1        6.422   2.619  -1.242  0.00  0.00    +0.030 A 
ATOM     15  C   LIG    1        7.503   3.481  -1.248  0.00  0.00    +0.010 A 
ATOM     16  C   LIG    1        8.056   3.904  -0.054  0.00  0.00    +0.020 A 
ATOM     17  C   LIG    1        7.525   3.469   1.146  0.00  0.00    +0.010 A 
ATOM     18  C   LIG    1        6.441   2.611   1.152  0.00  0.00    +0.030 A 
ENDBRANCH  12  13
ENDBRANCH  11  12
ENDBRANCH   8  11
ENDBRANCH   3   5
BRANCH   1  19
ATOM     19  C   LIG    1       -3.703  -0.854   0.031  0.00  0.00    +0.300 C 
BRANCH  19  20
ATOM     20  C   LIG    1       -4.788  -0.009   0.646  0.00  0.00    -0.060 A 
ATOM     21  C   LIG    1       -4.854   1.343   0.366  0.00  0.00    +0.030 A 
ATOM     22  C   LIG    1       -5.852   2.118   0.927  0.00  0.00    +0.070 A 
ATOM     23  C   LIG    1       -6.779   1.543   1.775  0.00  0.00    -0.180 A 
ATOM     24  C   LIG    1       -6.711   0.192   2.059  0.00  0.00    +0.070 A 
ATOM     25  C   LIG    1       -5.715  -0.584   1.496  0.00  0.00    +0.030 A 
BRANCH  23  26
ATOM     26  C   LIG    1       -7.865   2.388   2.389  0.00  0.00    +0.510 C 
ATOM     27  F   LIG    1       -9.002   1.602   2.604  0.00  0.00    -0.180 F 
ATOM     28  F   LIG    1       -8.183   3.440   1.524  0.00  0.00    -0.180 F 
ATOM     29  F   LIG    1       -7.419   2.906   3.609  0.00  0.00    -0.180 F 
ENDBRANCH  23  26
ENDBRANCH  19  20
BRANCH  19  31
ATOM     30  C   LIG    1       -4.143   0.056  -2.253  0.00  0.00    +0.020 C 
ATOM     31  C   LIG    1       -4.090  -1.216  -1.404  0.00  0.00    -0.020 C 
ATOM     32  C   LIG    1       -3.050  -2.175  -1.986  0.00  0.00    +0.030 C 
ENDBRANCH  19  31
ENDBRANCH   1  19
TORSDOF 8
