REMARK  Name = ZINCvU0000000Cc6.0
REMARK                            x       y       z     vdW  Elec       q    Type
REMARK                         _______ _______ _______ _____ _____    ______ ____
ROOT
ATOM      1  C   LIG    1       -1.081  -2.090   0.091  0.00  0.00    +0.110 A 
ATOM      2  C   LIG    1        0.156  -2.716   0.166  0.00  0.00    +0.030 A 
ATOM      3  C   LIG    1        0.229  -4.092   0.253  0.00  0.00    -0.050 A 
ATOM      4  C   LIG    1       -0.934  -4.850   0.254  0.00  0.00    +0.120 A 
ATOM      5  C   LIG    1       -2.170  -4.225   0.174  0.00  0.00    +0.010 A 
ATOM      6  C   LIG    1       -2.244  -2.849   0.093  0.00  0.00    +0.070 A 
ENDROOT
BRANCH   1   8
ATOM      7  C   LIG    1       -2.169  -0.037   0.608  0.00  0.00    +0.560 C 
ATOM      8  N   LIG    1       -1.156  -0.694   0.009  0.00  0.00    -0.670 N 
ATOM      9  H   LIG    1       -0.478  -0.200  -0.478  0.00  0.00    +0.410 HD
ATOM     10  O   LIG    1       -3.063  -0.660   1.147  0.00  0.00    -0.520 OA
BRANCH   7  14
ATOM     11  C   LIG    1       -2.238   4.210   0.611  0.00  0.00    -0.060 A 
ATOM     12  C   LIG    1       -3.257   3.504   1.225  0.00  0.00    +0.030 A 
ATOM     13  C   LIG    1       -3.241   2.125   1.228  0.00  0.00    +0.080 A 
ATOM     14  C   LIG    1       -2.193   1.441   0.609  0.00  0.00    -0.130 A 
ATOM     15  C   LIG    1       -1.165   2.159  -0.004  0.00  0.00    +0.040 A 
ATOM     16  C   LIG    1       -1.196   3.539  -0.004  0.00  0.00    +0.030 A 
BRANCH  11  17
ATOM     17  C   LIG    1       -2.262   5.717   0.613  0.00  0.00    +0.220 C 
BRANCH  17  18
ATOM     18  O   LIG    1       -1.580   6.203   1.770  0.00  0.00    -0.380 OA
BRANCH  18  20
ATOM     19  C   LIG    1       -2.771   8.116   2.642  0.00  0.00    +0.010 C 
ATOM     20  C   LIG    1       -1.545   7.628   1.868  0.00  0.00    +0.140 C 
ATOM     21  C   LIG    1       -0.274   8.058   2.603  0.00  0.00    +0.040 C 
ENDBRANCH  18  20
ENDBRANCH  17  18
ENDBRANCH  11  17
ENDBRANCH   7  14
ENDBRANCH   1   8
BRANCH   4  22
ATOM     22  O   LIG    1       -0.861  -6.205   0.334  0.00  0.00    -0.310 OA
BRANCH  22  23
ATOM     23  C   LIG    1        0.444  -6.782   0.414  0.00  0.00    +0.310 C 
BRANCH  23  24
ATOM     24  C   LIG    1        0.327  -8.282   0.494  0.00  0.00    +0.050 A 
ATOM     25  C   LIG    1       -0.828  -8.983   0.492  0.00  0.00    +0.120 A 
ATOM     26  N   LIG    1       -0.496 -10.308   0.579  0.00  0.00    -0.360 N 
ATOM     27  C   LIG    1       -1.247 -11.447   0.616  0.00  0.00    +0.230 A 
ATOM     28  C   LIG    1       -0.656 -12.657   0.706  0.00  0.00    +0.010 A 
ATOM     29  C   LIG    1        0.744 -12.759   0.763  0.00  0.00    +0.050 A 
ATOM     30  C   LIG    1        1.504 -11.632   0.727  0.00  0.00    +0.070 A 
ATOM     31  C   LIG    1        0.872 -10.376   0.633  0.00  0.00    +0.230 A 
ATOM     32  N   LIG    1        1.347  -9.140   0.574  0.00  0.00    -0.480 NA
ENDBRANCH  23  24
ENDBRANCH  22  23
ENDBRANCH   4  22
TORSDOF 8
