REMARK  Name = ZINCvU0000000D3Q.0
REMARK                            x       y       z     vdW  Elec       q    Type
REMARK                         _______ _______ _______ _____ _____    ______ ____
ROOT
ATOM      1  C   LIG    1        4.275   3.269  -0.021  0.00  0.00    +0.110 C 
ENDROOT
BRANCH   1   2
ATOM      2  C   LIG    1        3.773   1.848  -0.024  0.00  0.00    -0.160 A 
ATOM      3  C   LIG    1        4.524   0.735  -0.036  0.00  0.00    +0.230 A 
ATOM      4  N   LIG    1        3.720  -0.371  -0.034  0.00  0.00    -0.590 N 
ATOM      5  H   LIG    1        4.034  -1.289  -0.042  0.00  0.00    +0.420 HD
ATOM      6  C   LIG    1        2.397   0.012  -0.020  0.00  0.00    +0.100 A 
ATOM      7  C   LIG    1        1.197  -0.691  -0.013  0.00  0.00    -0.010 A 
ATOM      8  C   LIG    1        0.002  -0.004   0.002  0.00  0.00    +0.030 A 
ATOM      9  C   LIG    1       -0.017   1.384   0.010  0.00  0.00    -0.020 A 
ATOM     10  C   LIG    1        1.151   2.094   0.002  0.00  0.00    +0.050 A 
ATOM     11  C   LIG    1        2.373   1.419  -0.013  0.00  0.00    -0.100 A 
ENDBRANCH   1   2
BRANCH   1  12
ATOM     12  C   LIG    1        5.101   3.512  -1.257  0.00  0.00    -0.070 A 
ATOM     13  C   LIG    1        6.239   2.761  -1.488  0.00  0.00    +0.010 A 
ATOM     14  C   LIG    1        6.994   2.982  -2.624  0.00  0.00    +0.000 A 
ATOM     15  C   LIG    1        6.617   3.959  -3.526  0.00  0.00    +0.000 A 
ATOM     16  C   LIG    1        5.482   4.714  -3.293  0.00  0.00    +0.000 A 
ATOM     17  C   LIG    1        4.724   4.490  -2.159  0.00  0.00    +0.000 A 
ENDBRANCH   1  12
BRANCH   1  18
ATOM     18  C   LIG    1        5.137   3.502   1.222  0.00  0.00    +0.270 C 
BRANCH  18  21
ATOM     19  O   LIG    1        6.660   4.582   3.166  0.00  0.00    -0.520 OA
ATOM     20  C   LIG    1        6.293   5.354   2.305  0.00  0.00    +0.520 C 
ATOM     21  N   LIG    1        5.526   4.913   1.288  0.00  0.00    -0.730 N 
ATOM     22  H   LIG    1        5.233   5.530   0.599  0.00  0.00    +0.400 HD
BRANCH  20  23
ATOM     23  C   LIG    1        6.694   6.805   2.373  0.00  0.00    +0.150 C 
BRANCH  23  24
ATOM     24  C   LIG    1        7.542   7.035   3.597  0.00  0.00    +0.090 A 
ATOM     25  C   LIG    1        8.759   7.585   3.524  0.00  0.00    -0.060 A 
ATOM     26  S   LIG    1        9.419   7.683   5.155  0.00  0.00    +0.140 S 
ATOM     27  C   LIG    1        7.947   6.952   5.790  0.00  0.00    +0.130 A 
ATOM     28  N   LIG    1        7.130   6.714   4.801  0.00  0.00    -0.430 NA
BRANCH  27  29
ATOM     29  C   LIG    1        7.680   6.664   7.208  0.00  0.00    +0.050 A 
ATOM     30  C   LIG    1        8.524   6.913   8.248  0.00  0.00    -0.010 A 
ATOM     31  C   LIG    1        7.867   6.482   9.415  0.00  0.00    -0.050 A 
ATOM     32  C   LIG    1        6.668   5.995   9.038  0.00  0.00    +0.200 A 
ATOM     33  O   LIG    1        6.556   6.112   7.705  0.00  0.00    -0.150 OA
ENDBRANCH  27  29
ENDBRANCH  23  24
ENDBRANCH  20  23
ENDBRANCH  18  21
ENDBRANCH   1  18
TORSDOF 7
