REMARK  Name = ZINCvU0000000ETg.0
REMARK                            x       y       z     vdW  Elec       q    Type
REMARK                         _______ _______ _______ _____ _____    ______ ____
ROOT
ATOM      1  C   LIG    1       -2.365  -0.210   2.470  0.00  0.00    -0.670 A 
ATOM      2  C   LIG    1       -1.118  -0.220   3.070  0.00  0.00    +0.200 A 
ATOM      3  C   LIG    1       -1.004  -0.026   4.432  0.00  0.00    +0.050 A 
ATOM      4  C   LIG    1       -2.150   0.169   5.204  0.00  0.00    +0.160 A 
ATOM      5  C   LIG    1       -3.405   0.172   4.592  0.00  0.00    -0.020 A 
ATOM      6  C   LIG    1       -3.505  -0.018   3.230  0.00  0.00    +0.230 A 
ENDROOT
BRANCH   1   7
ATOM      7  S   LIG    1       -2.501  -0.452   0.730  0.00  0.00    +2.700 S 
ATOM      8  O   LIG    1       -1.328  -1.147   0.328  0.00  0.00    -0.930 OA
ATOM      9  O   LIG    1       -3.814  -0.942   0.494  0.00  0.00    -0.930 OA
BRANCH   7  10
ATOM     10  N   LIG    1       -2.426   1.042   0.020  0.00  0.00    -1.050 N 
ATOM     11  H   LIG    1       -3.169   1.364  -0.513  0.00  0.00    +0.430 HD
BRANCH  10  16
ATOM     12  C   LIG    1        2.181   4.279   0.696  0.00  0.00    +0.090 C 
ATOM     13  C   LIG    1        0.957   3.419   0.518  0.00  0.00    -0.090 A 
ATOM     14  C   LIG    1        1.087   2.046   0.417  0.00  0.00    +0.030 A 
ATOM     15  C   LIG    1       -0.033   1.254   0.255  0.00  0.00    -0.010 A 
ATOM     16  C   LIG    1       -1.291   1.839   0.189  0.00  0.00    +0.140 A 
ATOM     17  C   LIG    1       -1.419   3.219   0.296  0.00  0.00    -0.090 A 
ATOM     18  C   LIG    1       -2.783   3.857   0.229  0.00  0.00    +0.100 C 
ATOM     19  C   LIG    1       -0.295   4.004   0.458  0.00  0.00    +0.030 A 
ENDBRANCH  10  16
ENDBRANCH   7  10
ENDBRANCH   1   7
BRANCH   5  20
ATOM     20  N   LIG    1       -4.626   0.378   5.404  0.00  0.00    +0.020 N 
ATOM     21  O   LIG    1       -4.537   0.545   6.607  0.00  0.00    -0.100 OA
ATOM     22  O   LIG    1       -5.720   0.381   4.868  0.00  0.00    -0.170 OA
ENDBRANCH   5  20
BRANCH   4  23
ATOM     23  N   LIG    1       -2.044   0.357   6.558  0.00  0.00    -0.180 NA
ATOM     24  N   LIG    1       -0.928   0.354   7.098  0.00  0.00    -0.180 NA
BRANCH  24  25
ATOM     25  C   LIG    1       -0.815   0.555   8.545  0.00  0.00    +0.280 C 
BRANCH  25  26
ATOM     26  C   LIG    1       -0.158  -0.649   9.170  0.00  0.00    -0.060 A 
ATOM     27  C   LIG    1        1.158  -0.581   9.586  0.00  0.00    +0.050 A 
ATOM     28  C   LIG    1        1.760  -1.685  10.160  0.00  0.00    +0.030 A 
ATOM     29  C   LIG    1        1.047  -2.858  10.316  0.00  0.00    +0.040 A 
ATOM     30  C   LIG    1       -0.269  -2.929   9.900  0.00  0.00    +0.050 A 
ATOM     31  C   LIG    1       -0.874  -1.822   9.332  0.00  0.00    -0.090 A 
ATOM     32 BR   LIG    1       -2.677  -1.915   8.769  0.00  0.00    -0.030 Br
ENDBRANCH  25  26
ENDBRANCH  24  25
ENDBRANCH   4  23
TORSDOF 7
