REMARK  Name = ZINCpk00000e9K7d.0
REMARK                            x       y       z     vdW  Elec       q    Type
REMARK                         _______ _______ _______ _____ _____    ______ ____
ROOT
ATOM      1  C   LIG    1       -1.010   2.003   0.652  0.00  0.00    +0.590 C 
ATOM      2  N   LIG    1       -0.231   0.904   0.606  0.00  0.00    -0.630 N 
ATOM      3  C   LIG    1        1.212   0.625   0.663  0.00  0.00    +0.350 C 
ATOM      4  C   LIG    1        0.867  -0.760   1.228  0.00  0.00    -0.480 C 
ATOM      5  C   LIG    1       -0.451  -0.544   0.470  0.00  0.00    +0.350 C 
ATOM      6  O   LIG    1       -2.213   1.902   0.512  0.00  0.00    -0.520 OA
ENDROOT
BRANCH   1   9
ATOM      7  C   LIG    1       -0.578   5.692   1.282  0.00  0.00    +0.400 A 
ATOM      8  C   LIG    1       -1.194   4.463   1.074  0.00  0.00    -0.030 A 
ATOM      9  C   LIG    1       -0.399   3.334   0.873  0.00  0.00    -0.040 A 
ATOM     10  C   LIG    1        0.992   3.495   0.880  0.00  0.00    -0.080 A 
ATOM     11  C   LIG    1        1.523   4.751   1.088  0.00  0.00    +0.310 A 
ATOM     12  N   LIG    1        0.741   5.796   1.280  0.00  0.00    -0.530 NA
BRANCH   7  14
ATOM     13  C   LIG    1       -2.797   6.693   1.721  0.00  0.00    +0.300 C 
ATOM     14  N   LIG    1       -1.357   6.826   1.488  0.00  0.00    -0.620 N 
ATOM     15  C   LIG    1       -0.737   8.153   1.472  0.00  0.00    +0.300 C 
ENDBRANCH   7  14
ENDBRANCH   1   9
BRANCH   4  16
ATOM     16  S   LIG    1        1.890  -2.107   0.573  0.00  0.00    +2.620 S 
ATOM     17  O   LIG    1        2.441  -1.747  -0.686  0.00  0.00    -0.940 OA
ATOM     18  O   LIG    1        1.245  -3.359   0.760  0.00  0.00    -0.930 OA
BRANCH  16  19
ATOM     19  N   LIG    1        3.196  -2.165   1.589  0.00  0.00    -1.060 N 
ATOM     20  H   LIG    1        4.083  -1.964   1.251  0.00  0.00    +0.430 HD
BRANCH  19  21
ATOM     21  C   LIG    1        3.022  -2.504   2.933  0.00  0.00    +0.110 A 
ATOM     22  C   LIG    1        3.083  -1.521   3.912  0.00  0.00    +0.010 A 
ATOM     23  C   LIG    1        2.905  -1.859   5.239  0.00  0.00    +0.020 A 
ATOM     24  C   LIG    1        2.676  -3.176   5.595  0.00  0.00    +0.020 A 
ATOM     25  C   LIG    1        2.620  -4.158   4.622  0.00  0.00    +0.020 A 
ATOM     26  C   LIG    1        2.792  -3.826   3.293  0.00  0.00    +0.040 A 
ENDBRANCH  19  21
ENDBRANCH  16  19
ENDBRANCH   4  16
TORSDOF 5
