REMARK  Name = ZINCAx0000000dAq.0
REMARK                            x       y       z     vdW  Elec       q    Type
REMARK                         _______ _______ _______ _____ _____    ______ ____
ROOT
ATOM      1  C   LIG    1      -10.550   4.037   0.077  0.00  0.00    +0.370 C 
ENDROOT
BRANCH   1   3
ATOM      2  C   LIG    1      -12.975   4.274   0.090  0.00  0.00    +0.570 C 
ATOM      3  N   LIG    1      -11.898   3.464   0.080  0.00  0.00    -0.720 N 
ATOM      4  H   LIG    1      -12.015   2.501   0.075  0.00  0.00    +0.410 HD
ATOM      5  O   LIG    1      -12.827   5.481   0.096  0.00  0.00    -0.520 OA
BRANCH   2  10
ATOM      6  C   LIG    1      -16.719   3.985   0.106  0.00  0.00    -0.690 A 
ATOM      7  C   LIG    1      -16.883   2.611   0.098  0.00  0.00    +0.160 A 
ATOM      8  C   LIG    1      -15.780   1.777   0.088  0.00  0.00    +0.000 A 
ATOM      9  C   LIG    1      -14.508   2.310   0.080  0.00  0.00    +0.110 A 
ATOM     10  C   LIG    1      -14.335   3.695   0.093  0.00  0.00    -0.160 A 
ATOM     11  C   LIG    1      -15.452   4.532   0.103  0.00  0.00    +0.200 A 
BRANCH   6  12
ATOM     12  S   LIG    1      -18.131   5.039   0.119  0.00  0.00    +2.690 S 
ATOM     13  O   LIG    1      -17.703   6.277   0.669  0.00  0.00    -0.950 OA
ATOM     14  O   LIG    1      -19.198   4.274   0.664  0.00  0.00    -0.950 OA
BRANCH  12  15
ATOM     15  N   LIG    1      -18.532   5.342  -1.459  0.00  0.00    -0.990 NA
BRANCH  15  17
ATOM     16  C   LIG    1      -20.880   5.040  -2.072  0.00  0.00    +0.010 C 
ATOM     17  C   LIG    1      -19.468   4.459  -2.160  0.00  0.00    +0.280 C 
ENDBRANCH  15  17
BRANCH  15  18
ATOM     18  C   LIG    1      -17.950   6.492  -2.155  0.00  0.00    +0.300 C 
ATOM     19  C   LIG    1      -16.713   6.044  -2.936  0.00  0.00    +0.000 C 
ENDBRANCH  15  18
ENDBRANCH  12  15
ENDBRANCH   6  12
ENDBRANCH   2  10
ENDBRANCH   1   3
BRANCH   1  20
ATOM     20  C   LIG    1       -9.531   2.926   0.065  0.00  0.00    +0.470 C 
ATOM     21  O   LIG    1       -9.894   1.774   0.060  0.00  0.00    -0.500 OA
BRANCH  20  22
ATOM     22  O   LIG    1       -8.221   3.217   0.060  0.00  0.00    -0.320 OA
BRANCH  22  23
ATOM     23  C   LIG    1       -7.297   2.097   0.050  0.00  0.00    +0.300 C 
BRANCH  23  24
ATOM     24  C   LIG    1       -5.881   2.614   0.045  0.00  0.00    +0.520 C 
ATOM     25  N   LIG    1       -4.848   1.748   0.035  0.00  0.00    -0.620 N 
ATOM     26  H   LIG    1       -5.016   0.793   0.031  0.00  0.00    +0.430 HD
ATOM     27  O   LIG    1       -5.672   3.808   0.051  0.00  0.00    -0.470 OA
BRANCH  25  28
ATOM     28  C   LIG    1       -3.543   2.224   0.032  0.00  0.00    +0.270 A 
ATOM     29  N   LIG    1       -2.476   1.487   0.022  0.00  0.00    -0.490 NA
ATOM     30  C   LIG    1       -1.310   2.116   0.020  0.00  0.00    +0.130 A 
ATOM     31  C   LIG    1       -1.379   3.460   0.033  0.00  0.00    -0.110 A 
ATOM     32  S   LIG    1       -3.079   3.923   0.039  0.00  0.00    +0.210 S 
BRANCH  30  33
ATOM     33  C   LIG    1       -0.017   1.390   0.010  0.00  0.00    -0.030 A 
ATOM     34  C   LIG    1        1.184   2.098   0.002  0.00  0.00    +0.030 A 
ATOM     35  C   LIG    1        2.384   1.416  -0.013  0.00  0.00    +0.010 A 
ATOM     36  C   LIG    1        2.396   0.033  -0.020  0.00  0.00    +0.010 A 
ATOM     37  C   LIG    1        1.208  -0.675  -0.013  0.00  0.00    +0.010 A 
ATOM     38  C   LIG    1        0.002  -0.004   0.002  0.00  0.00    +0.040 A 
ENDBRANCH  30  33
ENDBRANCH  25  28
ENDBRANCH  23  24
ENDBRANCH  22  23
ENDBRANCH  20  22
ENDBRANCH   1  20
TORSDOF 12
