REMARK  Name = ZINCvU0000000IPg.0
REMARK                            x       y       z     vdW  Elec       q    Type
REMARK                         _______ _______ _______ _____ _____    ______ ____
ROOT
ATOM      1  C   LIG    1        0.015   0.849  -2.719  0.00  0.00    +0.260 A 
ATOM      2  N   LIG    1        1.045   0.066  -2.512  0.00  0.00    -0.490 NA
ATOM      3  C   LIG    1        1.513  -0.397  -3.701  0.00  0.00    +0.070 A 
ATOM      4  C   LIG    1        2.564  -1.247  -4.053  0.00  0.00    +0.080 A 
ATOM      5  C   LIG    1        2.798  -1.532  -5.381  0.00  0.00    -0.040 A 
ATOM      6  C   LIG    1        1.997  -0.981  -6.371  0.00  0.00    +0.050 A 
ATOM      7  C   LIG    1        0.954  -0.141  -6.038  0.00  0.00    +0.040 A 
ATOM      8 CL   LIG    1        4.105  -2.588  -5.818  0.00  0.00    -0.060 Cl
ATOM      9  C   LIG    1        0.705   0.157  -4.708  0.00  0.00    +0.060 A 
ATOM     10  N   LIG    1       -0.235   0.942  -4.059  0.00  0.00    -0.460 N 
ENDROOT
BRANCH   1  11
ATOM     11  S   LIG    1       -0.904   1.667  -1.458  0.00  0.00    +0.070 S 
BRANCH  11  13
ATOM     12  C   LIG    1        1.415   1.625  -0.015  0.00  0.00    +0.090 C 
ATOM     13  C   LIG    1       -0.016   1.084   0.007  0.00  0.00    +0.030 C 
BRANCH  13  14
ATOM     14  C   LIG    1       -0.718   1.572   1.248  0.00  0.00    +0.550 C 
ATOM     15  N   LIG    1       -0.595   0.890   2.404  0.00  0.00    -0.550 N 
ATOM     16  C   LIG    1        0.270  -0.276   2.604  0.00  0.00    +0.270 C 
ATOM     17  C   LIG    1        0.062  -0.685   4.071  0.00  0.00    +0.100 C 
ATOM     18  C   LIG    1       -0.945   0.309   4.605  0.00  0.00    -0.130 A 
ATOM     19  C   LIG    1       -1.515   0.437   5.856  0.00  0.00    +0.050 A 
ATOM     20  C   LIG    1       -2.428   1.446   6.104  0.00  0.00    -0.010 A 
ATOM     21  C   LIG    1       -2.768   2.328   5.095  0.00  0.00    +0.040 A 
ATOM     22  C   LIG    1       -2.200   2.205   3.844  0.00  0.00    +0.010 A 
ATOM     23  C   LIG    1       -1.279   1.188   3.587  0.00  0.00    +0.140 A 
ATOM     24  O   LIG    1       -1.394   2.578   1.206  0.00  0.00    -0.500 OA
ENDBRANCH  13  14
ENDBRANCH  11  13
ENDBRANCH   1  11
BRANCH  10  25
ATOM     25  C   LIG    1       -1.300   1.725  -4.692  0.00  0.00    +0.370 C 
BRANCH  25  26
ATOM     26  C   LIG    1       -0.791   3.111  -4.995  0.00  0.00    -0.120 A 
ATOM     27  C   LIG    1       -0.931   4.119  -4.059  0.00  0.00    +0.040 A 
ATOM     28  C   LIG    1       -0.460   5.388  -4.336  0.00  0.00    +0.010 A 
ATOM     29  C   LIG    1        0.141   5.653  -5.552  0.00  0.00    +0.020 A 
ATOM     30  C   LIG    1        0.276   4.647  -6.490  0.00  0.00    +0.010 A 
ATOM     31  C   LIG    1       -0.190   3.376  -6.212  0.00  0.00    +0.020 A 
ENDBRANCH  25  26
ENDBRANCH  10  25
TORSDOF 5
