REMARK  Name = ZINCpe00000MJMyl.0
REMARK                            x       y       z     vdW  Elec       q    Type
REMARK                         _______ _______ _______ _____ _____    ______ ____
ROOT
ATOM      1  C   LIG    1        0.056   1.215   0.080  0.00  0.00    +0.540 C 
ATOM      2  N   LIG    1        0.375   0.341  -0.895  0.00  0.00    -0.600 N 
ATOM      3  C   LIG    1       -0.599  -0.004  -1.940  0.00  0.00    +0.260 C 
ATOM      4  C   LIG    1        0.050   0.234  -3.312  0.00  0.00    +0.030 C 
ATOM      5  C   LIG    1        1.361  -0.551  -3.392  0.00  0.00    +0.010 C 
ATOM      6  C   LIG    1        2.323  -0.052  -2.311  0.00  0.00    +0.110 C 
ATOM      7  C   LIG    1        1.702  -0.289  -0.931  0.00  0.00    +0.340 C 
ATOM      8  O   LIG    1        0.835   1.424   0.985  0.00  0.00    -0.530 OA
ENDROOT
BRANCH   1   9
ATOM      9  C   LIG    1       -1.272   1.928   0.048  0.00  0.00    -0.030 C 
ATOM     10  C   LIG    1       -1.337   2.940   1.196  0.00  0.00    +0.040 C 
ATOM     11  C   LIG    1       -1.258   2.190   2.530  0.00  0.00    +0.220 C 
ATOM     12  O   LIG    1       -2.321   1.238   2.605  0.00  0.00    -0.380 OA
ATOM     13  C   LIG    1       -2.282   0.239   1.583  0.00  0.00    +0.210 C 
ATOM     14  C   LIG    1       -2.404   0.909   0.212  0.00  0.00    +0.020 C 
BRANCH   9  19
ATOM     15  C   LIG    1       -1.866   4.682  -4.997  0.00  0.00    +0.090 C 
ATOM     16  C   LIG    1       -1.711   3.964  -3.682  0.00  0.00    -0.080 A 
ATOM     17  C   LIG    1       -0.580   4.166  -2.913  0.00  0.00    +0.010 A 
ATOM     18  C   LIG    1       -0.438   3.507  -1.706  0.00  0.00    +0.030 A 
ATOM     19  C   LIG    1       -1.427   2.646  -1.268  0.00  0.00    -0.080 A 
ATOM     20  C   LIG    1       -2.555   2.440  -2.039  0.00  0.00    +0.010 A 
ATOM     21  C   LIG    1       -2.699   3.102  -3.244  0.00  0.00    +0.000 A 
ENDBRANCH   9  19
ENDBRANCH   1   9
BRANCH   6  22
ATOM     22  C   LIG    1        3.626  -0.803  -2.412  0.00  0.00    +0.500 C 
ATOM     23  O   LIG    1        3.816  -1.783  -1.723  0.00  0.00    -0.530 OA
ATOM     24  N   LIG    1        4.580  -0.385  -3.267  0.00  0.00    -0.850 N 
ATOM     25  H   LIG    1        5.419  -0.868  -3.332  0.00  0.00    +0.410 HD
ATOM     26  H   LIG    1        4.428   0.399  -3.818  0.00  0.00    +0.400 HD
ENDBRANCH   6  22
BRANCH   6  27
ATOM     27  O   LIG    1        2.562   1.345  -2.493  0.00  0.00    -0.530 OA
ATOM     28  H   LIG    1        2.955   1.569  -3.348  0.00  0.00    +0.370 HD
ENDBRANCH   6  27
TORSDOF 4
