REMARK  Name = ZINCpe000000ZvSr.0
REMARK                            x       y       z     vdW  Elec       q    Type
REMARK                         _______ _______ _______ _____ _____    ______ ____
ROOT
ATOM      1  O   LIG    1        3.622   1.752  -2.738  0.00  0.00    -0.520 OA
ATOM      2  C   LIG    1        2.764   2.251  -2.037  0.00  0.00    +0.560 C 
ATOM      3  N   LIG    1        1.909   1.464  -1.354  0.00  0.00    -0.600 N 
ATOM      4  C   LIG    1        0.921   2.050  -0.439  0.00  0.00    +0.260 C 
ATOM      5  C   LIG    1       -0.470   1.533  -0.819  0.00  0.00    +0.030 C 
ATOM      6  C   LIG    1       -0.456   0.003  -0.833  0.00  0.00    +0.020 C 
ATOM      7  C   LIG    1        0.545  -0.490  -1.881  0.00  0.00    +0.270 C 
ATOM      8  C   LIG    1        1.948   0.004  -1.512  0.00  0.00    +0.290 C 
ENDROOT
BRANCH   7   9
ATOM      9  N   LIG    1        0.535  -1.954  -1.916  0.00  0.00    -0.630 N 
ATOM     10  C   LIG    1        0.196  -2.776  -3.087  0.00  0.00    +0.250 C 
ATOM     11  C   LIG    1        0.347  -4.223  -2.579  0.00  0.00    +0.250 C 
ATOM     12  N   LIG    1        0.747  -4.063  -1.173  0.00  0.00    -0.740 N 
ATOM     13  H   LIG    1        0.923  -4.787  -0.552  0.00  0.00    +0.430 HD
ATOM     14  C   LIG    1        0.828  -2.757  -0.884  0.00  0.00    +0.700 C 
ATOM     15  O   LIG    1        1.140  -2.339   0.214  0.00  0.00    -0.580 OA
ENDBRANCH   7   9
BRANCH   2  16
ATOM     16  C   LIG    1        2.658   3.725  -1.932  0.00  0.00    -0.050 A 
ATOM     17  C   LIG    1        2.632   4.527  -3.078  0.00  0.00    +0.010 A 
ATOM     18  C   LIG    1        2.528   5.897  -2.938  0.00  0.00    +0.320 A 
ATOM     19  N   LIG    1        2.463   6.454  -1.745  0.00  0.00    -0.490 NA
ATOM     20  C   LIG    1        2.490   5.737  -0.635  0.00  0.00    +0.350 A 
ATOM     21  C   LIG    1        2.588   4.352  -0.686  0.00  0.00    -0.010 A 
BRANCH  20  22
ATOM     22  N   LIG    1        2.419   6.379   0.606  0.00  0.00    -0.410 N 
ATOM     23  C   LIG    1        2.229   7.721   0.819  0.00  0.00    +0.160 A 
ATOM     24  C   LIG    1        2.221   7.905   2.153  0.00  0.00    +0.150 A 
ATOM     25  N   LIG    1        2.410   6.715   2.742  0.00  0.00    -0.470 NA
ATOM     26  C   LIG    1        2.529   5.793   1.827  0.00  0.00    +0.400 A 
ENDBRANCH  20  22
ENDBRANCH   2  16
TORSDOF 3
