REMARK  Name = ZINCrg000000nPWy.0
REMARK                            x       y       z     vdW  Elec       q    Type
REMARK                         _______ _______ _______ _____ _____    ______ ____
ROOT
ATOM      1  C   LIG    1       -1.083   4.312   1.295  0.00  0.00    -0.740 A 
ATOM      2  C   LIG    1       -0.697   4.770   0.049  0.00  0.00    +0.230 A 
ATOM      3  C   LIG    1       -1.404   5.785  -0.566  0.00  0.00    -0.060 A 
ATOM      4  C   LIG    1       -2.498   6.354   0.075  0.00  0.00    +0.320 A 
ATOM      5  C   LIG    1       -2.879   5.896   1.329  0.00  0.00    -0.140 A 
ATOM      6  C   LIG    1       -2.171   4.877   1.936  0.00  0.00    +0.250 A 
ENDROOT
BRANCH   1   7
ATOM      7  S   LIG    1       -0.182   3.013   2.072  0.00  0.00    +2.700 S 
ATOM      8  O   LIG    1        1.117   3.026   1.497  0.00  0.00    -0.950 OA
ATOM      9  O   LIG    1       -0.416   3.141   3.468  0.00  0.00    -0.950 OA
BRANCH   7  10
ATOM     10  N   LIG    1       -0.884   1.586   1.610  0.00  0.00    -0.990 NA
BRANCH  10  12
ATOM     11  C   LIG    1       -1.295   1.291  -0.783  0.00  0.00    +0.000 C 
ATOM     12  C   LIG    1       -0.416   0.896   0.405  0.00  0.00    +0.300 C 
ENDBRANCH  10  12
BRANCH  10  13
ATOM     13  C   LIG    1       -1.972   1.013   2.406  0.00  0.00    +0.280 C 
ATOM     14  C   LIG    1       -1.401  -0.009   3.391  0.00  0.00    +0.010 C 
ENDBRANCH  10  13
ENDBRANCH   7  10
ENDBRANCH   1   7
BRANCH   5  15
ATOM     15  N   LIG    1       -4.043   6.499   2.016  0.00  0.00    +0.040 N 
ATOM     16  O   LIG    1       -4.793   5.800   2.673  0.00  0.00    -0.140 OA
ATOM     17  O   LIG    1       -4.251   7.696   1.924  0.00  0.00    -0.170 OA
ENDBRANCH   5  15
BRANCH   4  18
ATOM     18  N   LIG    1       -3.212   7.384  -0.542  0.00  0.00    -0.700 N 
ATOM     19  H   LIG    1       -4.024   7.722  -0.134  0.00  0.00    +0.420 HD
BRANCH  18  20
ATOM     20  C   LIG    1       -2.734   7.953  -1.804  0.00  0.00    +0.270 C 
BRANCH  20  21
ATOM     21  C   LIG    1       -3.691   9.056  -2.261  0.00  0.00    +0.130 C 
ATOM     22  C   LIG    1       -3.265   9.567  -3.641  0.00  0.00    +0.200 C 
ATOM     23  N   LIG    1       -4.367   9.343  -4.592  0.00  0.00    -0.510 NA
ATOM     24  C   LIG    1       -4.668   7.904  -4.691  0.00  0.00    +0.170 C 
ATOM     25  C   LIG    1       -5.094   7.393  -3.311  0.00  0.00    +0.170 C 
ATOM     26  C   LIG    1       -5.566  10.082  -4.161  0.00  0.00    +0.170 C 
ATOM     27  C   LIG    1       -5.993   9.571  -2.782  0.00  0.00    +0.190 C 
ATOM     28  N   LIG    1       -5.058   8.515  -2.357  0.00  0.00    -0.510 NA
ENDBRANCH  20  21
ENDBRANCH  18  20
ENDBRANCH   4  18
TORSDOF 8
