REMARK  Name = ZINCqH0000038TPf.0
REMARK                            x       y       z     vdW  Elec       q    Type
REMARK                         _______ _______ _______ _____ _____    ______ ____
ROOT
ATOM      1  N   LIG    1        5.452   2.281  -4.228  0.00  0.00    -0.530 NA
ATOM      2  C   LIG    1        6.336   3.437  -4.016  0.00  0.00    +0.140 C 
ATOM      3  C   LIG    1        5.486   4.673  -3.711  0.00  0.00    +0.230 C 
ATOM      4  O   LIG    1        4.659   4.408  -2.575  0.00  0.00    -0.380 OA
ATOM      5  C   LIG    1        3.785   3.289  -2.746  0.00  0.00    +0.220 C 
ATOM      6  C   LIG    1        4.618   2.039  -3.041  0.00  0.00    +0.170 C 
ENDROOT
BRANCH   5   7
ATOM      7  C   LIG    1        2.987   3.076  -1.486  0.00  0.00    -0.070 A 
ATOM      8  C   LIG    1        3.563   3.325  -0.253  0.00  0.00    +0.030 A 
ATOM      9  C   LIG    1        2.833   3.130   0.905  0.00  0.00    +0.020 A 
ATOM     10  C   LIG    1        1.525   2.692   0.833  0.00  0.00    -0.010 A 
ATOM     11  C   LIG    1        0.947   2.436  -0.402  0.00  0.00    +0.100 A 
ATOM     12  C   LIG    1        1.681   2.633  -1.562  0.00  0.00    +0.000 A 
BRANCH  11  13
ATOM     13  O   LIG    1       -0.338   2.000  -0.475  0.00  0.00    -0.500 OA
ATOM     14  H   LIG    1       -0.428   1.037  -0.459  0.00  0.00    +0.390 HD
ENDBRANCH  11  13
ENDBRANCH   5   7
BRANCH   1  15
ATOM     15  C   LIG    1        6.226   1.083  -4.580  0.00  0.00    +0.260 C 
BRANCH  15  19
ATOM     16  C   LIG    1        9.092   1.725  -8.641  0.00  0.00    +0.350 C 
ATOM     17  N   LIG    1        7.939   1.465  -7.777  0.00  0.00    -0.380 N 
ATOM     18  C   LIG    1        7.941   1.468  -6.427  0.00  0.00    +0.230 A 
ATOM     19  C   LIG    1        6.685   1.185  -6.011  0.00  0.00    -0.230 A 
ATOM     20  C   LIG    1        5.889   0.996  -7.146  0.00  0.00    +0.110 A 
ATOM     21  N   LIG    1        6.638   1.170  -8.204  0.00  0.00    -0.290 NA
BRANCH  20  22
ATOM     22  C   LIG    1        4.421   0.656  -7.148  0.00  0.00    +0.090 C 
ATOM     23  C   LIG    1        4.206  -0.671  -7.880  0.00  0.00    +0.020 C 
ATOM     24  C   LIG    1        2.715  -1.016  -7.883  0.00  0.00    +0.000 C 
ATOM     25  C   LIG    1        1.936   0.091  -8.595  0.00  0.00    +0.000 C 
ATOM     26  C   LIG    1        2.151   1.418  -7.864  0.00  0.00    +0.000 C 
ATOM     27  C   LIG    1        3.642   1.763  -7.861  0.00  0.00    +0.020 C 
ENDBRANCH  20  22
ENDBRANCH  15  19
ENDBRANCH   1  15
TORSDOF 5
