REMARK  Name = ZINCpe000000Y8Nz.0
REMARK                            x       y       z     vdW  Elec       q    Type
REMARK                         _______ _______ _______ _____ _____    ______ ____
ROOT
ATOM      1  C   LIG    1       -5.073   1.230   0.042  0.00  0.00    -0.240 A 
ATOM      2  C   LIG    1       -5.531   0.706   1.209  0.00  0.00    +0.080 A 
ATOM      3  C   LIG    1       -6.621  -0.194   1.178  0.00  0.00    -0.260 A 
ATOM      4  C   LIG    1       -7.205  -0.527  -0.046  0.00  0.00    +0.350 A 
ATOM      5  N   LIG    1       -8.208  -1.392   0.219  0.00  0.00    -0.380 N 
ATOM      6  N   LIG    1       -8.258  -1.604   1.601  0.00  0.00    -0.270 NA
ATOM      7  C   LIG    1       -9.095  -2.005  -0.774  0.00  0.00    +0.360 C 
ATOM      8  N   LIG    1       -6.720   0.018  -1.204  0.00  0.00    -0.610 N 
ATOM      9  H   LIG    1       -7.128  -0.215  -2.053  0.00  0.00    +0.410 HD
ATOM     10  C   LIG    1       -7.325  -0.902   2.180  0.00  0.00    +0.140 A 
ATOM     11  C   LIG    1       -7.045  -0.853   3.660  0.00  0.00    +0.170 C 
ATOM     12  C   LIG    1       -4.886   1.079   2.519  0.00  0.00    +0.110 C 
ATOM     13  C   LIG    1       -5.686   0.880  -1.175  0.00  0.00    +0.560 A 
ATOM     14  O   LIG    1       -5.272   1.359  -2.217  0.00  0.00    -0.530 OA
ENDROOT
BRANCH   1  15
ATOM     15  C   LIG    1       -3.913   2.192   0.052  0.00  0.00    +0.140 C 
BRANCH  15  16
ATOM     16  C   LIG    1       -2.610   1.421  -0.165  0.00  0.00    +0.070 C 
BRANCH  16  19
ATOM     17  N   LIG    1       -0.194   1.925  -0.329  0.00  0.00    -0.730 N 
ATOM     18  H   LIG    1       -0.037   0.977  -0.461  0.00  0.00    +0.410 HD
ATOM     19  C   LIG    1       -1.449   2.382  -0.155  0.00  0.00    +0.520 C 
ATOM     20  O   LIG    1       -1.646   3.568   0.009  0.00  0.00    -0.530 OA
BRANCH  17  21
ATOM     21  C   LIG    1        0.934   2.861  -0.326  0.00  0.00    +0.440 C 
BRANCH  21  26
ATOM     22  C   LIG    1        5.179   0.258   0.419  0.00  0.00    +0.250 C 
ATOM     23  C   LIG    1        4.031   0.990  -0.227  0.00  0.00    +0.170 A 
ATOM     24  N   LIG    1        3.857   1.176  -1.504  0.00  0.00    -0.290 NA
ATOM     25  N   LIG    1        2.772   1.841  -1.695  0.00  0.00    -0.260 NA
ATOM     26  C   LIG    1        2.217   2.102  -0.545  0.00  0.00    +0.140 A 
ATOM     27  O   LIG    1        3.002   1.575   0.410  0.00  0.00    -0.220 OA
ENDBRANCH  21  26
ENDBRANCH  17  21
ENDBRANCH  16  19
ENDBRANCH  15  16
ENDBRANCH   1  15
TORSDOF 5
