REMARK  Name = ZINCpe000000VmpT.0
REMARK                            x       y       z     vdW  Elec       q    Type
REMARK                         _______ _______ _______ _____ _____    ______ ____
ROOT
ATOM      1  C   LIG    1       -6.914  -2.969   4.590  0.00  0.00    +0.270 C 
ATOM      2  C   LIG    1       -7.092  -4.368   5.164  0.00  0.00    +0.100 C 
ATOM      3  C   LIG    1       -7.851  -5.249   4.207  0.00  0.00    -0.060 A 
ATOM      4  C   LIG    1       -8.451  -6.391   4.721  0.00  0.00    +0.010 A 
ATOM      5  C   LIG    1       -9.151  -7.248   3.897  0.00  0.00    +0.020 A 
ATOM      6  C   LIG    1       -9.258  -6.970   2.547  0.00  0.00    +0.010 A 
ATOM      7  C   LIG    1       -8.666  -5.833   2.034  0.00  0.00    +0.020 A 
ATOM      8  C   LIG    1       -7.964  -4.969   2.864  0.00  0.00    -0.100 A 
ATOM      9  C   LIG    1       -7.350  -3.740   2.241  0.00  0.00    +0.340 C 
ATOM     10  N   LIG    1       -6.444  -3.100   3.201  0.00  0.00    -0.610 N 
ATOM     11  C   LIG    1       -5.228  -2.655   2.827  0.00  0.00    +0.520 C 
ATOM     12  O   LIG    1       -4.543  -2.032   3.611  0.00  0.00    -0.490 OA
ENDROOT
BRANCH   1  13
ATOM     13  C   LIG    1       -5.895  -2.214   5.404  0.00  0.00    +0.480 C 
ATOM     14  O   LIG    1       -4.945  -2.794   5.873  0.00  0.00    -0.490 OA
BRANCH  13  16
ATOM     15  C   LIG    1       -5.024  -0.232   6.401  0.00  0.00    +0.270 C 
ATOM     16  O   LIG    1       -6.044  -0.895   5.608  0.00  0.00    -0.360 OA
ENDBRANCH  13  16
ENDBRANCH   1  13
BRANCH  11  17
ATOM     17  C   LIG    1       -4.719  -2.932   1.436  0.00  0.00    +0.220 C 
BRANCH  17  18
ATOM     18  N   LIG    1       -3.380  -2.346   1.279  0.00  0.00    -0.520 NA
ATOM     19  C   LIG    1       -2.754  -2.793   0.028  0.00  0.00    +0.180 C 
ATOM     20  C   LIG    1       -1.312  -2.284  -0.032  0.00  0.00    +0.040 C 
ATOM     21  C   LIG    1       -1.313  -0.754   0.043  0.00  0.00    -0.020 C 
ATOM     22  C   LIG    1       -2.013  -0.315   1.331  0.00  0.00    +0.040 C 
ATOM     23  C   LIG    1       -3.435  -0.881   1.352  0.00  0.00    +0.170 C 
BRANCH  21  24
ATOM     24  C   LIG    1        0.129  -0.242   0.044  0.00  0.00    +0.170 C 
BRANCH  24  25
ATOM     25  O   LIG    1        0.127   1.186  -0.003  0.00  0.00    -0.570 OA
ATOM     26  H   LIG    1        1.010   1.581  -0.005  0.00  0.00    +0.380 HD
ENDBRANCH  24  25
ENDBRANCH  21  24
ENDBRANCH  17  18
ENDBRANCH  11  17
TORSDOF 6
