REMARK  Name = ZINCAx000000085j.0
REMARK                            x       y       z     vdW  Elec       q    Type
REMARK                         _______ _______ _______ _____ _____    ______ ____
ROOT
ATOM      1  C   LIG    1       -0.566   2.903  -0.823  0.00  0.00    +0.060 C 
ENDROOT
BRANCH   1   2
ATOM      2  C   LIG    1        0.263   2.282  -1.918  0.00  0.00    +0.520 C 
ATOM      3  N   LIG    1       -0.212   2.238  -3.179  0.00  0.00    -0.600 N 
ATOM      4  C   LIG    1        0.545   1.665  -4.237  0.00  0.00    +0.270 C 
ATOM      5  C   LIG    1        1.590   2.619  -4.889  0.00  0.00    +0.000 C 
ATOM      6  C   LIG    1        0.944   4.042  -4.950  0.00  0.00    +0.250 C 
ATOM      7  N   LIG    1       -0.444   4.048  -5.257  0.00  0.00    -0.600 N 
ATOM      8  C   LIG    1       -1.389   4.118  -4.113  0.00  0.00    +0.280 C 
ATOM      9  C   LIG    1       -0.883   3.995  -6.530  0.00  0.00    +0.570 C 
ATOM     10  O   LIG    1       -2.066   3.838  -6.759  0.00  0.00    -0.520 OA
ATOM     11  C   LIG    1       -1.546   2.792  -3.526  0.00  0.00    +0.280 C 
ATOM     12  O   LIG    1        1.356   1.822  -1.665  0.00  0.00    -0.530 OA
BRANCH   9  13
ATOM     13  C   LIG    1        0.075   4.128  -7.649  0.00  0.00    -0.110 A 
ATOM     14  C   LIG    1       -0.366   4.554  -8.902  0.00  0.00    +0.070 A 
ATOM     15  C   LIG    1        0.532   4.676  -9.942  0.00  0.00    +0.040 A 
ATOM     16  C   LIG    1        1.869   4.378  -9.746  0.00  0.00    +0.010 A 
ATOM     17  C   LIG    1        2.314   3.955  -8.504  0.00  0.00    +0.090 A 
ATOM     18  F   LIG    1        3.621   3.665  -8.319  0.00  0.00    -0.130 F 
ATOM     19  C   LIG    1        1.425   3.833  -7.453  0.00  0.00    +0.010 A 
ENDBRANCH   9  13
ENDBRANCH   1   2
BRANCH   1  20
ATOM     20  C   LIG    1        0.198   2.824   0.500  0.00  0.00    +0.090 C 
BRANCH  20  21
ATOM     21  C   LIG    1       -0.643   3.454   1.613  0.00  0.00    +0.320 C 
BRANCH  21  22
ATOM     22  N   LIG    1       -0.811   4.885   1.347  0.00  0.00    -0.690 N 
ATOM     23  H   LIG    1       -0.158   5.358   0.807  0.00  0.00    +0.410 HD
ATOM     24  C   LIG    1       -1.872   5.544   1.851  0.00  0.00    +0.660 C 
ATOM     25  O   LIG    1       -2.690   4.952   2.527  0.00  0.00    -0.560 OA
BRANCH  24  26
ATOM     26  O   LIG    1       -2.026   6.859   1.607  0.00  0.00    -0.360 OA
BRANCH  26  27
ATOM     27  C   LIG    1       -3.193   7.505   2.183  0.00  0.00    +0.290 C 
BRANCH  27  28
ATOM     28  C   LIG    1       -3.197   8.964   1.805  0.00  0.00    -0.100 A 
ATOM     29  C   LIG    1       -2.576   9.890   2.621  0.00  0.00    +0.040 A 
ATOM     30  C   LIG    1       -2.576  11.228   2.272  0.00  0.00    +0.010 A 
ATOM     31  C   LIG    1       -3.207  11.640   1.113  0.00  0.00    +0.020 A 
ATOM     32  C   LIG    1       -3.833  10.714   0.300  0.00  0.00    +0.010 A 
ATOM     33  C   LIG    1       -3.828   9.376   0.646  0.00  0.00    +0.040 A 
ENDBRANCH  27  28
ENDBRANCH  26  27
ENDBRANCH  24  26
ENDBRANCH  21  22
BRANCH  21  34
ATOM     34  C   LIG    1        0.053   3.268   2.936  0.00  0.00    +0.450 C 
ATOM     35  O   LIG    1        0.377   4.231   3.590  0.00  0.00    -0.490 OA
BRANCH  34  37
ATOM     36  C   LIG    1        0.988   1.927   4.670  0.00  0.00    +0.270 C 
ATOM     37  O   LIG    1        0.315   2.031   3.388  0.00  0.00    -0.350 OA
ENDBRANCH  34  37
ENDBRANCH  21  34
ENDBRANCH  20  21
ENDBRANCH   1  20
TORSDOF 10
