REMARK  Name = ZINCqH0000035DHP.0
REMARK                            x       y       z     vdW  Elec       q    Type
REMARK                         _______ _______ _______ _____ _____    ______ ____
ROOT
ATOM      1  C   LIG    1        3.046   1.055   0.081  0.00  0.00    +0.570 C 
ATOM      2  N   LIG    1        3.271  -0.274   0.103  0.00  0.00    -0.660 N 
ATOM      3  H   LIG    1        2.526  -0.890   0.183  0.00  0.00    +0.410 HD
ATOM      4  O   LIG    1        3.983   1.830   0.058  0.00  0.00    -0.520 OA
ENDROOT
BRANCH   1   7
ATOM      5  C   LIG    1        0.131   3.423   0.064  0.00  0.00    +0.090 A 
ATOM      6  C   LIG    1        1.427   2.947   0.061  0.00  0.00    +0.040 A 
ATOM      7  C   LIG    1        1.663   1.569   0.084  0.00  0.00    -0.140 A 
ATOM      8  C   LIG    1        0.585   0.680   0.111  0.00  0.00    +0.050 A 
ATOM      9  C   LIG    1       -0.706   1.162   0.109  0.00  0.00    -0.040 A 
ATOM     10  C   LIG    1       -0.940   2.530   0.091  0.00  0.00    +0.140 A 
BRANCH   5  12
ATOM     11  C   LIG    1        1.042   5.619   0.015  0.00  0.00    +0.240 C 
ATOM     12  O   LIG    1       -0.101   4.763   0.042  0.00  0.00    -0.300 OA
ENDBRANCH   5  12
BRANCH  10  13
ATOM     13  O   LIG    1       -2.214   3.000   0.094  0.00  0.00    -0.290 OA
BRANCH  13  14
ATOM     14  C   LIG    1       -3.261   2.035   0.211  0.00  0.00    +0.150 C 
ATOM     15  C   LIG    1       -4.551   2.607  -0.379  0.00  0.00    +0.070 C 
ATOM     16  C   LIG    1       -3.481   1.699   1.688  0.00  0.00    +0.020 C 
ENDBRANCH  13  14
ENDBRANCH  10  13
ENDBRANCH   1   7
BRANCH   2  17
ATOM     17  C   LIG    1        4.580  -0.764   0.010  0.00  0.00    +0.070 A 
ATOM     18  C   LIG    1        5.638  -0.067   0.592  0.00  0.00    +0.100 A 
ATOM     19  C   LIG    1        6.913  -0.588   0.476  0.00  0.00    -0.020 A 
ATOM     20  C   LIG    1        7.098  -1.782  -0.213  0.00  0.00    +0.290 A 
ATOM     21  N   LIG    1        6.070  -2.417  -0.754  0.00  0.00    -0.500 NA
ATOM     22  C   LIG    1        4.839  -1.952  -0.657  0.00  0.00    +0.270 A 
BRANCH  20  23
ATOM     23  N   LIG    1        8.378  -2.315  -0.337  0.00  0.00    -0.460 N 
ATOM     24  C   LIG    1        8.943  -2.656   0.994  0.00  0.00    +0.180 C 
ATOM     25  C   LIG    1       10.062  -3.673   0.654  0.00  0.00    +0.040 C 
ATOM     26  C   LIG    1        9.446  -4.489  -0.506  0.00  0.00    +0.020 C 
ATOM     27  C   LIG    1        8.354  -3.581  -1.101  0.00  0.00    +0.200 C 
ENDBRANCH  20  23
ENDBRANCH   2  17
TORSDOF 6
