REMARK  Name = ZINCqH0000038QXd.0
REMARK                            x       y       z     vdW  Elec       q    Type
REMARK                         _______ _______ _______ _____ _____    ______ ____
ROOT
ATOM      1  N   LIG    1       -0.453  -4.605   4.363  0.00  0.00    -0.730 N 
ATOM      2  H   LIG    1       -1.303  -5.061   4.261  0.00  0.00    +0.400 HD
ENDROOT
BRANCH   1   3
ATOM      3  C   LIG    1        0.103  -3.917   3.282  0.00  0.00    +0.240 A 
ATOM      4  C   LIG    1       -0.559  -3.885   2.062  0.00  0.00    -0.080 A 
ATOM      5  C   LIG    1       -0.006  -3.204   0.995  0.00  0.00    +0.090 A 
ATOM      6  C   LIG    1        1.206  -2.554   1.141  0.00  0.00    -0.170 A 
ATOM      7  C   LIG    1        1.871  -2.589   2.353  0.00  0.00    +0.070 A 
ATOM      8  C   LIG    1        1.321  -3.264   3.425  0.00  0.00    -0.080 A 
BRANCH   6   9
ATOM      9  C   LIG    1        1.806  -1.812  -0.025  0.00  0.00    +0.370 C 
BRANCH   9  10
ATOM     10  N   LIG    1        1.339  -0.424  -0.013  0.00  0.00    -0.370 N 
ATOM     11  C   LIG    1        2.119   0.677  -0.015  0.00  0.00    +0.220 A 
ATOM     12  C   LIG    1        1.307   1.759  -0.001  0.00  0.00    -0.140 A 
ATOM     13  C   LIG    1       -0.016   1.304   0.009  0.00  0.00    +0.220 A 
ATOM     14  N   LIG    1        0.002  -0.004   0.002  0.00  0.00    -0.290 NA
ENDBRANCH   9  10
ENDBRANCH   6   9
ENDBRANCH   1   3
BRANCH   1  15
ATOM     15  C   LIG    1        0.247  -4.638   5.649  0.00  0.00    +0.330 C 
BRANCH  15  20
ATOM     16 CL   LIG    1       -2.968  -7.829   9.602  0.00  0.00    -0.050 Cl
ATOM     17  C   LIG    1       -2.039  -6.911   8.459  0.00  0.00    -0.000 A 
ATOM     18  C   LIG    1       -2.087  -5.529   8.480  0.00  0.00    +0.040 A 
ATOM     19  C   LIG    1       -1.343  -4.794   7.574  0.00  0.00    +0.090 A 
ATOM     20  C   LIG    1       -0.558  -5.440   6.639  0.00  0.00    -0.100 A 
ATOM     21  C   LIG    1       -0.507  -6.827   6.615  0.00  0.00    +0.180 A 
ATOM     22  C   LIG    1       -1.250  -7.562   7.528  0.00  0.00    +0.020 A 
BRANCH  21  23
ATOM     23  N   LIG    1        0.293  -7.484   5.670  0.00  0.00    -0.340 N 
ATOM     24  C   LIG    1        0.445  -8.815   5.525  0.00  0.00    +0.480 A 
ATOM     25  N   LIG    1        1.273  -9.023   4.534  0.00  0.00    -0.530 NA
ATOM     26  C   LIG    1        1.670  -7.857   4.024  0.00  0.00    +0.430 A 
ATOM     27  N   LIG    1        1.093  -6.886   4.682  0.00  0.00    -0.290 NA
ENDBRANCH  21  23
ENDBRANCH  15  20
ENDBRANCH   1  15
TORSDOF 6
