REMARK  Name = ZINC450000003XtW.0
REMARK                            x       y       z     vdW  Elec       q    Type
REMARK                         _______ _______ _______ _____ _____    ______ ____
ROOT
ATOM      1  C   LIG    1       -2.449   1.117   0.020  0.00  0.00    +0.270 C 
ATOM      2  N   LIG    1       -1.191   1.867   0.018  0.00  0.00    -0.740 N 
ATOM      3  H   LIG    1       -1.204   2.837   0.023  0.00  0.00    +0.400 HD
ATOM      4  C   LIG    1       -0.014   1.209   0.009  0.00  0.00    +0.620 C 
ATOM      5  O   LIG    1        0.002  -0.004   0.002  0.00  0.00    -0.550 OA
ENDROOT
TORSDOF 0
