REMARK  Name = ZINCrD00000752LL.0
REMARK                            x       y       z     vdW  Elec       q    Type
REMARK                         _______ _______ _______ _____ _____    ______ ____
ROOT
ATOM      1  C   LIG    1        3.063   3.735  -7.801  0.00  0.00    +0.510 C 
ATOM      2  O   LIG    1        4.047   3.079  -8.080  0.00  0.00    -0.460 OA
ENDROOT
BRANCH   1  10
ATOM      3  C   LIG    1        5.288   5.902 -13.516  0.00  0.00    +0.160 C 
ATOM      4  C   LIG    1        4.552   5.620 -12.232  0.00  0.00    +0.120 A 
ATOM      5  N   LIG    1        3.489   6.327 -11.923  0.00  0.00    -0.420 NA
ATOM      6  C   LIG    1        2.834   6.078 -10.783  0.00  0.00    +0.090 A 
ATOM      7  C   LIG    1        1.693   6.818 -10.428  0.00  0.00    +0.080 A 
ATOM      8  C   LIG    1        1.037   6.551  -9.262  0.00  0.00    +0.110 A 
ATOM      9  C   LIG    1        1.479   5.548  -8.403  0.00  0.00    +0.110 A 
ATOM     10  C   LIG    1        2.601   4.795  -8.715  0.00  0.00    -0.060 A 
ATOM     11  F   LIG    1       -0.058   7.271  -8.935  0.00  0.00    -0.120 F 
ATOM     12  C   LIG    1        3.302   5.058  -9.919  0.00  0.00    +0.110 A 
ATOM     13  N   LIG    1        4.381   4.349 -10.255  0.00  0.00    -0.400 NA
ATOM     14  C   LIG    1        5.008   4.611 -11.381  0.00  0.00    +0.120 A 
ATOM     15  C   LIG    1        6.231   3.815 -11.757  0.00  0.00    +0.160 C 
ENDBRANCH   1  10
BRANCH   1  16
ATOM     16  O   LIG    1        2.395   3.494  -6.655  0.00  0.00    -0.330 OA
BRANCH  16  17
ATOM     17  C   LIG    1        2.907   2.436  -5.804  0.00  0.00    +0.250 C 
BRANCH  17  18
ATOM     18  C   LIG    1        2.039   2.312  -4.578  0.00  0.00    +0.520 C 
ATOM     19  N   LIG    1        2.325   1.389  -3.640  0.00  0.00    -0.730 N 
ATOM     20  H   LIG    1        3.090   0.803  -3.753  0.00  0.00    +0.400 HD
ATOM     21  O   LIG    1        1.082   3.044  -4.437  0.00  0.00    -0.510 OA
BRANCH  19  22
ATOM     22  C   LIG    1        1.480   1.268  -2.449  0.00  0.00    +0.240 C 
ATOM     23  C   LIG    1        1.910   2.335  -1.423  0.00  0.00    +0.000 C 
ATOM     24  C   LIG    1        1.401   2.035  -0.000  0.00  0.00    +0.010 C 
ATOM     25  C   LIG    1       -0.019   1.538   0.011  0.00  0.00    +0.010 C 
ATOM     26  C   LIG    1        0.002  -0.004   0.002  0.00  0.00    +0.000 C 
ATOM     27  C   LIG    1        0.231  -0.548  -1.328  0.00  0.00    +0.010 C 
ATOM     28  C   LIG    1        1.598  -0.131  -1.907  0.00  0.00    +0.020 C 
ENDBRANCH  19  22
ENDBRANCH  17  18
ENDBRANCH  16  17
ENDBRANCH   1  16
TORSDOF 5
