REMARK  Name = ZINCpe000000YvTd.0
REMARK                            x       y       z     vdW  Elec       q    Type
REMARK                         _______ _______ _______ _____ _____    ______ ____
ROOT
ATOM      1  N   LIG    1       -4.442   1.366  -4.729  0.00  0.00    -0.470 N 
ATOM      2  C   LIG    1       -3.274   0.692  -5.311  0.00  0.00    +0.230 C 
ATOM      3  C   LIG    1       -2.397   0.130  -4.190  0.00  0.00    +0.070 C 
ATOM      4  C   LIG    1       -1.947   1.274  -3.278  0.00  0.00    -0.020 C 
ATOM      5  C   LIG    1       -3.182   1.990  -2.724  0.00  0.00    +0.050 C 
ATOM      6  C   LIG    1       -4.036   2.498  -3.887  0.00  0.00    +0.200 C 
ENDROOT
BRANCH   4   7
ATOM      7  C   LIG    1       -1.132   0.720  -2.138  0.00  0.00    +0.520 C 
ATOM      8  N   LIG    1       -0.236   1.503  -1.507  0.00  0.00    -0.610 N 
ATOM      9  C   LIG    1        0.492   1.010  -0.330  0.00  0.00    +0.280 C 
ATOM     10  C   LIG    1        0.307   2.004   0.821  0.00  0.00    +0.020 C 
ATOM     11  C   LIG    1        0.730   3.400   0.356  0.00  0.00    -0.010 C 
ATOM     12  C   LIG    1       -0.151   3.842  -0.815  0.00  0.00    +0.050 C 
ATOM     13  C   LIG    1        0.033   2.867  -1.983  0.00  0.00    +0.260 C 
ATOM     14  O   LIG    1       -1.284  -0.432  -1.788  0.00  0.00    -0.530 OA
BRANCH  11  15
ATOM     15  C   LIG    1        0.578   4.375   1.495  0.00  0.00    +0.520 C 
ATOM     16  O   LIG    1       -0.162   5.329   1.381  0.00  0.00    -0.540 OA
ATOM     17  N   LIG    1        1.264   4.187   2.639  0.00  0.00    -0.860 N 
ATOM     18  H   LIG    1        1.166   4.815   3.373  0.00  0.00    +0.400 HD
ATOM     19  H   LIG    1        1.856   3.424   2.731  0.00  0.00    +0.400 HD
ENDBRANCH  11  15
ENDBRANCH   4   7
BRANCH   1  23
ATOM     20  C   LIG    1       -7.040   2.562  -7.678  0.00  0.00    -0.110 A 
ATOM     21  C   LIG    1       -7.367   2.834  -6.341  0.00  0.00    +0.150 A 
ATOM     22  C   LIG    1       -6.497   2.434  -5.362  0.00  0.00    -0.040 A 
ATOM     23  C   LIG    1       -5.324   1.773  -5.718  0.00  0.00    +0.340 A 
ATOM     24  N   LIG    1       -5.036   1.532  -6.990  0.00  0.00    -0.520 NA
ATOM     25  C   LIG    1       -5.847   1.895  -7.962  0.00  0.00    +0.360 A 
BRANCH  20  27
ATOM     26  N   LIG    1       -8.615   3.280  -9.575  0.00  0.00    -0.410 NA
ATOM     27  C   LIG    1       -7.918   2.962  -8.736  0.00  0.00    +0.260 C 
ENDBRANCH  20  27
ENDBRANCH   1  23
TORSDOF 4
