REMARK  Name = ZINCrD00000dAXbS.0
REMARK                            x       y       z     vdW  Elec       q    Type
REMARK                         _______ _______ _______ _____ _____    ______ ____
ROOT
ATOM      1  C   LIG    1        0.667   1.542   4.695  0.00  0.00    +0.250 C 
ATOM      2  C   LIG    1        0.374   2.260   6.039  0.00  0.00    -0.010 C 
ATOM      3  C   LIG    1        1.869   1.892   6.294  0.00  0.00    +0.060 C 
ATOM      4  C   LIG    1        0.359   3.765   5.601  0.00  0.00    +0.270 C 
ATOM      5  N   LIG    1        1.552   3.766   4.705  0.00  0.00    -0.610 N 
ATOM      6  C   LIG    1        2.089   4.779   3.996  0.00  0.00    +0.590 C 
ATOM      7  O   LIG    1        3.126   4.610   3.386  0.00  0.00    -0.530 OA
ATOM      8  C   LIG    1        1.991   2.338   4.808  0.00  0.00    +0.230 C 
ENDROOT
BRANCH   6   9
ATOM      9  C   LIG    1        1.417   6.093   3.961  0.00  0.00    -0.180 A 
ATOM     10  C   LIG    1        1.913   7.111   3.142  0.00  0.00    +0.120 A 
ATOM     11  C   LIG    1        1.279   8.333   3.108  0.00  0.00    -0.080 A 
ATOM     12  C   LIG    1        0.157   8.559   3.895  0.00  0.00    +0.170 A 
ATOM     13  C   LIG    1       -0.336   7.551   4.715  0.00  0.00    -0.020 A 
ATOM     14  C   LIG    1        0.288   6.324   4.751  0.00  0.00    +0.080 A 
BRANCH  12  15
ATOM     15  O   LIG    1       -0.461   9.767   3.863  0.00  0.00    -0.300 OA
BRANCH  15  16
ATOM     16  C   LIG    1        0.026  10.719   2.915  0.00  0.00    +0.110 C 
ATOM     17  C   LIG    1        1.462  11.106   3.273  0.00  0.00    +0.030 C 
ATOM     18  C   LIG    1       -0.860  11.966   2.944  0.00  0.00    +0.080 C 
ATOM     19  C   LIG    1       -0.003  10.105   1.514  0.00  0.00    +0.030 C 
ENDBRANCH  15  16
ENDBRANCH  12  15
ENDBRANCH   6   9
BRANCH   1  21
ATOM     20  C   LIG    1       -0.282   1.194   2.478  0.00  0.00    +0.520 C 
ATOM     21  N   LIG    1       -0.196   1.956   3.586  0.00  0.00    -0.720 N 
ATOM     22  H   LIG    1       -0.707   2.779   3.650  0.00  0.00    +0.400 HD
ATOM     23  O   LIG    1        0.356   0.166   2.398  0.00  0.00    -0.520 OA
BRANCH  20  24
ATOM     24  C   LIG    1       -1.170   1.620   1.337  0.00  0.00    +0.020 C 
BRANCH  24  26
ATOM     25  C   LIG    1       -1.418   1.644  -1.149  0.00  0.00    +0.040 C 
ATOM     26  C   LIG    1       -0.587   1.108   0.018  0.00  0.00    +0.070 C 
ENDBRANCH  24  26
BRANCH  24  27
ATOM     27  S   LIG    1       -2.830   0.928   1.573  0.00  0.00    -0.200 S 
ATOM     28  C   LIG    1       -3.406   1.755   3.081  0.00  0.00    +0.130 C 
ENDBRANCH  24  27
ENDBRANCH  20  24
ENDBRANCH   1  21
TORSDOF 7
