REMARK  Name = ZINCrH000004mdtb.0
REMARK                            x       y       z     vdW  Elec       q    Type
REMARK                         _______ _______ _______ _____ _____    ______ ____
ROOT
ATOM      1  N   LIG    1        4.851   0.008  -0.045  0.00  0.00    -0.660 N 
ATOM      2  H   LIG    1        4.837   0.976  -0.107  0.00  0.00    +0.420 HD
ATOM      3  C   LIG    1        3.696  -0.685  -0.044  0.00  0.00    +0.560 C 
ATOM      4  O   LIG    1        3.716  -1.901  -0.048  0.00  0.00    -0.520 OA
ENDROOT
BRANCH   1   7
ATOM      5  C   LIG    1        7.437  -2.579  -0.464  0.00  0.00    +0.120 A 
ATOM      6  C   LIG    1        6.226  -1.911  -0.554  0.00  0.00    -0.010 A 
ATOM      7  C   LIG    1        6.074  -0.669   0.045  0.00  0.00    +0.160 A 
ATOM      8  C   LIG    1        7.141  -0.094   0.732  0.00  0.00    +0.080 A 
ATOM      9  C   LIG    1        8.348  -0.768   0.824  0.00  0.00    +0.010 A 
ATOM     10  C   LIG    1        8.498  -2.006   0.225  0.00  0.00    -0.050 A 
ATOM     11 CL   LIG    1       10.013  -2.845   0.337  0.00  0.00    -0.050 Cl
BRANCH   5  13
ATOM     12  C   LIG    1        6.455  -4.327  -1.744  0.00  0.00    +0.240 C 
ATOM     13  O   LIG    1        7.587  -3.796  -1.051  0.00  0.00    -0.300 OA
ENDBRANCH   5  13
BRANCH   8  14
ATOM     14  O   LIG    1        6.997   1.126   1.316  0.00  0.00    -0.310 OA
ATOM     15  C   LIG    1        8.132   1.655   2.003  0.00  0.00    +0.250 C 
ENDBRANCH   8  14
ENDBRANCH   1   7
BRANCH   3  16
ATOM     16  C   LIG    1        2.403   0.033  -0.039  0.00  0.00    -0.130 A 
ATOM     17  C   LIG    1        1.204  -0.682  -0.039  0.00  0.00    +0.080 A 
ATOM     18  C   LIG    1        0.002  -0.006  -0.035  0.00  0.00    +0.020 A 
ATOM     19  C   LIG    1       -0.018   1.377  -0.031  0.00  0.00    -0.080 A 
ATOM     20  C   LIG    1        1.167   2.092  -0.031  0.00  0.00    +0.040 A 
ATOM     21  C   LIG    1        2.377   1.429  -0.035  0.00  0.00    +0.050 A 
BRANCH  19  22
ATOM     22  C   LIG    1       -1.335   2.109  -0.032  0.00  0.00    +0.350 C 
BRANCH  22  23
ATOM     23  N   LIG    1       -1.766   2.342   1.348  0.00  0.00    -0.620 N 
ATOM     24  C   LIG    1       -2.602   1.418   2.122  0.00  0.00    +0.260 C 
ATOM     25  C   LIG    1       -2.428   1.844   3.598  0.00  0.00    +0.040 C 
ATOM     26  C   LIG    1       -2.054   3.337   3.451  0.00  0.00    +0.050 C 
ATOM     27  C   LIG    1       -1.450   3.434   2.067  0.00  0.00    +0.520 C 
ATOM     28  O   LIG    1       -0.780   4.361   1.665  0.00  0.00    -0.530 OA
ENDBRANCH  22  23
ENDBRANCH  19  22
ENDBRANCH   3  16
TORSDOF 6
