REMARK  Name = ZINCvU000000046z.0
REMARK                            x       y       z     vdW  Elec       q    Type
REMARK                         _______ _______ _______ _____ _____    ______ ____
ROOT
ATOM      1  C   LIG    1       -1.345   2.413   2.581  0.00  0.00    +0.130 C 
ATOM      2  C   LIG    1       -0.670   2.673   1.258  0.00  0.00    +0.050 A 
ATOM      3  C   LIG    1       -1.253   2.227   0.072  0.00  0.00    -0.040 A 
ATOM      4  C   LIG    1       -0.569   2.503  -1.196  0.00  0.00    +0.330 A 
ATOM      5  N   LIG    1       -0.885   2.208  -2.443  0.00  0.00    -0.490 NA
ATOM      6  C   LIG    1        0.074   2.673  -3.279  0.00  0.00    +0.090 A 
ATOM      7  C   LIG    1        0.235   2.635  -4.668  0.00  0.00    +0.060 A 
ATOM      8  C   LIG    1        1.346   3.209  -5.243  0.00  0.00    +0.030 A 
ATOM      9  C   LIG    1        2.307   3.827  -4.456  0.00  0.00    +0.010 A 
ATOM     10  C   LIG    1        2.164   3.873  -3.085  0.00  0.00    +0.050 A 
ATOM     11  C   LIG    1        1.052   3.300  -2.486  0.00  0.00    +0.020 A 
ATOM     12  N   LIG    1        0.626   3.180  -1.174  0.00  0.00    -0.410 N 
ATOM     13  C   LIG    1        1.166   3.596   0.010  0.00  0.00    +0.420 A 
ATOM     14  C   LIG    1        0.539   3.352   1.211  0.00  0.00    -0.020 A 
ENDROOT
BRANCH  13  15
ATOM     15  N   LIG    1        2.362   4.271   0.002  0.00  0.00    -0.670 N 
ATOM     16  C   LIG    1        2.401   5.737  -0.108  0.00  0.00    +0.290 C 
ATOM     17  C   LIG    1        3.285   6.282   1.025  0.00  0.00    +0.170 C 
ATOM     18  N   LIG    1        4.597   5.622   0.976  0.00  0.00    -0.530 NA
ATOM     19  C   LIG    1        4.475   4.177   1.214  0.00  0.00    +0.170 C 
ATOM     20  C   LIG    1        3.639   3.547   0.096  0.00  0.00    +0.290 C 
BRANCH  18  21
ATOM     21  C   LIG    1        5.532   6.236   1.928  0.00  0.00    +0.230 C 
BRANCH  21  22
ATOM     22  C   LIG    1        5.820   7.653   1.506  0.00  0.00    -0.060 A 
ATOM     23  C   LIG    1        6.879   7.920   0.658  0.00  0.00    +0.060 A 
ATOM     24  C   LIG    1        7.141   9.219   0.267  0.00  0.00    +0.040 A 
ATOM     25  C   LIG    1        6.351  10.255   0.731  0.00  0.00    -0.030 A 
ATOM     26  C   LIG    1        5.293   9.988   1.585  0.00  0.00    -0.030 A 
ATOM     27 CL   LIG    1        4.300  11.287   2.168  0.00  0.00    -0.050 Cl
ATOM     28 CL   LIG    1        6.684  11.887   0.244  0.00  0.00    -0.050 Cl
ATOM     29  C   LIG    1        5.029   8.687   1.971  0.00  0.00    +0.040 A 
ENDBRANCH  21  22
ENDBRANCH  18  21
ENDBRANCH  13  15
BRANCH   3  30
ATOM     30  C   LIG    1       -2.497   1.518   0.091  0.00  0.00    +0.270 C 
ATOM     31  N   LIG    1       -3.484   0.956   0.107  0.00  0.00    -0.400 NA
ENDBRANCH   3  30
TORSDOF 4
