REMARK  Name = ZINCkj000005jyaq.0
REMARK                            x       y       z     vdW  Elec       q    Type
REMARK                         _______ _______ _______ _____ _____    ______ ____
ROOT
ATOM      1  C   LIG    1        5.829   1.269  -2.400  0.00  0.00    +0.510 C 
ATOM      2  N   LIG    1        4.981   1.078  -1.371  0.00  0.00    -0.750 N 
ATOM      3  H   LIG    1        5.321   0.796  -0.507  0.00  0.00    +0.400 HD
ATOM      4  O   LIG    1        5.403   1.621  -3.480  0.00  0.00    -0.490 OA
ENDROOT
BRANCH   1   6
ATOM      5  C   LIG    1        7.554  -0.406  -1.792  0.00  0.00    +0.090 C 
ATOM      6  C   LIG    1        7.307   1.046  -2.210  0.00  0.00    +0.290 C 
BRANCH   6   7
ATOM      7  N   LIG    1        8.008   1.318  -3.467  0.00  0.00    -0.380 N 
ATOM      8  C   LIG    1        8.198   0.461  -4.486  0.00  0.00    +0.490 A 
ATOM      9  N   LIG    1        8.865   1.085  -5.422  0.00  0.00    -0.530 NA
ATOM     10  C   LIG    1        9.125   2.334  -5.037  0.00  0.00    +0.430 A 
ATOM     11  N   LIG    1        8.620   2.524  -3.846  0.00  0.00    -0.320 NA
ENDBRANCH   6   7
ENDBRANCH   1   6
BRANCH   2  12
ATOM     12  C   LIG    1        3.544   1.295  -1.556  0.00  0.00    +0.320 C 
BRANCH  12  13
ATOM     13  C   LIG    1        2.830   1.161  -0.209  0.00  0.00    +0.270 C 
BRANCH  13  14
ATOM     14  C   LIG    1        1.359   1.434  -0.391  0.00  0.00    -0.290 A 
ATOM     15  C   LIG    1        0.374   0.604  -0.043  0.00  0.00    +0.100 A 
ATOM     16  C   LIG    1       -0.902   1.067  -0.311  0.00  0.00    +0.010 A 
ATOM     17  C   LIG    1       -0.954   2.278  -0.868  0.00  0.00    +0.020 A 
ATOM     18  S   LIG    1        0.678   2.895  -1.093  0.00  0.00    +0.140 S 
ENDBRANCH  13  14
BRANCH  13  19
ATOM     19  N   LIG    1        3.394   2.128   0.742  0.00  0.00    -0.380 N 
ATOM     20  C   LIG    1        2.741   1.967   2.049  0.00  0.00    +0.330 C 
ATOM     21  C   LIG    1        3.166   3.492   0.246  0.00  0.00    +0.320 C 
ATOM     22  H   LIG    1        4.385   1.967   0.839  0.00  0.00    +0.420 HD
ENDBRANCH  13  19
ENDBRANCH  12  13
ENDBRANCH   2  12
TORSDOF 6
