REMARK  Name = ZINCqH00000503pT.0
REMARK                            x       y       z     vdW  Elec       q    Type
REMARK                         _______ _______ _______ _____ _____    ______ ____
ROOT
ATOM      1  N   LIG    1        7.798   1.891   4.216  0.00  0.00    -0.700 N 
ATOM      2  H   LIG    1        7.012   1.430   4.548  0.00  0.00    +0.410 HD
ATOM      3  C   LIG    1        7.664   2.900   3.333  0.00  0.00    +0.710 C 
ATOM      4  N   LIG    1        6.449   3.203   2.835  0.00  0.00    -0.730 N 
ATOM      5  H   LIG    1        5.670   2.695   3.112  0.00  0.00    +0.400 HD
ATOM      6  O   LIG    1        8.640   3.537   2.985  0.00  0.00    -0.570 OA
ENDROOT
BRANCH   1  12
ATOM      7  C   LIG    1       11.478   2.340   7.454  0.00  0.00    +0.130 C 
ATOM      8  C   LIG    1       10.881   1.710   6.222  0.00  0.00    -0.110 A 
ATOM      9  C   LIG    1       11.593   0.751   5.523  0.00  0.00    +0.020 A 
ATOM     10  C   LIG    1       11.049   0.169   4.392  0.00  0.00    +0.010 A 
ATOM     11  C   LIG    1        9.789   0.541   3.959  0.00  0.00    +0.150 A 
ATOM     12  C   LIG    1        9.073   1.508   4.655  0.00  0.00    +0.090 A 
ATOM     13  F   LIG    1        9.256  -0.031   2.857  0.00  0.00    -0.120 F 
ATOM     14 CL   LIG    1       13.172   0.277   6.067  0.00  0.00    -0.030 Cl
ATOM     15  C   LIG    1        9.623   2.090   5.791  0.00  0.00    +0.150 A 
ATOM     16  F   LIG    1        8.929   3.027   6.474  0.00  0.00    -0.110 F 
ENDBRANCH   1  12
BRANCH   4  17
ATOM     17  C   LIG    1        6.304   4.300   1.875  0.00  0.00    +0.260 C 
ATOM     18  C   LIG    1        6.162   5.626   2.628  0.00  0.00    -0.010 C 
ATOM     19  C   LIG    1        5.932   6.755   1.621  0.00  0.00    +0.230 C 
ATOM     20  O   LIG    1        4.770   6.467   0.841  0.00  0.00    -0.360 OA
ATOM     21  C   LIG    1        4.863   5.263   0.077  0.00  0.00    +0.260 C 
ATOM     22  C   LIG    1        5.050   4.073   1.023  0.00  0.00    +0.020 C 
BRANCH  21  23
ATOM     23  C   LIG    1        3.600   5.075  -0.722  0.00  0.00    +0.200 A 
ATOM     24  N   LIG    1        2.385   5.234  -0.273  0.00  0.00    -0.460 NA
ATOM     25  C   LIG    1        1.512   4.983  -1.260  0.00  0.00    +0.140 A 
ATOM     26  C   LIG    1        2.212   4.657  -2.362  0.00  0.00    +0.130 A 
ATOM     27  N   LIG    1        3.537   4.715  -2.022  0.00  0.00    -0.450 N 
ATOM     28  C   LIG    1        4.674   4.438  -2.903  0.00  0.00    +0.330 C 
ENDBRANCH  21  23
ENDBRANCH   4  17
TORSDOF 3
