REMARK  Name = ZINCvU00000006pX.0
REMARK                            x       y       z     vdW  Elec       q    Type
REMARK                         _______ _______ _______ _____ _____    ______ ____
ROOT
ATOM      1  O   LIG    1       -0.196   1.220   7.457  0.00  0.00    -0.320 OA
ENDROOT
BRANCH   1   2
ATOM      2  C   LIG    1       -0.670   1.545   6.245  0.00  0.00    +0.470 C 
ATOM      3  O   LIG    1       -1.663   2.227   6.147  0.00  0.00    -0.500 OA
BRANCH   2   4
ATOM      4  C   LIG    1        0.035   1.059   5.005  0.00  0.00    +0.110 C 
BRANCH   4   5
ATOM      5  C   LIG    1       -0.705   1.566   3.765  0.00  0.00    +0.050 C 
BRANCH   5   6
ATOM      6  C   LIG    1        0.011   1.072   2.506  0.00  0.00    +0.020 C 
BRANCH   6   7
ATOM      7  C   LIG    1       -0.729   1.579   1.267  0.00  0.00    +0.020 C 
BRANCH   7   8
ATOM      8  C   LIG    1       -0.013   1.086   0.008  0.00  0.00    +0.160 C 
BRANCH   8   9
ATOM      9  O   LIG    1       -0.704   1.559  -1.150  0.00  0.00    -0.380 OA
BRANCH   9  10
ATOM     10  C   LIG    1       -0.114   1.152  -2.386  0.00  0.00    +0.150 C 
ATOM     11  C   LIG    1       -0.720  -0.182  -2.826  0.00  0.00    -0.010 C 
ATOM     12  C   LIG    1       -2.230  -0.020  -3.010  0.00  0.00    +0.020 C 
ATOM     13  C   LIG    1       -2.502   1.041  -4.079  0.00  0.00    +0.010 C 
ATOM     14  C   LIG    1       -1.896   2.375  -3.639  0.00  0.00    -0.010 C 
ATOM     15  C   LIG    1       -2.168   3.436  -4.708  0.00  0.00    +0.000 C 
ATOM     16  C   LIG    1       -0.386   2.213  -3.454  0.00  0.00    +0.030 C 
ENDBRANCH   9  10
ENDBRANCH   8   9
ENDBRANCH   7   8
ENDBRANCH   6   7
ENDBRANCH   5   6
ENDBRANCH   4   5
ENDBRANCH   2   4
ENDBRANCH   1   2
BRANCH   1  17
ATOM     17  C   LIG    1       -0.926   1.723   8.607  0.00  0.00    +0.280 C 
BRANCH  17  18
ATOM     18  C   LIG    1        0.027   1.932   9.756  0.00  0.00    -0.070 A 
ATOM     19  C   LIG    1        1.091   1.068   9.937  0.00  0.00    +0.060 A 
ATOM     20  C   LIG    1        1.968   1.262  10.987  0.00  0.00    +0.070 A 
ATOM     21  C   LIG    1        1.776   2.314  11.863  0.00  0.00    -0.170 A 
ATOM     22  C   LIG    1        0.708   3.175  11.685  0.00  0.00    +0.080 A 
ATOM     23  C   LIG    1       -0.166   2.984  10.632  0.00  0.00    +0.060 A 
BRANCH  21  24
ATOM     24  C   LIG    1        2.729   2.523  13.011  0.00  0.00    +0.510 C 
ATOM     25  F   LIG    1        2.798   3.886  13.318  0.00  0.00    -0.170 F 
ATOM     26  F   LIG    1        4.000   2.061  12.652  0.00  0.00    -0.170 F 
ATOM     27  F   LIG    1        2.274   1.816  14.129  0.00  0.00    -0.170 F 
ENDBRANCH  21  24
ENDBRANCH  17  18
BRANCH  17  28
ATOM     28  C   LIG    1       -1.983   0.726   9.007  0.00  0.00    +0.450 C 
ATOM     29  O   LIG    1       -2.050  -0.341   8.444  0.00  0.00    -0.480 OA
BRANCH  28  31
ATOM     30  C   LIG    1       -3.842   0.016  10.318  0.00  0.00    +0.290 C 
ATOM     31  O   LIG    1       -2.851   1.024   9.986  0.00  0.00    -0.350 OA
ENDBRANCH  28  31
ENDBRANCH  17  28
ENDBRANCH   1  17
TORSDOF 13
