REMARK  Name = ZINCqH0000003LUa.0
REMARK                            x       y       z     vdW  Elec       q    Type
REMARK                         _______ _______ _______ _____ _____    ______ ____
ROOT
ATOM      1  C   LIG    1        1.159   3.164  -0.007  0.00  0.00    +0.220 A 
ATOM      2  C   LIG    1        1.167   1.789  -0.190  0.00  0.00    -0.060 A 
ATOM      3  C   LIG    1       -0.021   1.083  -0.177  0.00  0.00    +0.130 A 
ATOM      4  C   LIG    1       -1.223   1.752   0.012  0.00  0.00    +0.090 A 
ATOM      5  C   LIG    1       -1.230   3.128   0.200  0.00  0.00    +0.140 A 
ATOM      6  C   LIG    1       -0.042   3.832   0.188  0.00  0.00    -0.690 A 
ENDROOT
BRANCH   4   7
ATOM      7  N   LIG    1       -2.428   1.038   0.019  0.00  0.00    -0.660 N 
ATOM      8  H   LIG    1       -3.236   1.448  -0.326  0.00  0.00    +0.420 HD
ATOM      9  C   LIG    1       -2.463  -0.218   0.506  0.00  0.00    +0.610 C 
ATOM     10  O   LIG    1       -1.473  -0.698   1.026  0.00  0.00    -0.500 OA
BRANCH   9  11
ATOM     11  C   LIG    1       -3.695  -1.007   0.408  0.00  0.00    -0.060 A 
ATOM     12  C   LIG    1       -3.867  -2.286   0.858  0.00  0.00    +0.070 A 
ATOM     13  C   LIG    1       -5.189  -2.644   0.559  0.00  0.00    +0.010 A 
ATOM     14  C   LIG    1       -5.761  -1.582  -0.054  0.00  0.00    +0.000 A 
ATOM     15 BR   LIG    1       -7.543  -1.500  -0.681  0.00  0.00    +0.070 Br
ATOM     16  O   LIG    1       -4.859  -0.596  -0.137  0.00  0.00    -0.150 OA
ENDBRANCH   9  11
ENDBRANCH   4   7
BRANCH   6  17
ATOM     17  S   LIG    1       -0.051   5.578   0.419  0.00  0.00    +2.700 S 
ATOM     18  O   LIG    1       -1.407   5.949   0.624  0.00  0.00    -0.960 OA
ATOM     19  O   LIG    1        0.756   6.124  -0.615  0.00  0.00    -0.940 OA
BRANCH  17  20
ATOM     20  N   LIG    1        0.738   5.889   1.841  0.00  0.00    -0.990 NA
BRANCH  20  21
ATOM     21  C   LIG    1       -0.011   5.937   3.099  0.00  0.00    +0.290 C 
ATOM     22  C   LIG    1        0.055   4.571   3.785  0.00  0.00    +0.000 C 
ENDBRANCH  20  21
BRANCH  20  23
ATOM     23  C   LIG    1        2.186   6.115   1.841  0.00  0.00    +0.290 C 
ATOM     24  C   LIG    1        2.467   7.617   1.781  0.00  0.00    +0.020 C 
ENDBRANCH  20  23
ENDBRANCH  17  20
ENDBRANCH   6  17
BRANCH   1  25
ATOM     25  O   LIG    1        2.328   3.858  -0.020  0.00  0.00    -0.310 OA
BRANCH  25  27
ATOM     26  C   LIG    1        4.729   4.051  -0.208  0.00  0.00    +0.060 C 
ATOM     27  C   LIG    1        3.526   3.107  -0.226  0.00  0.00    +0.190 C 
ENDBRANCH  25  27
ENDBRANCH   1  25
TORSDOF 8
