REMARK  Name = ZINCvU0000000IG5.0
REMARK                            x       y       z     vdW  Elec       q    Type
REMARK                         _______ _______ _______ _____ _____    ______ ____
ROOT
ATOM      1  O   LIG    1       -2.623   5.027  -0.283  0.00  0.00    -0.500 OA
ATOM      2  C   LIG    1       -2.559   3.813  -0.258  0.00  0.00    +0.520 C 
ENDROOT
BRANCH   2   3
ATOM      3  C   LIG    1       -1.248   3.146  -0.180  0.00  0.00    -0.130 A 
ATOM      4  C   LIG    1       -0.094   3.914  -0.137  0.00  0.00    +0.190 A 
ATOM      5  C   LIG    1        1.144   3.278  -0.063  0.00  0.00    -0.190 A 
ATOM      6  C   LIG    1        2.491   3.645  -0.003  0.00  0.00    +0.080 A 
ATOM      7  O   LIG    1        3.180   2.494   0.054  0.00  0.00    +0.150 OA
ATOM      8  N   LIG    1        2.478   1.509   0.037  0.00  0.00    -0.360 NA
ATOM      9  C   LIG    1        1.201   1.800  -0.032  0.00  0.00    +0.060 A 
ATOM     10  C   LIG    1       -0.011   1.075  -0.079  0.00  0.00    +0.050 A 
ATOM     11  C   LIG    1       -1.188   1.736  -0.156  0.00  0.00    +0.100 A 
BRANCH   6  12
ATOM     12  C   LIG    1        3.040   5.012  -0.001  0.00  0.00    -0.040 A 
ATOM     13  C   LIG    1        2.577   5.957  -0.922  0.00  0.00    +0.050 A 
ATOM     14  C   LIG    1        3.092   7.236  -0.911  0.00  0.00    +0.010 A 
ATOM     15  C   LIG    1        4.074   7.582   0.001  0.00  0.00    +0.040 A 
ATOM     16  C   LIG    1        4.541   6.651   0.912  0.00  0.00    +0.010 A 
ATOM     17  C   LIG    1        4.032   5.370   0.917  0.00  0.00    +0.050 A 
ENDBRANCH   6  12
ENDBRANCH   2   3
BRANCH   2  18
ATOM     18  O   LIG    1       -3.688   3.078  -0.300  0.00  0.00    -0.350 OA
BRANCH  18  19
ATOM     19  C   LIG    1       -4.944   3.802  -0.376  0.00  0.00    +0.360 C 
BRANCH  19  20
ATOM     20  C   LIG    1       -6.088   2.822  -0.415  0.00  0.00    +0.290 A 
ATOM     21  N   LIG    1       -6.604   2.322  -1.500  0.00  0.00    -0.450 NA
ATOM     22  C   LIG    1       -7.612   1.472  -1.175  0.00  0.00    +0.050 A 
ATOM     23  C   LIG    1       -8.484   0.679  -1.927  0.00  0.00    +0.080 A 
ATOM     24  C   LIG    1       -9.424  -0.085  -1.295  0.00  0.00    +0.020 A 
ATOM     25  C   LIG    1       -9.524  -0.085   0.088  0.00  0.00    +0.050 A 
ATOM     26  C   LIG    1       -8.673   0.688   0.850  0.00  0.00    +0.020 A 
ATOM     27  C   LIG    1       -7.712   1.472   0.227  0.00  0.00    +0.060 A 
ATOM     28  N   LIG    1       -6.735   2.336   0.678  0.00  0.00    -0.540 N 
BRANCH  28  29
ATOM     29  C   LIG    1       -6.447   2.667   2.076  0.00  0.00    +0.650 C 
ATOM     30  F   LIG    1       -7.623   2.575   2.829  0.00  0.00    -0.170 F 
ATOM     31  F   LIG    1       -5.944   3.970   2.153  0.00  0.00    -0.180 F 
ENDBRANCH  28  29
ENDBRANCH  19  20
ENDBRANCH  18  19
ENDBRANCH   2  18
TORSDOF 6
