REMARK  Name = ZINCpk00000y3Bs0.0
REMARK                            x       y       z     vdW  Elec       q    Type
REMARK                         _______ _______ _______ _____ _____    ______ ____
ROOT
ATOM      1  C   LIG    1       -0.013   1.086   0.008  0.00  0.00    +0.250 C 
ATOM      2  C   LIG    1       -0.729   1.579   1.267  0.00  0.00    +0.040 C 
ATOM      3  C   LIG    1       -0.750   3.109   1.275  0.00  0.00    +0.020 C 
ATOM      4  C   LIG    1       -1.490   3.616   0.036  0.00  0.00    +0.030 C 
ATOM      5  C   LIG    1       -0.773   3.123  -1.223  0.00  0.00    +0.030 C 
ATOM      6  C   LIG    1       -0.753   1.593  -1.232  0.00  0.00    +0.270 C 
ENDROOT
BRANCH   6   7
ATOM      7  N   LIG    1       -0.067   1.120  -2.437  0.00  0.00    -0.280 N 
ATOM      8  C   LIG    1        0.987   1.720  -3.036  0.00  0.00    +0.140 A 
ATOM      9  C   LIG    1        1.300   0.953  -4.106  0.00  0.00    -0.040 A 
ATOM     10  N   LIG    1        0.432  -0.065  -4.110  0.00  0.00    -0.250 NA
ATOM     11  N   LIG    1       -0.360   0.060  -3.105  0.00  0.00    -0.080 NA
BRANCH   9  12
ATOM     12  C   LIG    1        2.407   1.198  -5.099  0.00  0.00    +0.210 C 
ATOM     13  C   LIG    1        2.187   2.548  -5.785  0.00  0.00    +0.030 C 
ATOM     14  C   LIG    1        2.405   0.086  -6.149  0.00  0.00    +0.090 C 
BRANCH  12  15
ATOM     15  O   LIG    1        3.663   1.209  -4.418  0.00  0.00    -0.550 OA
ATOM     16  H   LIG    1        3.735   1.891  -3.736  0.00  0.00    +0.370 HD
ENDBRANCH  12  15
ENDBRANCH   9  12
ENDBRANCH   6   7
BRANCH   1  18
ATOM     17  C   LIG    1        2.331   0.926   0.654  0.00  0.00    +0.610 C 
ATOM     18  N   LIG    1        1.362   1.593  -0.002  0.00  0.00    -0.710 N 
ATOM     19  H   LIG    1        1.574   2.409  -0.482  0.00  0.00    +0.400 HD
ATOM     20  O   LIG    1        2.065  -0.097   1.255  0.00  0.00    -0.500 OA
BRANCH  17  24
ATOM     21  C   LIG    1        5.864   1.757   0.933  0.00  0.00    +0.210 A 
ATOM     22  N   LIG    1        5.348   2.706   0.200  0.00  0.00    -0.380 NA
ATOM     23  O   LIG    1        4.162   2.547   0.028  0.00  0.00    +0.120 OA
ATOM     24  C   LIG    1        3.715   1.436   0.644  0.00  0.00    -0.070 A 
ATOM     25  C   LIG    1        4.800   0.880   1.262  0.00  0.00    +0.050 A 
BRANCH  21  27
ATOM     26  C   LIG    1        8.065   2.651   0.863  0.00  0.00    +0.260 C 
ATOM     27  O   LIG    1        7.163   1.637   1.311  0.00  0.00    -0.280 OA
ENDBRANCH  21  27
ENDBRANCH  17  24
ENDBRANCH   1  18
TORSDOF 6
