REMARK  Name = ZINCvU0000000CsA.0
REMARK                            x       y       z     vdW  Elec       q    Type
REMARK                         _______ _______ _______ _____ _____    ______ ____
ROOT
ATOM      1  C   LIG    1        2.284  -0.011  -0.582  0.00  0.00    +0.460 A 
ATOM      2  N   LIG    1        1.179  -0.686  -0.731  0.00  0.00    -0.550 NA
ATOM      3  C   LIG    1       -0.003  -0.068  -0.892  0.00  0.00    +0.540 A 
ATOM      4  C   LIG    1       -0.038   1.407  -0.899  0.00  0.00    -0.220 A 
ATOM      5  C   LIG    1        1.164   2.071  -0.737  0.00  0.00    +0.060 A 
ATOM      6  S   LIG    1        0.902   3.808  -0.776  0.00  0.00    +0.190 S 
ATOM      7  C   LIG    1       -0.825   3.613  -1.010  0.00  0.00    -0.030 A 
ATOM      8  C   LIG    1       -1.158   2.323  -1.059  0.00  0.00    +0.010 A 
ATOM      9  O   LIG    1       -1.028  -0.715  -1.031  0.00  0.00    -0.460 OA
ATOM     10  N   LIG    1        2.317   1.331  -0.580  0.00  0.00    -0.590 N 
ATOM     11  H   LIG    1        3.165   1.787  -0.465  0.00  0.00    +0.420 HD
ENDROOT
BRANCH   8  12
ATOM     12  C   LIG    1       -2.553   1.861  -1.255  0.00  0.00    -0.030 A 
ATOM     13  C   LIG    1       -2.844   0.909  -2.231  0.00  0.00    +0.070 A 
ATOM     14  C   LIG    1       -4.143   0.478  -2.406  0.00  0.00    +0.050 A 
ATOM     15  C   LIG    1       -5.158   0.997  -1.621  0.00  0.00    -0.080 A 
ATOM     16  C   LIG    1       -4.876   1.946  -0.654  0.00  0.00    +0.040 A 
ATOM     17 BR   LIG    1       -6.937   0.407  -1.871  0.00  0.00    -0.050 Br
ATOM     18  C   LIG    1       -3.580   2.381  -0.468  0.00  0.00    +0.030 A 
ENDBRANCH   8  12
BRANCH   1  19
ATOM     19  C   LIG    1        3.576  -0.766  -0.405  0.00  0.00    +0.140 C 
BRANCH  19  20
ATOM     20  S   LIG    1        3.244  -2.549  -0.447  0.00  0.00    -0.050 S 
BRANCH  20  21
ATOM     21  C   LIG    1        4.891  -3.276  -0.221  0.00  0.00    +0.060 C 
BRANCH  21  24
ATOM     22  N   LIG    1        5.888  -5.535  -0.081  0.00  0.00    -0.670 N 
ATOM     23  H   LIG    1        6.762  -5.115  -0.041  0.00  0.00    +0.410 HD
ATOM     24  C   LIG    1        4.783  -4.779  -0.233  0.00  0.00    +0.530 C 
ATOM     25  O   LIG    1        3.701  -5.308  -0.379  0.00  0.00    -0.490 OA
BRANCH  22  30
ATOM     26  C   LIG    1        5.431 -11.176   0.323  0.00  0.00    +0.090 C 
ATOM     27  C   LIG    1        5.553  -9.677   0.215  0.00  0.00    -0.100 A 
ATOM     28  C   LIG    1        4.558  -8.866   0.729  0.00  0.00    +0.030 A 
ATOM     29  C   LIG    1        4.668  -7.492   0.637  0.00  0.00    +0.010 A 
ATOM     30  C   LIG    1        5.775  -6.926   0.018  0.00  0.00    +0.140 A 
ATOM     31  C   LIG    1        6.773  -7.744  -0.496  0.00  0.00    -0.020 A 
ATOM     32  C   LIG    1        6.659  -9.117  -0.396  0.00  0.00    -0.070 A 
ATOM     33  C   LIG    1        7.742 -10.005  -0.954  0.00  0.00    +0.090 C 
ENDBRANCH  22  30
ENDBRANCH  21  24
ENDBRANCH  20  21
ENDBRANCH  19  20
ENDBRANCH   1  19
TORSDOF 6
