REMARK  Name = ZINCrH000004mzFh.0
REMARK                            x       y       z     vdW  Elec       q    Type
REMARK                         _______ _______ _______ _____ _____    ______ ____
ROOT
ATOM      1  C   LIG    1        4.976   1.487  -2.615  0.00  0.00    +0.520 C 
ATOM      2  N   LIG    1        4.210   2.183  -1.752  0.00  0.00    -0.650 N 
ATOM      3  H   LIG    1        4.053   1.840  -0.858  0.00  0.00    +0.410 HD
ATOM      4  O   LIG    1        5.173   1.915  -3.733  0.00  0.00    -0.490 OA
ENDROOT
BRANCH   2   5
ATOM      5  C   LIG    1        3.643   3.395  -2.143  0.00  0.00    +0.310 A 
ATOM      6  C   LIG    1        3.778   3.990  -3.361  0.00  0.00    -0.110 A 
ATOM      7  C   LIG    1        3.059   5.188  -3.333  0.00  0.00    +0.250 A 
ATOM      8  N   LIG    1        2.509   5.311  -2.152  0.00  0.00    -0.290 NA
ATOM      9  N   LIG    1        2.858   4.193  -1.384  0.00  0.00    -0.380 N 
BRANCH   9  10
ATOM     10  C   LIG    1        2.451   3.936  -0.000  0.00  0.00    +0.380 C 
BRANCH  10  11
ATOM     11  C   LIG    1        1.156   3.166   0.007  0.00  0.00    -0.120 A 
ATOM     12  C   LIG    1        1.175   1.783   0.000  0.00  0.00    +0.040 A 
ATOM     13  C   LIG    1       -0.013   1.076   0.008  0.00  0.00    +0.030 A 
ATOM     14  C   LIG    1       -1.220   1.751   0.017  0.00  0.00    -0.020 A 
ATOM     15  C   LIG    1       -1.238   3.135   0.029  0.00  0.00    +0.030 A 
ATOM     16 CL   LIG    1       -2.712   0.864   0.020  0.00  0.00    -0.060 Cl
ATOM     17  C   LIG    1       -0.050   3.841   0.022  0.00  0.00    +0.070 A 
ENDBRANCH  10  11
ENDBRANCH   9  10
ENDBRANCH   2   5
BRANCH   1  18
ATOM     18  C   LIG    1        5.588   0.176  -2.192  0.00  0.00    +0.130 C 
BRANCH  18  22
ATOM     19  C   LIG    1        7.863  -1.447  -5.429  0.00  0.00    +0.110 A 
ATOM     20  C   LIG    1        6.521  -1.763  -5.295  0.00  0.00    -0.030 A 
ATOM     21  C   LIG    1        5.790  -1.241  -4.244  0.00  0.00    +0.030 A 
ATOM     22  C   LIG    1        6.392  -0.394  -3.332  0.00  0.00    -0.070 A 
ATOM     23  C   LIG    1        7.731  -0.075  -3.461  0.00  0.00    -0.020 A 
ATOM     24  C   LIG    1        8.471  -0.599  -4.508  0.00  0.00    +0.100 A 
BRANCH  19  26
ATOM     25  C   LIG    1        7.896  -2.827  -7.366  0.00  0.00    +0.250 C 
ATOM     26  O   LIG    1        8.586  -1.964  -6.459  0.00  0.00    -0.310 OA
ENDBRANCH  19  26
BRANCH  24  27
ATOM     27  O   LIG    1        9.788  -0.285  -4.636  0.00  0.00    -0.310 OA
ATOM     28  C   LIG    1       10.344   0.592  -3.654  0.00  0.00    +0.240 C 
ENDBRANCH  24  27
ENDBRANCH  18  22
ENDBRANCH   1  18
TORSDOF 7
