REMARK  Name = ZINCpk000000pPhL.0
REMARK                            x       y       z     vdW  Elec       q    Type
REMARK                         _______ _______ _______ _____ _____    ______ ____
ROOT
ATOM      1  C   LIG    1       -5.348   3.354   8.539  0.00  0.00    +0.280 C 
ENDROOT
BRANCH   1   2
ATOM      2  C   LIG    1       -4.816   3.183   9.939  0.00  0.00    -0.110 A 
ATOM      3  C   LIG    1       -4.413   1.936  10.377  0.00  0.00    +0.080 A 
ATOM      4  C   LIG    1       -3.920   1.780  11.660  0.00  0.00    +0.010 A 
ATOM      5  C   LIG    1       -3.840   2.870  12.506  0.00  0.00    +0.130 A 
ATOM      6  C   LIG    1       -4.248   4.117  12.069  0.00  0.00    -0.670 A 
ATOM      7  C   LIG    1       -4.736   4.273  10.786  0.00  0.00    +0.140 A 
BRANCH   6   8
ATOM      8  S   LIG    1       -4.145   5.506  13.148  0.00  0.00    +2.700 S 
ATOM      9  O   LIG    1       -4.086   6.656  12.317  0.00  0.00    -0.960 OA
ATOM     10  O   LIG    1       -3.150   5.192  14.113  0.00  0.00    -0.960 OA
BRANCH   8  11
ATOM     11  N   LIG    1       -5.581   5.595  13.969  0.00  0.00    -1.250 NA
ATOM     12  H   LIG    1       -5.724   6.301  14.620  0.00  0.00    +0.420 HD
ATOM     13  H   LIG    1       -6.278   4.942  13.800  0.00  0.00    +0.420 HD
ENDBRANCH   8  11
ENDBRANCH   6   8
ENDBRANCH   1   2
BRANCH   1  14
ATOM     14  N   LIG    1       -4.554   2.544   7.612  0.00  0.00    -0.730 N 
ATOM     15  H   LIG    1       -4.080   1.762   7.936  0.00  0.00    +0.400 HD
ATOM     16  C   LIG    1       -4.482   2.886   6.311  0.00  0.00    +0.520 C 
ATOM     17  O   LIG    1       -5.074   3.864   5.907  0.00  0.00    -0.530 OA
BRANCH  16  18
ATOM     18  C   LIG    1       -3.664   2.053   5.357  0.00  0.00    +0.060 C 
BRANCH  18  19
ATOM     19  C   LIG    1       -3.750   2.653   3.953  0.00  0.00    +0.200 C 
BRANCH  19  20
ATOM     20  O   LIG    1       -2.975   1.863   3.049  0.00  0.00    -0.380 OA
BRANCH  20  21
ATOM     21  C   LIG    1       -2.988   2.341   1.702  0.00  0.00    +0.200 C 
BRANCH  21  22
ATOM     22  C   LIG    1       -2.131   1.423   0.827  0.00  0.00    +0.160 C 
ATOM     23  C   LIG    1       -2.230   1.847  -0.655  0.00  0.00    +0.010 C 
ATOM     24  C   LIG    1       -0.804   1.620  -1.206  0.00  0.00    +0.000 C 
ATOM     25  C   LIG    1       -0.013   1.086   0.008  0.00  0.00    +0.190 C 
ATOM     26  O   LIG    1       -0.731   1.573   1.163  0.00  0.00    -0.360 OA
ENDBRANCH  21  22
ENDBRANCH  20  21
ENDBRANCH  19  20
ENDBRANCH  18  19
ENDBRANCH  16  18
ENDBRANCH   1  14
BRANCH   1  28
ATOM     27  C   LIG    1       -7.386   3.189   7.103  0.00  0.00    +0.020 C 
ATOM     28  C   LIG    1       -6.809   2.901   8.490  0.00  0.00    +0.010 C 
ENDBRANCH   1  28
TORSDOF 10
