REMARK  Name = ZINCrH000004s2vo.0
REMARK                            x       y       z     vdW  Elec       q    Type
REMARK                         _______ _______ _______ _____ _____    ______ ____
ROOT
ATOM      1  C   LIG    1       -3.390   1.413   5.083  0.00  0.00    -0.290 A 
ATOM      2  C   LIG    1       -2.926   0.631   4.097  0.00  0.00    +0.050 A 
ATOM      3  C   LIG    1       -2.110   1.266   3.161  0.00  0.00    -0.240 A 
ATOM      4  C   LIG    1       -1.923   2.625   3.432  0.00  0.00    +0.100 A 
ATOM      5  N   LIG    1       -1.157   3.368   2.610  0.00  0.00    -0.510 NA
ATOM      6  C   LIG    1       -0.579   2.876   1.556  0.00  0.00    +0.430 A 
ATOM      7  C   LIG    1        0.260   3.762   0.664  0.00  0.00    +0.140 C 
ATOM      8  C   LIG    1       -0.502   4.030  -0.631  0.00  0.00    +0.040 C 
ATOM      9  C   LIG    1       -0.227   2.950  -1.663  0.00  0.00    +0.020 C 
ATOM     10  C   LIG    1       -0.754   1.593  -1.227  0.00  0.00    +0.020 C 
ATOM     11  C   LIG    1       -0.013   1.086   0.008  0.00  0.00    +0.300 C 
ATOM     12  N   LIG    1       -0.702   1.561   1.214  0.00  0.00    -0.530 N 
ATOM     13  C   LIG    1       -1.439   0.721   1.962  0.00  0.00    +0.570 A 
ATOM     14  O   LIG    1       -1.549  -0.454   1.661  0.00  0.00    -0.500 OA
ATOM     15  C   LIG    1       -3.263  -0.835   4.006  0.00  0.00    +0.140 C 
ATOM     16  S   LIG    1       -2.808   3.058   4.890  0.00  0.00    +0.230 S 
ENDROOT
BRANCH   1  19
ATOM     17  N   LIG    1       -4.674   1.827   7.114  0.00  0.00    -0.720 N 
ATOM     18  H   LIG    1       -4.392   2.755   7.074  0.00  0.00    +0.400 HD
ATOM     19  C   LIG    1       -4.263   0.958   6.170  0.00  0.00    +0.600 C 
ATOM     20  O   LIG    1       -4.616  -0.206   6.220  0.00  0.00    -0.520 OA
BRANCH  17  21
ATOM     21  C   LIG    1       -5.546   1.373   8.199  0.00  0.00    +0.320 C 
BRANCH  21  28
ATOM     22  C   LIG    1       -7.582   3.287   7.464  0.00  0.00    +0.100 C 
ATOM     23  C   LIG    1       -6.831   3.446   8.761  0.00  0.00    -0.070 A 
ATOM     24  C   LIG    1       -7.116   4.508   9.598  0.00  0.00    +0.000 A 
ATOM     25  C   LIG    1       -6.428   4.654  10.788  0.00  0.00    +0.010 A 
ATOM     26  C   LIG    1       -5.454   3.739  11.140  0.00  0.00    -0.010 A 
ATOM     27  C   LIG    1       -5.172   2.673  10.305  0.00  0.00    +0.040 A 
ATOM     28  C   LIG    1       -5.857   2.530   9.113  0.00  0.00    -0.120 A 
ENDBRANCH  21  28
ENDBRANCH  17  21
ENDBRANCH   1  19
TORSDOF 3
