REMARK  Name = ZINCqH0000007zPq.0
REMARK                            x       y       z     vdW  Elec       q    Type
REMARK                         _______ _______ _______ _____ _____    ______ ____
ROOT
ATOM      1  N   LIG    1       -4.143   6.198   1.459  0.00  0.00    -0.510 NA
ATOM      2  C   LIG    1       -4.463   4.935   2.137  0.00  0.00    +0.210 C 
ENDROOT
BRANCH   1   3
ATOM      3  C   LIG    1       -3.732   5.960   0.069  0.00  0.00    +0.230 C 
BRANCH   3   9
ATOM      4  C   LIG    1        1.195   1.782   0.000  0.00  0.00    +0.130 A 
ATOM      5  C   LIG    1        1.208   3.147   0.008  0.00  0.00    -0.020 A 
ATOM      6  C   LIG    1       -0.006   3.853   0.023  0.00  0.00    -0.010 A 
ATOM      7  C   LIG    1       -0.032   5.258   0.031  0.00  0.00    +0.010 A 
ATOM      8  C   LIG    1       -1.227   5.910   0.045  0.00  0.00    +0.040 A 
ATOM      9  C   LIG    1       -2.428   5.205   0.053  0.00  0.00    -0.080 A 
ATOM     10  C   LIG    1       -2.442   3.843   0.045  0.00  0.00    +0.040 A 
ATOM     11  C   LIG    1       -1.229   3.136   0.031  0.00  0.00    -0.080 A 
ATOM     12  C   LIG    1       -1.205   1.730   0.017  0.00  0.00    +0.070 A 
ATOM     13  C   LIG    1       -0.013   1.076   0.008  0.00  0.00    -0.060 A 
BRANCH   4  15
ATOM     14  C   LIG    1        2.292  -0.327  -0.022  0.00  0.00    +0.250 C 
ATOM     15  O   LIG    1        2.370   1.100  -0.015  0.00  0.00    -0.320 OA
ENDBRANCH   4  15
ENDBRANCH   3   9
ENDBRANCH   1   3
BRANCH   1  16
ATOM     16  C   LIG    1       -5.277   7.130   1.520  0.00  0.00    +0.280 C 
BRANCH  16  17
ATOM     17  C   LIG    1       -5.513   7.540   2.951  0.00  0.00    +0.440 A 
ATOM     18  N   LIG    1       -4.742   7.049   3.881  0.00  0.00    -0.540 NA
ATOM     19  C   LIG    1       -4.907   7.388   5.171  0.00  0.00    +0.550 A 
ATOM     20  C   LIG    1       -5.947   8.288   5.529  0.00  0.00    -0.330 A 
ATOM     21  C   LIG    1       -6.762   8.799   4.533  0.00  0.00    +0.160 A 
ATOM     22  C   LIG    1       -7.736   9.666   5.021  0.00  0.00    -0.010 A 
ATOM     23  C   LIG    1       -7.731   9.862   6.337  0.00  0.00    +0.010 A 
ATOM     24  S   LIG    1       -6.445   8.931   7.087  0.00  0.00    +0.240 S 
ATOM     25  O   LIG    1       -4.174   6.922   6.030  0.00  0.00    -0.490 OA
ATOM     26  N   LIG    1       -6.511   8.394   3.223  0.00  0.00    -0.600 N 
ATOM     27  H   LIG    1       -7.063   8.733   2.501  0.00  0.00    +0.420 HD
ENDBRANCH  16  17
ENDBRANCH   1  16
TORSDOF 5
