REMARK  Name = ZINCpe000000UZIq.0
REMARK                            x       y       z     vdW  Elec       q    Type
REMARK                         _______ _______ _______ _____ _____    ______ ____
ROOT
ATOM      1  C   LIG    1       -0.013   1.082   0.008  0.00  0.00    +0.000 C 
ATOM      2  C   LIG    1       -0.750   1.589  -1.233  0.00  0.00    +0.040 C 
ATOM      3  C   LIG    1       -0.052   1.068  -2.491  0.00  0.00    +0.010 C 
ATOM      4  C   LIG    1        1.384   1.601  -2.531  0.00  0.00    +0.260 C 
ATOM      5  N   LIG    1        2.056   1.241  -1.275  0.00  0.00    -0.630 N 
ATOM      6  C   LIG    1        3.231   0.581  -1.289  0.00  0.00    +0.700 C 
ATOM      7  N   LIG    1        3.751   0.155  -2.458  0.00  0.00    -0.740 N 
ATOM      8  H   LIG    1        3.317   0.387  -3.294  0.00  0.00    +0.390 HD
ATOM      9  O   LIG    1        3.822   0.369  -0.248  0.00  0.00    -0.580 OA
ATOM     10  C   LIG    1        1.423   1.615  -0.003  0.00  0.00    +0.300 C 
ENDROOT
BRANCH   1  11
ATOM     11  C   LIG    1       -0.731   1.575   1.266  0.00  0.00    -0.350 C 
BRANCH  11  12
ATOM     12  S   LIG    1        0.057   0.856   2.733  0.00  0.00    +2.610 S 
ATOM     13  O   LIG    1        1.363   1.388   2.910  0.00  0.00    -0.940 OA
ATOM     14  O   LIG    1       -0.177  -0.545   2.789  0.00  0.00    -0.950 OA
BRANCH  12  16
ATOM     15  C   LIG    1       -2.219   1.107   4.173  0.00  0.00    +0.290 C 
ATOM     16  N   LIG    1       -0.808   1.465   4.007  0.00  0.00    -1.130 NA
ATOM     17  H   LIG    1       -0.381   2.059   4.644  0.00  0.00    +0.420 HD
ENDBRANCH  12  16
ENDBRANCH  11  12
ENDBRANCH   1  11
BRANCH   7  18
ATOM     18  C   LIG    1        4.969  -0.658  -2.465  0.00  0.00    +0.370 C 
BRANCH  18  19
ATOM     19  C   LIG    1        5.337  -1.000  -3.886  0.00  0.00    -0.280 A 
ATOM     20  C   LIG    1        5.994  -0.170  -4.786  0.00  0.00    +0.120 A 
ATOM     21  C   LIG    1        6.492   1.144  -4.693  0.00  0.00    +0.030 A 
ATOM     22  C   LIG    1        7.103   1.701  -5.773  0.00  0.00    +0.060 A 
ATOM     23  C   LIG    1        7.226   0.959  -6.960  0.00  0.00    +0.000 A 
ATOM     24  C   LIG    1        6.743  -0.299  -7.032  0.00  0.00    +0.280 A 
ATOM     25  N   LIG    1        6.127  -0.872  -5.957  0.00  0.00    -0.270 N 
ATOM     26  N   LIG    1        5.547  -2.131  -5.760  0.00  0.00    -0.320 NA
ATOM     27  C   LIG    1        5.087  -2.200  -4.530  0.00  0.00    +0.290 A 
ENDBRANCH  18  19
ENDBRANCH   7  18
TORSDOF 5
