REMARK  Name = ZINCtV00001bB3dy.0
REMARK                            x       y       z     vdW  Elec       q    Type
REMARK                         _______ _______ _______ _____ _____    ______ ____
ROOT
ATOM      1  C   LIG    1       -0.401   5.728  -0.703  0.00  0.00    +0.310 C 
ATOM      2  N   LIG    1       -0.697   4.323  -0.413  0.00  0.00    -0.470 N 
ATOM      3  C   LIG    1       -1.815   3.870   0.254  0.00  0.00    +0.110 A 
ATOM      4  C   LIG    1       -2.915   4.510   0.814  0.00  0.00    +0.000 A 
ATOM      5  C   LIG    1       -3.898   3.768   1.432  0.00  0.00    +0.030 A 
ATOM      6  C   LIG    1       -3.803   2.385   1.501  0.00  0.00    +0.000 A 
ATOM      7  C   LIG    1       -2.731   1.735   0.958  0.00  0.00    +0.030 A 
ATOM      8  C   LIG    1       -1.726   2.467   0.321  0.00  0.00    -0.090 A 
ATOM      9  C   LIG    1       -0.474   2.103  -0.342  0.00  0.00    -0.190 A 
ATOM     10  C   LIG    1        0.098   3.257  -0.765  0.00  0.00    +0.170 A 
ENDROOT
BRANCH  10  11
ATOM     11  C   LIG    1        1.381   3.356  -1.495  0.00  0.00    -0.050 A 
ATOM     12  C   LIG    1        2.531   2.762  -0.973  0.00  0.00    +0.030 A 
ATOM     13  C   LIG    1        3.724   2.852  -1.661  0.00  0.00    +0.010 A 
ATOM     14  C   LIG    1        3.783   3.540  -2.860  0.00  0.00    +0.030 A 
ATOM     15  C   LIG    1        2.648   4.136  -3.380  0.00  0.00    +0.010 A 
ATOM     16  C   LIG    1        1.448   4.048  -2.705  0.00  0.00    +0.030 A 
ENDBRANCH  10  11
BRANCH   9  17
ATOM     17  C   LIG    1        0.072   0.711  -0.526  0.00  0.00    +0.140 C 
BRANCH  17  18
ATOM     18  C   LIG    1        0.614   0.206   0.786  0.00  0.00    -0.070 A 
ATOM     19  C   LIG    1       -0.190   0.204   1.910  0.00  0.00    +0.060 A 
ATOM     20  C   LIG    1        0.304  -0.264   3.114  0.00  0.00    +0.040 A 
ATOM     21  C   LIG    1        1.608  -0.720   3.195  0.00  0.00    -0.020 A 
ATOM     22  C   LIG    1        2.415  -0.713   2.071  0.00  0.00    +0.050 A 
ATOM     23 CL   LIG    1        2.231  -1.302   4.708  0.00  0.00    -0.050 Cl
ATOM     24  C   LIG    1        1.918  -0.250   0.867  0.00  0.00    -0.020 A 
ATOM     25 CL   LIG    1        2.929  -0.241  -0.544  0.00  0.00    -0.040 Cl
ENDBRANCH  17  18
BRANCH  17  26
ATOM     26  C   LIG    1       -1.046  -0.216  -1.007  0.00  0.00    +0.260 C 
BRANCH  26  27
ATOM     27  N   LIG    1       -1.669   0.350  -2.206  0.00  0.00    -0.010 N 
ATOM     28  O   LIG    1       -2.878   0.490  -2.257  0.00  0.00    -0.150 OA
ATOM     29  O   LIG    1       -0.978   0.682  -3.152  0.00  0.00    -0.160 OA
ENDBRANCH  26  27
ENDBRANCH  17  26
ENDBRANCH   9  17
TORSDOF 5
