REMARK  Name = ZINCrD00000eP7lr.0
REMARK                            x       y       z     vdW  Elec       q    Type
REMARK                         _______ _______ _______ _____ _____    ______ ____
ROOT
ATOM      1  N   LIG    1       -4.440  -4.679  -1.543  0.00  0.00    -0.700 N 
ATOM      2  H   LIG    1       -4.417  -4.043  -2.275  0.00  0.00    +0.420 HD
ENDROOT
BRANCH   1   9
ATOM      3  C   LIG    1       -5.005  -9.326  -0.247  0.00  0.00    +0.240 A 
ATOM      4  N   LIG    1       -5.235 -10.364  -1.013  0.00  0.00    -0.260 NA
ATOM      5  N   LIG    1       -5.302  -9.999  -2.246  0.00  0.00    -0.250 NA
ATOM      6  C   LIG    1       -5.115  -8.691  -2.324  0.00  0.00    +0.110 A 
ATOM      7  C   LIG    1       -5.084  -7.773  -3.392  0.00  0.00    +0.190 A 
ATOM      8  C   LIG    1       -4.867  -6.458  -3.127  0.00  0.00    -0.020 A 
ATOM      9  C   LIG    1       -4.666  -6.027  -1.801  0.00  0.00    +0.420 A 
ATOM     10  N   LIG    1       -4.695  -6.882  -0.805  0.00  0.00    -0.340 NA
ATOM     11  N   LIG    1       -4.921  -8.239  -1.042  0.00  0.00    -0.270 N 
BRANCH   3  15
ATOM     12  C   LIG    1       -7.293 -10.305   1.305  0.00  0.00    +0.050 C 
ATOM     13  C   LIG    1       -6.048  -9.853   2.072  0.00  0.00    -0.020 C 
ATOM     14  C   LIG    1       -4.786 -10.709   1.940  0.00  0.00    +0.070 C 
ATOM     15  C   LIG    1       -4.860  -9.344   1.253  0.00  0.00    +0.040 C 
ENDBRANCH   3  15
ENDBRANCH   1   9
BRANCH   1  16
ATOM     16  C   LIG    1       -4.236  -4.221  -0.167  0.00  0.00    +0.270 C 
BRANCH  16  17
ATOM     17  C   LIG    1       -4.010  -2.708  -0.161  0.00  0.00    +0.030 C 
BRANCH  17  18
ATOM     18  C   LIG    1       -3.796  -2.229   1.276  0.00  0.00    +0.110 C 
BRANCH  18  19
ATOM     19  C   LIG    1       -3.574  -0.739   1.282  0.00  0.00    +0.180 A 
ATOM     20  C   LIG    1       -4.651   0.132   1.296  0.00  0.00    -0.080 A 
ATOM     21  C   LIG    1       -4.397   1.495   1.301  0.00  0.00    +0.320 A 
ATOM     22  N   LIG    1       -3.143   1.916   1.297  0.00  0.00    -0.520 NA
ATOM     23  C   LIG    1       -2.143   1.058   1.278  0.00  0.00    +0.330 A 
ATOM     24  N   LIG    1       -2.346  -0.244   1.272  0.00  0.00    -0.510 NA
BRANCH  23  25
ATOM     25  C   LIG    1       -0.729   1.579   1.267  0.00  0.00    -0.000 C 
ATOM     26  C   LIG    1       -0.750   3.109   1.275  0.00  0.00    +0.050 C 
ATOM     27  C   LIG    1        0.011   1.072   2.506  0.00  0.00    +0.050 C 
ATOM     28  C   LIG    1       -0.013   1.086   0.008  0.00  0.00    +0.050 C 
ENDBRANCH  23  25
ENDBRANCH  18  19
ENDBRANCH  17  18
ENDBRANCH  16  17
ENDBRANCH   1  16
TORSDOF 7
