REMARK  Name = ZINCpk000000ojXz.0
REMARK                            x       y       z     vdW  Elec       q    Type
REMARK                         _______ _______ _______ _____ _____    ______ ____
ROOT
ATOM      1  C   LIG    1       -2.072  -0.764   1.151  0.00  0.00    -0.110 A 
ATOM      2  C   LIG    1       -1.453  -0.541   2.351  0.00  0.00    +0.460 A 
ATOM      3  N   LIG    1       -2.110  -0.860   3.518  0.00  0.00    -0.540 N 
ATOM      4  C   LIG    1       -3.344  -1.396   3.480  0.00  0.00    +0.710 A 
ATOM      5  N   LIG    1       -3.964  -1.627   2.308  0.00  0.00    -0.660 N 
ATOM      6  H   LIG    1       -4.853  -2.014   2.304  0.00  0.00    +0.430 HD
ATOM      7  O   LIG    1       -3.907  -1.676   4.521  0.00  0.00    -0.540 OA
ATOM      8  C   LIG    1       -3.361  -1.325   1.142  0.00  0.00    +0.550 A 
ATOM      9  O   LIG    1       -3.930  -1.538   0.084  0.00  0.00    -0.520 OA
ENDROOT
BRANCH   2  10
ATOM     10  N   LIG    1       -0.189   0.002   2.391  0.00  0.00    -0.840 N 
ATOM     11  H   LIG    1        0.205   0.251   3.242  0.00  0.00    +0.400 HD
ATOM     12  H   LIG    1        0.307   0.136   1.569  0.00  0.00    +0.420 HD
ENDBRANCH   2  10
BRANCH   1  13
ATOM     13  N   LIG    1       -1.421  -0.440  -0.063  0.00  0.00    -0.620 N 
BRANCH  13  14
ATOM     14  C   LIG    1       -1.053  -1.502  -1.002  0.00  0.00    +0.280 C 
BRANCH  14  16
ATOM     15  C   LIG    1        0.783  -3.027  -1.740  0.00  0.00    +0.000 C 
ATOM     16  C   LIG    1        0.399  -1.919  -0.758  0.00  0.00    -0.020 C 
ENDBRANCH  14  16
ENDBRANCH  13  14
BRANCH  13  17
ATOM     17  C   LIG    1       -1.116   0.957  -0.380  0.00  0.00    +0.270 C 
BRANCH  17  18
ATOM     18  C   LIG    1       -2.309   1.590  -1.098  0.00  0.00    +0.000 C 
BRANCH  18  19
ATOM     19  C   LIG    1       -1.990   3.049  -1.429  0.00  0.00    +0.160 C 
BRANCH  19  20
ATOM     20  O   LIG    1       -3.105   3.640  -2.100  0.00  0.00    -0.390 OA
ATOM     21  C   LIG    1       -2.910   5.010  -2.456  0.00  0.00    +0.200 C 
ENDBRANCH  19  20
ENDBRANCH  18  19
ENDBRANCH  17  18
ENDBRANCH  13  17
ENDBRANCH   1  13
BRANCH   3  22
ATOM     22  C   LIG    1       -1.460  -0.620   4.809  0.00  0.00    +0.370 C 
BRANCH  22  23
ATOM     23  C   LIG    1       -0.670  -1.839   5.208  0.00  0.00    -0.120 A 
ATOM     24  C   LIG    1       -1.266  -2.833   5.961  0.00  0.00    +0.040 A 
ATOM     25  C   LIG    1       -0.543  -3.954   6.323  0.00  0.00    +0.010 A 
ATOM     26  C   LIG    1        0.780  -4.076   5.941  0.00  0.00    +0.010 A 
ATOM     27  C   LIG    1        1.378  -3.080   5.192  0.00  0.00    +0.000 A 
ATOM     28  C   LIG    1        0.653  -1.961   4.826  0.00  0.00    +0.020 A 
ENDBRANCH  22  23
ENDBRANCH   3  22
TORSDOF 10
