REMARK  Name = ZINCnE000001Ed0k.0
REMARK                            x       y       z     vdW  Elec       q    Type
REMARK                         _______ _______ _______ _____ _____    ______ ____
ROOT
ATOM      1  N   LIG    1        2.061  -1.495  -3.528  0.00  0.00    -0.450 N 
ATOM      2  C   LIG    1        3.049  -1.849  -4.394  0.00  0.00    +0.400 A 
ATOM      3  N   LIG    1        4.157  -1.264  -4.038  0.00  0.00    -0.470 NA
ATOM      4  C   LIG    1        3.932  -0.511  -2.942  0.00  0.00    +0.030 A 
ATOM      5  C   LIG    1        2.612  -0.643  -2.609  0.00  0.00    +0.240 A 
ENDROOT
BRANCH   4   6
ATOM      6  C   LIG    1        4.934   0.313  -2.226  0.00  0.00    +0.010 A 
ATOM      7  C   LIG    1        4.561   1.528  -1.651  0.00  0.00    +0.040 A 
ATOM      8  C   LIG    1        5.498   2.288  -0.983  0.00  0.00    +0.030 A 
ATOM      9  C   LIG    1        6.809   1.853  -0.891  0.00  0.00    -0.040 A 
ATOM     10  C   LIG    1        7.186   0.651  -1.464  0.00  0.00    +0.020 A 
ATOM     11 CL   LIG    1        7.984   2.819  -0.054  0.00  0.00    -0.080 Cl
ATOM     12  C   LIG    1        6.256  -0.120  -2.131  0.00  0.00    +0.050 A 
ENDBRANCH   4   6
BRANCH   5  13
ATOM     13  N   LIG    1        1.958  -0.035  -1.540  0.00  0.00    -0.670 N 
ATOM     14  H   LIG    1        2.158  -0.307  -0.631  0.00  0.00    +0.410 HD
ATOM     15  C   LIG    1        1.048   0.932  -1.769  0.00  0.00    +0.530 C 
ATOM     16  O   LIG    1        0.863   1.336  -2.898  0.00  0.00    -0.490 OA
BRANCH  15  17
ATOM     17  C   LIG    1        0.259   1.512  -0.623  0.00  0.00    -0.090 C 
ATOM     18  C   LIG    1        1.218   2.140   0.389  0.00  0.00    +0.050 C 
BRANCH  17  19
ATOM     19  C   LIG    1       -0.683   2.566  -1.144  0.00  0.00    +0.510 C 
ATOM     20  O   LIG    1       -1.533   2.272  -1.968  0.00  0.00    -0.680 OA
ATOM     21  O   LIG    1       -0.595   3.714  -0.743  0.00  0.00    -0.690 OA
ENDBRANCH  17  19
ENDBRANCH  15  17
ENDBRANCH   5  13
BRANCH   1  23
ATOM     22  C   LIG    1        0.051  -1.555  -4.920  0.00  0.00    +0.060 C 
ATOM     23  C   LIG    1        0.666  -1.940  -3.573  0.00  0.00    +0.230 C 
ATOM     24  C   LIG    1        0.609  -3.459  -3.401  0.00  0.00    +0.040 C 
ENDBRANCH   1  23
TORSDOF 5
