REMARK  Name = ZINCkj000005kCQh.0
REMARK                            x       y       z     vdW  Elec       q    Type
REMARK                         _______ _______ _______ _____ _____    ______ ____
ROOT
ATOM      1  C   LIG    1        2.425   6.027   1.374  0.00  0.00    +0.250 C 
ENDROOT
BRANCH   1   2
ATOM      2  N   LIG    1        1.584   4.822   1.376  0.00  0.00    -0.510 N 
ATOM      3  H   LIG    1        1.995   4.127   1.980  0.00  0.00    +0.430 HD
ATOM      4  H   LIG    1        0.662   5.056   1.711  0.00  0.00    +0.430 HD
BRANCH   2   5
ATOM      5  C   LIG    1        1.489   4.290   0.010  0.00  0.00    +0.370 C 
BRANCH   5  12
ATOM      6  C   LIG    1       -1.679   4.228   0.039  0.00  0.00    +0.160 C 
ATOM      7  C   LIG    1       -0.771   3.025   0.025  0.00  0.00    +0.100 A 
ATOM      8  N   LIG    1       -1.155   1.774   0.017  0.00  0.00    -0.270 NA
ATOM      9  N   LIG    1       -0.011   0.966   0.007  0.00  0.00    -0.450 N 
ATOM     10  H   LIG    1        0.002  -0.004   0.002  0.00  0.00    +0.450 HD
ATOM     11  C   LIG    1        1.069   1.774   0.001  0.00  0.00    +0.310 A 
ATOM     12  C   LIG    1        0.627   3.053   0.012  0.00  0.00    -0.330 A 
ENDBRANCH   5  12
ENDBRANCH   2   5
ENDBRANCH   1   2
BRANCH   1  13
ATOM     13  C   LIG    1        2.523   6.582   2.797  0.00  0.00    +0.230 C 
BRANCH  13  14
ATOM     14  O   LIG    1        1.217   6.913   3.271  0.00  0.00    -0.540 OA
ATOM     15  H   LIG    1        0.761   7.578   2.736  0.00  0.00    +0.390 HD
ENDBRANCH  13  14
BRANCH  13  16
ATOM     16  C   LIG    1        3.399   7.837   2.795  0.00  0.00    +0.190 C 
BRANCH  16  17
ATOM     17  O   LIG    1        3.587   8.288   4.138  0.00  0.00    -0.300 OA
BRANCH  17  18
ATOM     18  C   LIG    1        4.347   9.402   4.314  0.00  0.00    +0.110 A 
ATOM     19  C   LIG    1        4.904  10.042   3.217  0.00  0.00    -0.050 A 
ATOM     20  C   LIG    1        5.672  11.176   3.397  0.00  0.00    +0.030 A 
ATOM     21  C   LIG    1        5.894  11.668   4.672  0.00  0.00    +0.070 A 
ATOM     22  C   LIG    1        5.343  11.026   5.768  0.00  0.00    +0.040 A 
ATOM     23  F   LIG    1        6.649  12.774   4.847  0.00  0.00    -0.130 F 
ATOM     24  C   LIG    1        4.570   9.895   5.591  0.00  0.00    +0.030 A 
ENDBRANCH  17  18
ENDBRANCH  16  17
ENDBRANCH  13  16
ENDBRANCH   1  13
TORSDOF 8
