REMARK  Name = ZINCqH00000072Zc.0
REMARK                            x       y       z     vdW  Elec       q    Type
REMARK                         _______ _______ _______ _____ _____    ______ ____
ROOT
ATOM      1  C   LIG    1       -1.917   0.038  -0.427  0.00  0.00    +0.580 C 
ATOM      2  N   LIG    1       -0.873  -0.108  -1.267  0.00  0.00    -0.610 N 
ATOM      3  C   LIG    1       -0.038   1.044  -1.631  0.00  0.00    +0.270 C 
ATOM      4  C   LIG    1        0.022   1.148  -3.158  0.00  0.00    +0.010 C 
ATOM      5  C   LIG    1        0.502  -0.184  -3.737  0.00  0.00    +0.170 C 
ATOM      6  C   LIG    1       -0.488  -1.290  -3.367  0.00  0.00    +0.030 C 
ATOM      7  C   LIG    1       -0.554  -1.422  -1.842  0.00  0.00    +0.290 C 
ATOM      8  O   LIG    1       -2.627  -0.914  -0.168  0.00  0.00    -0.530 OA
ENDROOT
BRANCH   1  12
ATOM      9  C   LIG    1       -2.724   3.826   1.317  0.00  0.00    +0.170 A 
ATOM     10  C   LIG    1       -1.411   3.384   1.188  0.00  0.00    -0.090 A 
ATOM     11  C   LIG    1       -1.146   2.156   0.628  0.00  0.00    +0.100 A 
ATOM     12  C   LIG    1       -2.197   1.352   0.177  0.00  0.00    -0.200 A 
ATOM     13  C   LIG    1       -3.521   1.799   0.309  0.00  0.00    +0.210 A 
ATOM     14  C   LIG    1       -3.775   3.034   0.879  0.00  0.00    -0.040 A 
BRANCH   9  16
ATOM     15  C   LIG    1       -1.850   5.802   2.306  0.00  0.00    +0.250 C 
ATOM     16  O   LIG    1       -2.978   5.037   1.875  0.00  0.00    -0.310 OA
ENDBRANCH   9  16
BRANCH  13  17
ATOM     17  O   LIG    1       -4.547   1.023  -0.121  0.00  0.00    -0.480 OA
ATOM     18  H   LIG    1       -4.893   0.420   0.551  0.00  0.00    +0.410 HD
ENDBRANCH  13  17
ENDBRANCH   1  12
BRANCH   5  19
ATOM     19  O   LIG    1        0.590  -0.081  -5.160  0.00  0.00    -0.320 OA
BRANCH  19  20
ATOM     20  C   LIG    1        1.836  -0.004  -5.697  0.00  0.00    +0.090 A 
ATOM     21  C   LIG    1        2.300   1.199  -6.208  0.00  0.00    -0.090 A 
ATOM     22  C   LIG    1        3.569   1.275  -6.748  0.00  0.00    +0.020 A 
ATOM     23  C   LIG    1        4.372   0.150  -6.792  0.00  0.00    +0.010 A 
ATOM     24  C   LIG    1        3.910  -1.052  -6.288  0.00  0.00    +0.020 A 
ATOM     25  C   LIG    1        1.423   2.424  -6.168  0.00  0.00    +0.100 C 
ATOM     26  C   LIG    1        2.644  -1.132  -5.742  0.00  0.00    -0.110 A 
ATOM     27  C   LIG    1        2.140  -2.442  -5.194  0.00  0.00    +0.090 C 
ENDBRANCH  19  20
ENDBRANCH   5  19
TORSDOF 5
