REMARK  Name = ZINCpk00000y6xjo.0
REMARK                            x       y       z     vdW  Elec       q    Type
REMARK                         _______ _______ _______ _____ _____    ______ ____
ROOT
ATOM      1  C   LIG    1        1.767   2.974  -0.202  0.00  0.00    +0.580 C 
ATOM      2  N   LIG    1        1.609   1.800  -0.844  0.00  0.00    -0.610 N 
ATOM      3  C   LIG    1        0.335   1.268  -1.363  0.00  0.00    +0.270 C 
ATOM      4  C   LIG    1        0.541  -0.266  -1.423  0.00  0.00    +0.040 C 
ATOM      5  C   LIG    1        2.026  -0.364  -1.861  0.00  0.00    +0.040 C 
ATOM      6  C   LIG    1        2.678   0.836  -1.143  0.00  0.00    +0.220 C 
ATOM      7  O   LIG    1        0.795   3.651   0.075  0.00  0.00    -0.520 OA
ENDROOT
BRANCH   1  11
ATOM      8  C   LIG    1        4.815   6.640   1.260  0.00  0.00    +0.130 C 
ATOM      9  C   LIG    1        4.590   5.202   0.869  0.00  0.00    -0.080 A 
ATOM     10  C   LIG    1        3.327   4.772   0.527  0.00  0.00    +0.120 A 
ATOM     11  C   LIG    1        3.119   3.439   0.165  0.00  0.00    -0.150 A 
ATOM     12  C   LIG    1        4.193   2.546   0.157  0.00  0.00    +0.070 A 
ATOM     13  C   LIG    1        5.455   2.984   0.494  0.00  0.00    +0.000 A 
ATOM     14  C   LIG    1        5.658   4.311   0.854  0.00  0.00    +0.180 A 
BRANCH  14  15
ATOM     15  N   LIG    1        6.939   4.752   1.202  0.00  0.00    -0.330 N 
ATOM     16  C   LIG    1        8.074   4.025   1.190  0.00  0.00    +0.490 A 
ATOM     17  N   LIG    1        9.054   4.800   1.578  0.00  0.00    -0.530 NA
ATOM     18  C   LIG    1        8.587   6.018   1.853  0.00  0.00    +0.440 A 
ATOM     19  N   LIG    1        7.298   6.037   1.639  0.00  0.00    -0.310 NA
ENDBRANCH  14  15
ENDBRANCH   1  11
BRANCH   6  20
ATOM     20  C   LIG    1        3.722   1.483  -2.055  0.00  0.00    +0.320 C 
BRANCH  20  21
ATOM     21  N   LIG    1        4.849   0.565  -2.236  0.00  0.00    -0.290 N 
ATOM     22  C   LIG    1        5.322   0.114  -3.421  0.00  0.00    +0.150 A 
ATOM     23  C   LIG    1        6.359  -0.704  -3.127  0.00  0.00    +0.140 A 
ATOM     24  N   LIG    1        6.469  -0.714  -1.793  0.00  0.00    -0.260 NA
ATOM     25  N   LIG    1        5.563   0.052  -1.296  0.00  0.00    -0.090 NA
ENDBRANCH  20  21
ENDBRANCH   6  20
TORSDOF 4
