REMARK  Name = ZINCpk00001rYvY5.0
REMARK                            x       y       z     vdW  Elec       q    Type
REMARK                         _______ _______ _______ _____ _____    ______ ____
ROOT
ATOM      1  C   LIG    1       -0.231   7.321  -1.395  0.00  0.00    +0.140 C 
ATOM      2  C   LIG    1       -1.677   7.752  -1.089  0.00  0.00    +0.350 C 
ATOM      3  N   LIG    1       -1.486   8.777  -2.133  0.00  0.00    -0.630 N 
ATOM      4  C   LIG    1       -2.044   9.976  -2.392  0.00  0.00    +0.680 C 
ATOM      5  O   LIG    1       -1.677  10.622  -3.353  0.00  0.00    -0.560 OA
ATOM      6  C   LIG    1       -0.439   7.962  -2.779  0.00  0.00    +0.360 C 
ENDROOT
BRANCH   1  12
ATOM      7  C   LIG    1        2.852   7.358  -1.843  0.00  0.00    +0.400 C 
ATOM      8  N   LIG    1        2.135   8.028  -0.756  0.00  0.00    -0.300 N 
ATOM      9  N   LIG    1        2.659   8.739   0.185  0.00  0.00    -0.080 NA
ATOM     10  N   LIG    1        1.720   9.165   0.955  0.00  0.00    -0.070 NA
ATOM     11  N   LIG    1        0.584   8.742   0.519  0.00  0.00    -0.280 NA
ATOM     12  C   LIG    1        0.804   8.020  -0.552  0.00  0.00    +0.170 A 
ENDBRANCH   1  12
BRANCH   1  13
ATOM     13  N   LIG    1       -0.045   5.864  -1.440  0.00  0.00    -0.640 NA
ATOM     14  H   LIG    1        0.775   5.621  -1.975  0.00  0.00    +0.350 HD
BRANCH  13  15
ATOM     15  C   LIG    1        0.025   5.301  -0.085  0.00  0.00    +0.230 C 
BRANCH  15  16
ATOM     16  C   LIG    1        0.081   3.797  -0.169  0.00  0.00    -0.090 A 
ATOM     17  C   LIG    1        1.303   3.155  -0.249  0.00  0.00    +0.010 A 
ATOM     18  C   LIG    1        1.355   1.775  -0.326  0.00  0.00    +0.000 A 
ATOM     19  C   LIG    1        0.185   1.038  -0.323  0.00  0.00    +0.010 A 
ATOM     20  C   LIG    1       -1.036   1.681  -0.248  0.00  0.00    +0.000 A 
ATOM     21  C   LIG    1       -1.088   3.060  -0.166  0.00  0.00    +0.040 A 
ENDBRANCH  15  16
ENDBRANCH  13  15
ENDBRANCH   1  13
BRANCH   4  22
ATOM     22  O   LIG    1       -3.008  10.459  -1.585  0.00  0.00    -0.360 OA
BRANCH  22  23
ATOM     23  C   LIG    1       -3.563  11.756  -1.925  0.00  0.00    +0.140 C 
ATOM     24  C   LIG    1       -2.451  12.807  -1.911  0.00  0.00    +0.030 C 
ATOM     25  C   LIG    1       -4.637  12.136  -0.902  0.00  0.00    +0.080 C 
ATOM     26  C   LIG    1       -4.188  11.694  -3.321  0.00  0.00    +0.040 C 
ENDBRANCH  22  23
ENDBRANCH   4  22
TORSDOF 6
