REMARK  Name = ZINCrH00000No4Bp.0
REMARK                            x       y       z     vdW  Elec       q    Type
REMARK                         _______ _______ _______ _____ _____    ______ ____
ROOT
ATOM      1  C   LIG    1        0.002  -0.004   0.002  0.00  0.00    +0.090 C 
ATOM      2  C   LIG    1       -0.018   1.503   0.010  0.00  0.00    +0.140 C 
ATOM      3  N   LIG    1       -1.151   2.136   0.019  0.00  0.00    -0.230 NA
ENDROOT
BRANCH   2   4
ATOM      4  C   LIG    1        1.248   2.257   0.002  0.00  0.00    -0.070 A 
ATOM      5  C   LIG    1        2.469   1.577  -0.007  0.00  0.00    +0.080 A 
ATOM      6  C   LIG    1        3.650   2.285  -0.020  0.00  0.00    -0.010 A 
ATOM      7  C   LIG    1        3.630   3.676  -0.012  0.00  0.00    +0.180 A 
ATOM      8  N   LIG    1        4.829   4.392  -0.019  0.00  0.00    -0.660 N 
ATOM      9  H   LIG    1        5.649   3.955  -0.296  0.00  0.00    +0.410 HD
ATOM     10  C   LIG    1        4.855   5.684   0.357  0.00  0.00    +0.520 C 
ATOM     11  C   LIG    1        3.600   6.380   0.808  0.00  0.00    +0.080 C 
ATOM     12  C   LIG    1        2.402   5.863   0.010  0.00  0.00    +0.110 C 
ATOM     13  O   LIG    1        5.903   6.294   0.332  0.00  0.00    -0.520 OA
ATOM     14  C   LIG    1        2.417   4.356   0.002  0.00  0.00    -0.130 A 
ATOM     15  C   LIG    1        1.231   3.655   0.010  0.00  0.00    +0.100 A 
ENDBRANCH   2   4
BRANCH   3  16
ATOM     16  N   LIG    1       -2.355   1.419   0.021  0.00  0.00    -0.580 N 
ATOM     17  H   LIG    1       -2.342   0.450   0.016  0.00  0.00    +0.390 HD
ATOM     18  C   LIG    1       -3.531   2.077   0.030  0.00  0.00    +0.540 C 
ATOM     19  O   LIG    1       -3.547   3.290   0.037  0.00  0.00    -0.500 OA
BRANCH  18  20
ATOM     20  C   LIG    1       -4.826   1.306   0.032  0.00  0.00    +0.100 C 
BRANCH  20  21
ATOM     21  C   LIG    1       -6.002   2.285   0.043  0.00  0.00    +0.100 C 
BRANCH  21  22
ATOM     22  S   LIG    1       -7.561   1.356   0.045  0.00  0.00    -0.100 S 
BRANCH  22  23
ATOM     23  C   LIG    1       -8.780   2.628   0.058  0.00  0.00    -0.100 A 
ATOM     24  C   LIG    1       -8.393   3.963   0.069  0.00  0.00    +0.040 A 
ATOM     25  C   LIG    1       -9.350   4.958   0.073  0.00  0.00    +0.010 A 
ATOM     26  C   LIG    1      -10.695   4.627   0.078  0.00  0.00    +0.100 A 
ATOM     27  C   LIG    1      -11.083   3.298   0.072  0.00  0.00    +0.010 A 
ATOM     28  F   LIG    1      -11.629   5.603   0.088  0.00  0.00    -0.140 F 
ATOM     29  C   LIG    1      -10.129   2.299   0.063  0.00  0.00    +0.070 A 
ENDBRANCH  22  23
ENDBRANCH  21  22
ENDBRANCH  20  21
ENDBRANCH  18  20
ENDBRANCH   3  16
TORSDOF 6
