REMARK  Name = ZINCkj00000dEhU3.1
REMARK                            x       y       z     vdW  Elec       q    Type
REMARK                         _______ _______ _______ _____ _____    ______ ____
ROOT
ATOM      1  N   LIG    1       -2.331   1.763  -0.414  0.00  0.00    -0.380 N 
ATOM      2  C   LIG    1       -2.472   1.338   0.995  0.00  0.00    +0.260 C 
ATOM      3  C   LIG    1       -1.059   1.528   1.611  0.00  0.00    +0.080 C 
ATOM      4  C   LIG    1       -0.148   1.108   0.428  0.00  0.00    +0.080 C 
ATOM      5  C   LIG    1       -0.917   1.621  -0.808  0.00  0.00    +0.160 C 
ATOM      6  H   LIG    1       -2.615   2.726  -0.509  0.00  0.00    +0.430 HD
ENDROOT
BRANCH   1   7
ATOM      7  C   LIG    1       -3.169   0.913  -1.270  0.00  0.00    +0.250 C 
BRANCH   7   8
ATOM      8  C   LIG    1       -4.643   1.145  -0.932  0.00  0.00    +0.010 C 
BRANCH   8   9
ATOM      9  C   LIG    1       -5.516   0.259  -1.824  0.00  0.00    +0.310 C 
BRANCH   9  15
ATOM     10  O   LIG    1       -7.341   2.163  -2.965  0.00  0.00    -0.520 OA
ATOM     11  C   LIG    1       -7.705   1.405  -2.091  0.00  0.00    +0.520 C 
ATOM     12  C   LIG    1       -9.100   1.363  -1.506  0.00  0.00    +0.060 C 
ATOM     13  C   LIG    1       -8.935   0.565  -0.191  0.00  0.00    +0.050 C 
ATOM     14  C   LIG    1       -7.676  -0.281  -0.494  0.00  0.00    +0.260 C 
ATOM     15  N   LIG    1       -6.928   0.481  -1.500  0.00  0.00    -0.630 N 
ENDBRANCH   9  15
ENDBRANCH   8   9
ENDBRANCH   7   8
ENDBRANCH   1   7
BRANCH   5  16
ATOM     16  C   LIG    1       -0.793   0.615  -1.953  0.00  0.00    +0.360 C 
BRANCH  16  17
ATOM     17  N   LIG    1        0.614   0.489  -2.343  0.00  0.00    -0.390 N 
ATOM     18  C   LIG    1        1.326  -0.656  -2.387  0.00  0.00    +0.240 A 
ATOM     19  C   LIG    1        2.578  -0.347  -2.798  0.00  0.00    -0.090 A 
ATOM     20  C   LIG    1        2.635   1.035  -3.002  0.00  0.00    +0.260 A 
ATOM     21  N   LIG    1        1.458   1.538  -2.730  0.00  0.00    -0.300 NA
ENDBRANCH  16  17
ENDBRANCH   5  16
TORSDOF 6
