REMARK  Name = ZINCkj00000dEhU3.0
REMARK                            x       y       z     vdW  Elec       q    Type
REMARK                         _______ _______ _______ _____ _____    ______ ____
ROOT
ATOM      1  N   LIG    1       -2.073   0.978   1.348  0.00  0.00    -0.380 N 
ATOM      2  C   LIG    1       -2.151   0.164   2.579  0.00  0.00    +0.250 C 
ATOM      3  C   LIG    1       -1.081   0.769   3.522  0.00  0.00    +0.080 C 
ATOM      4  C   LIG    1        0.049   1.132   2.522  0.00  0.00    +0.100 C 
ATOM      5  C   LIG    1       -0.729   1.579   1.267  0.00  0.00    +0.150 C 
ATOM      6  H   LIG    1       -2.231   0.391   0.542  0.00  0.00    +0.430 HD
ENDROOT
BRANCH   1   7
ATOM      7  C   LIG    1       -3.087   2.039   1.391  0.00  0.00    +0.270 C 
BRANCH   7   8
ATOM      8  C   LIG    1       -4.483   1.413   1.349  0.00  0.00    +0.020 C 
BRANCH   8   9
ATOM      9  C   LIG    1       -5.540   2.518   1.395  0.00  0.00    +0.310 C 
BRANCH   9  15
ATOM     10  O   LIG    1       -7.166   1.911  -0.895  0.00  0.00    -0.520 OA
ATOM     11  C   LIG    1       -7.561   1.668   0.226  0.00  0.00    +0.520 C 
ATOM     12  C   LIG    1       -8.894   1.035   0.557  0.00  0.00    +0.060 C 
ATOM     13  C   LIG    1       -8.742   0.570   2.023  0.00  0.00    +0.050 C 
ATOM     14  C   LIG    1       -7.640   1.520   2.542  0.00  0.00    +0.260 C 
ATOM     15  N   LIG    1       -6.875   1.919   1.355  0.00  0.00    -0.630 N 
ENDBRANCH   9  15
ENDBRANCH   8   9
ENDBRANCH   7   8
ENDBRANCH   1   7
BRANCH   5  16
ATOM     16  C   LIG    1       -0.013   1.086   0.008  0.00  0.00    +0.370 C 
BRANCH  16  17
ATOM     17  N   LIG    1       -0.721   1.571  -1.179  0.00  0.00    -0.410 N 
ATOM     18  C   LIG    1       -0.183   2.288  -2.187  0.00  0.00    +0.250 A 
ATOM     19  C   LIG    1       -1.162   2.534  -3.088  0.00  0.00    -0.100 A 
ATOM     20  C   LIG    1       -2.342   1.956  -2.609  0.00  0.00    +0.280 A 
ATOM     21  N   LIG    1       -2.079   1.378  -1.464  0.00  0.00    -0.350 NA
ENDBRANCH  16  17
ENDBRANCH   5  16
TORSDOF 6
