REMARK  Name = ZINCvU00000004L6.0
REMARK                            x       y       z     vdW  Elec       q    Type
REMARK                         _______ _______ _______ _____ _____    ______ ____
ROOT
ATOM      1  C   LIG    1       -0.515  -0.035  -5.766  0.00  0.00    +0.100 C 
ATOM      2  C   LIG    1       -0.824   0.652  -4.434  0.00  0.00    +0.170 C 
ATOM      3  N   LIG    1       -1.906  -0.054  -3.726  0.00  0.00    -0.720 N 
ATOM      4  H   LIG    1       -2.816  -0.181  -4.038  0.00  0.00    +0.440 HD
ATOM      5  C   LIG    1       -1.386  -0.488  -2.564  0.00  0.00    +0.700 C 
ATOM      6  N   LIG    1       -0.098  -0.155  -2.424  0.00  0.00    -0.570 N 
ATOM      7  O   LIG    1       -2.016  -1.114  -1.734  0.00  0.00    -0.520 OA
ATOM      8  C   LIG    1        0.354   0.540  -3.486  0.00  0.00    +0.530 C 
ATOM      9  O   LIG    1        1.470   0.984  -3.650  0.00  0.00    -0.460 OA
ENDROOT
BRANCH   2  10
ATOM     10  C   LIG    1       -1.190   2.096  -4.657  0.00  0.00    -0.110 A 
ATOM     11  C   LIG    1       -0.203   3.064  -4.673  0.00  0.00    +0.070 A 
ATOM     12  C   LIG    1       -0.536   4.389  -4.882  0.00  0.00    -0.010 A 
ATOM     13  C   LIG    1       -1.861   4.748  -5.064  0.00  0.00    +0.110 A 
ATOM     14  C   LIG    1       -2.849   3.779  -5.043  0.00  0.00    -0.010 A 
ATOM     15  F   LIG    1       -2.189   6.043  -5.264  0.00  0.00    -0.130 F 
ATOM     16  C   LIG    1       -2.513   2.454  -4.839  0.00  0.00    +0.060 A 
ENDBRANCH   2  10
BRANCH   6  17
ATOM     17  C   LIG    1        0.718  -0.497  -1.257  0.00  0.00    +0.310 C 
BRANCH  17  18
ATOM     18  C   LIG    1        0.761  -1.995  -1.096  0.00  0.00    -0.090 A 
ATOM     19  C   LIG    1        0.872  -2.553   0.164  0.00  0.00    +0.030 A 
ATOM     20  C   LIG    1        0.907  -3.926   0.311  0.00  0.00    +0.020 A 
ATOM     21  C   LIG    1        0.841  -4.743  -0.802  0.00  0.00    +0.000 A 
ATOM     22  C   LIG    1        0.737  -4.186  -2.063  0.00  0.00    +0.010 A 
ATOM     23  C   LIG    1        0.697  -2.812  -2.210  0.00  0.00    +0.000 A 
ENDBRANCH  17  18
BRANCH  17  24
ATOM     24  C   LIG    1        0.106   0.132  -0.004  0.00  0.00    +0.040 C 
BRANCH  24  25
ATOM     25  C   LIG    1        0.176   1.657  -0.113  0.00  0.00    +0.020 C 
BRANCH  25  26
ATOM     26  C   LIG    1       -0.435   2.286   1.140  0.00  0.00    +0.060 C 
BRANCH  26  27
ATOM     27  C   LIG    1       -0.367   3.788   1.032  0.00  0.00    -0.080 A 
ATOM     28  C   LIG    1        0.736   4.466   1.518  0.00  0.00    +0.000 A 
ATOM     29  C   LIG    1        0.801   5.843   1.415  0.00  0.00    +0.000 A 
ATOM     30  C   LIG    1       -0.241   6.543   0.835  0.00  0.00    +0.000 A 
ATOM     31  C   LIG    1       -1.346   5.865   0.354  0.00  0.00    +0.000 A 
ATOM     32  C   LIG    1       -1.409   4.488   0.453  0.00  0.00    +0.000 A 
ENDBRANCH  26  27
ENDBRANCH  25  26
ENDBRANCH  24  25
ENDBRANCH  17  24
ENDBRANCH   6  17
TORSDOF 7
