REMARK  Name = ZINCrD0000075hRV.0
REMARK                            x       y       z     vdW  Elec       q    Type
REMARK                         _______ _______ _______ _____ _____    ______ ____
ROOT
ATOM      1  C   LIG    1       -2.672  -1.986  -1.610  0.00  0.00    +0.530 C 
ATOM      2  N   LIG    1       -1.609  -1.193  -1.370  0.00  0.00    -0.720 N 
ATOM      3  H   LIG    1       -1.111  -0.811  -2.110  0.00  0.00    +0.400 HD
ATOM      4  O   LIG    1       -3.294  -2.463  -0.684  0.00  0.00    -0.520 OA
ENDROOT
BRANCH   1   5
ATOM      5  C   LIG    1       -3.087  -2.280  -3.028  0.00  0.00    +0.080 C 
BRANCH   5   6
ATOM      6  S   LIG    1       -4.540  -3.367  -3.019  0.00  0.00    -0.160 S 
BRANCH   6   7
ATOM      7  C   LIG    1       -4.883  -3.603  -4.785  0.00  0.00    +0.120 C 
BRANCH   7  11
ATOM      8  C   LIG    1       -8.289  -6.146  -5.248  0.00  0.00    -0.020 A 
ATOM      9  C   LIG    1       -8.454  -4.763  -5.160  0.00  0.00    +0.070 A 
ATOM     10  C   LIG    1       -7.351  -3.948  -5.010  0.00  0.00    +0.040 A 
ATOM     11  C   LIG    1       -6.084  -4.499  -4.948  0.00  0.00    -0.040 A 
ATOM     12  C   LIG    1       -5.913  -5.869  -5.040  0.00  0.00    +0.040 A 
ATOM     13  C   LIG    1       -7.007  -6.696  -5.184  0.00  0.00    +0.070 A 
BRANCH   8  15
ATOM     14  N   LIG    1      -10.335  -7.674  -5.528  0.00  0.00    -0.410 NA
ATOM     15  C   LIG    1       -9.430  -6.998  -5.404  0.00  0.00    +0.250 C 
ENDBRANCH   8  15
ENDBRANCH   7  11
ENDBRANCH   6   7
ENDBRANCH   5   6
ENDBRANCH   1   5
BRANCH   2  16
ATOM     16  C   LIG    1       -1.204  -0.907   0.009  0.00  0.00    +0.350 C 
BRANCH  16  17
ATOM     17  C   LIG    1        0.002  -0.004   0.002  0.00  0.00    -0.260 A 
ATOM     18  C   LIG    1        1.295  -0.403  -0.013  0.00  0.00    +0.260 A 
ATOM     19  N   LIG    1        2.067   0.704  -0.014  0.00  0.00    -0.360 N 
ATOM     20  N   LIG    1        1.220   1.820   0.000  0.00  0.00    -0.280 NA
ATOM     21  C   LIG    1       -0.017   1.395   0.010  0.00  0.00    +0.240 A 
BRANCH  19  22
ATOM     22  C   LIG    1        3.532   0.734  -0.028  0.00  0.00    +0.380 C 
BRANCH  22  23
ATOM     23  C   LIG    1        4.006   1.565  -1.192  0.00  0.00    -0.110 A 
ATOM     24  C   LIG    1        4.243   0.968  -2.416  0.00  0.00    +0.020 A 
ATOM     25  C   LIG    1        4.673   1.731  -3.485  0.00  0.00    +0.000 A 
ATOM     26  C   LIG    1        4.878   3.089  -3.327  0.00  0.00    +0.010 A 
ATOM     27  C   LIG    1        4.647   3.685  -2.101  0.00  0.00    +0.010 A 
ATOM     28  C   LIG    1        4.211   2.922  -1.034  0.00  0.00    +0.040 A 
ENDBRANCH  22  23
ENDBRANCH  19  22
ENDBRANCH  16  17
ENDBRANCH   2  16
TORSDOF 9
