REMARK  Name = ZINCkj00000vcNoi.1
REMARK                            x       y       z     vdW  Elec       q    Type
REMARK                         _______ _______ _______ _____ _____    ______ ____
ROOT
ATOM      1  C   LIG    1        2.480   1.281  -0.154  0.00  0.00    +0.510 C 
ATOM      2  N   LIG    1        1.341   2.001  -0.156  0.00  0.00    -0.580 N 
ATOM      3  C   LIG    1        1.385   3.470  -0.149  0.00  0.00    +0.270 C 
ATOM      4  C   LIG    1        0.534   3.983   1.017  0.00  0.00    +0.020 C 
ATOM      5  C   LIG    1       -0.875   3.396   0.912  0.00  0.00    +0.020 C 
ATOM      6  C   LIG    1       -0.803   1.870   1.001  0.00  0.00    +0.040 C 
ATOM      7  C   LIG    1        0.033   1.333  -0.165  0.00  0.00    +0.220 C 
ATOM      8  O   LIG    1        2.434   0.073  -0.261  0.00  0.00    -0.530 OA
ENDROOT
BRANCH   1  14
ATOM      9  C   LIG    1        5.797   1.249  -1.168  0.00  0.00    +0.330 C 
ATOM     10  N   LIG    1        4.900   0.981  -0.036  0.00  0.00    -0.380 N 
ATOM     11  C   LIG    1        5.653   1.086   1.232  0.00  0.00    +0.270 C 
ATOM     12  C   LIG    1        4.651   1.708   2.236  0.00  0.00    +0.080 C 
ATOM     13  C   LIG    1        3.883   2.715   1.333  0.00  0.00    +0.100 C 
ATOM     14  C   LIG    1        3.811   1.975  -0.020  0.00  0.00    +0.170 C 
ATOM     15  H   LIG    1        4.511   0.053  -0.122  0.00  0.00    +0.430 HD
ENDBRANCH   1  14
BRANCH   7  16
ATOM     16  C   LIG    1        0.227  -0.176  -0.005  0.00  0.00    +0.350 C 
BRANCH  16  17
ATOM     17  N   LIG    1       -1.081  -0.838   0.006  0.00  0.00    -0.380 N 
ATOM     18  C   LIG    1       -1.484  -1.814  -0.834  0.00  0.00    +0.230 A 
ATOM     19  C   LIG    1       -2.749  -2.154  -0.493  0.00  0.00    -0.120 A 
ATOM     20  C   LIG    1       -3.131  -1.358   0.591  0.00  0.00    +0.240 A 
ATOM     21  N   LIG    1       -2.130  -0.573   0.895  0.00  0.00    -0.300 NA
ENDBRANCH  16  17
ENDBRANCH   7  16
TORSDOF 3
