REMARK  Name = ZINCkj00000vcNoi.0
REMARK                            x       y       z     vdW  Elec       q    Type
REMARK                         _______ _______ _______ _____ _____    ______ ____
ROOT
ATOM      1  C   LIG    1       -0.035   3.408   1.869  0.00  0.00    +0.500 C 
ATOM      2  N   LIG    1       -0.256   2.535   0.866  0.00  0.00    -0.580 N 
ATOM      3  C   LIG    1        0.370   1.206   0.880  0.00  0.00    +0.260 C 
ATOM      4  C   LIG    1        1.121   1.001  -0.440  0.00  0.00    +0.020 C 
ATOM      5  C   LIG    1        0.161   1.232  -1.609  0.00  0.00    +0.030 C 
ATOM      6  C   LIG    1       -0.359   2.671  -1.568  0.00  0.00    +0.030 C 
ATOM      7  C   LIG    1       -1.126   2.895  -0.261  0.00  0.00    +0.230 C 
ATOM      8  O   LIG    1       -0.651   4.452   1.912  0.00  0.00    -0.510 OA
ENDROOT
BRANCH   1  14
ATOM      9  C   LIG    1       -1.111   3.336   4.104  0.00  0.00    +0.320 C 
ATOM     10  N   LIG    1        0.325   3.068   4.259  0.00  0.00    -0.380 N 
ATOM     11  C   LIG    1        0.938   4.116   5.103  0.00  0.00    +0.270 C 
ATOM     12  C   LIG    1        2.346   4.338   4.497  0.00  0.00    +0.080 C 
ATOM     13  C   LIG    1        2.062   4.185   2.980  0.00  0.00    +0.110 C 
ATOM     14  C   LIG    1        0.978   3.087   2.938  0.00  0.00    +0.150 C 
ATOM     15  H   LIG    1        0.456   2.166   4.690  0.00  0.00    +0.430 HD
ENDBRANCH   1  14
BRANCH   7  16
ATOM     16  C   LIG    1       -1.529   4.367  -0.149  0.00  0.00    +0.340 C 
BRANCH  16  17
ATOM     17  N   LIG    1       -2.651   4.496   0.784  0.00  0.00    -0.360 N 
ATOM     18  C   LIG    1       -2.708   5.326   1.847  0.00  0.00    +0.270 A 
ATOM     19  C   LIG    1       -3.908   5.146   2.447  0.00  0.00    -0.160 A 
ATOM     20  C   LIG    1       -4.604   4.166   1.732  0.00  0.00    +0.230 A 
ATOM     21  N   LIG    1       -3.851   3.776   0.735  0.00  0.00    -0.310 NA
ENDBRANCH  16  17
ENDBRANCH   7  16
TORSDOF 3
