REMARK  Name = ZINCpk00000KfL8h.0
REMARK                            x       y       z     vdW  Elec       q    Type
REMARK                         _______ _______ _______ _____ _____    ______ ____
ROOT
ATOM      1  C   LIG    1       -5.366   0.098   4.975  0.00  0.00    +0.160 C 
ATOM      2  C   LIG    1       -4.212   1.022   4.576  0.00  0.00    +0.170 C 
ATOM      3  N   LIG    1       -3.528   0.464   3.401  0.00  0.00    -0.510 NA
ATOM      4  C   LIG    1       -3.018  -0.885   3.688  0.00  0.00    +0.160 C 
ATOM      5  C   LIG    1       -4.184  -1.790   4.095  0.00  0.00    +0.230 C 
ATOM      6  O   LIG    1       -4.856  -1.215   5.219  0.00  0.00    -0.380 OA
ENDROOT
BRANCH   3   7
ATOM      7  C   LIG    1       -2.447   1.351   2.951  0.00  0.00    +0.130 C 
ATOM      8  C   LIG    1       -1.705   0.698   1.783  0.00  0.00    +0.060 C 
BRANCH   7   9
ATOM      9  C   LIG    1       -3.030   2.666   2.503  0.00  0.00    +0.520 C 
ATOM     10  N   LIG    1       -2.288   3.789   2.570  0.00  0.00    -0.730 N 
ATOM     11  H   LIG    1       -1.379   3.751   2.906  0.00  0.00    +0.400 HD
ATOM     12  O   LIG    1       -4.166   2.714   2.083  0.00  0.00    -0.510 OA
BRANCH  10  13
ATOM     13  C   LIG    1       -2.855   5.068   2.135  0.00  0.00    +0.240 C 
ATOM     14  C   LIG    1       -3.643   5.695   3.287  0.00  0.00    +0.000 C 
ATOM     15  C   LIG    1       -4.235   7.031   2.833  0.00  0.00    +0.020 C 
ATOM     16  C   LIG    1       -3.105   7.974   2.415  0.00  0.00    +0.010 C 
ATOM     17  C   LIG    1       -2.317   7.347   1.263  0.00  0.00    +0.020 C 
ATOM     18  C   LIG    1       -1.725   6.011   1.718  0.00  0.00    +0.010 C 
ENDBRANCH  10  13
ENDBRANCH   7   9
ENDBRANCH   3   7
BRANCH   1  19
ATOM     19  C   LIG    1       -6.033   0.632   6.244  0.00  0.00    +0.350 C 
BRANCH  19  23
ATOM     20  C   LIG    1      -10.739  -1.096   6.422  0.00  0.00    +0.190 C 
ATOM     21  C   LIG    1       -9.256  -0.923   6.627  0.00  0.00    +0.220 A 
ATOM     22  N   LIG    1       -8.525   0.035   6.120  0.00  0.00    -0.320 NA
ATOM     23  N   LIG    1       -7.209  -0.183   6.558  0.00  0.00    -0.380 N 
ATOM     24  C   LIG    1       -7.244  -1.286   7.327  0.00  0.00    +0.300 A 
ATOM     25  C   LIG    1       -6.067  -1.912   8.028  0.00  0.00    +0.190 C 
ATOM     26  N   LIG    1       -8.478  -1.719   7.359  0.00  0.00    -0.550 NA
ENDBRANCH  19  23
ENDBRANCH   1  19
TORSDOF 5
