REMARK  Name = ZINCvU00000007Wm.0
REMARK                            x       y       z     vdW  Elec       q    Type
REMARK                         _______ _______ _______ _____ _____    ______ ____
ROOT
ATOM      1  N   LIG    1        0.693   7.468  -0.397  0.00  0.00    -0.470 N 
ATOM      2  C   LIG    1       -0.134   7.561   0.812  0.00  0.00    +0.200 C 
ATOM      3  C   LIG    1       -0.512   9.023   1.064  0.00  0.00    +0.050 C 
ATOM      4  C   LIG    1       -1.284   9.558  -0.147  0.00  0.00    +0.000 C 
ATOM      5  C   LIG    1       -2.575   8.753  -0.314  0.00  0.00    +0.010 C 
ATOM      6  C   LIG    1       -3.333   9.249  -1.547  0.00  0.00    +0.240 C 
ATOM      7  C   LIG    1       -2.459   9.090  -2.793  0.00  0.00    +0.000 C 
ATOM      8  C   LIG    1       -1.177   9.908  -2.622  0.00  0.00    +0.030 C 
ATOM      9  C   LIG    1       -0.412   9.411  -1.396  0.00  0.00    +0.010 C 
ATOM     10  C   LIG    1       -0.038   7.939  -1.581  0.00  0.00    +0.200 C 
ENDROOT
BRANCH   1  16
ATOM     11  C   LIG    1       -0.301   2.809  -0.913  0.00  0.00    +0.140 C 
ATOM     12  C   LIG    1        0.696   3.936  -0.832  0.00  0.00    +0.190 A 
ATOM     13  C   LIG    1        2.054   3.680  -0.940  0.00  0.00    -0.090 A 
ATOM     14  C   LIG    1        2.937   4.746  -0.865  0.00  0.00    +0.330 A 
ATOM     15  N   LIG    1        2.461   5.967  -0.688  0.00  0.00    -0.500 NA
ATOM     16  C   LIG    1        1.157   6.177  -0.582  0.00  0.00    +0.490 A 
ATOM     17  N   LIG    1        0.286   5.181  -0.650  0.00  0.00    -0.540 NA
ENDBRANCH   1  16
BRANCH   6  18
ATOM     18  N   LIG    1       -4.563   8.472  -1.710  0.00  0.00    -0.730 N 
ATOM     19  H   LIG    1       -4.620   7.572  -1.351  0.00  0.00    +0.400 HD
ATOM     20  C   LIG    1       -5.617   9.006  -2.358  0.00  0.00    +0.520 C 
ATOM     21  O   LIG    1       -5.580  10.160  -2.729  0.00  0.00    -0.540 OA
BRANCH  20  22
ATOM     22  C   LIG    1       -6.842   8.169  -2.623  0.00  0.00    -0.010 C 
BRANCH  22  23
ATOM     23  C   LIG    1       -7.744   8.180  -1.387  0.00  0.00    -0.010 C 
ATOM     24  C   LIG    1       -8.077   9.626  -1.012  0.00  0.00    +0.030 C 
ATOM     25  C   LIG    1       -7.021   7.504  -0.221  0.00  0.00    +0.020 C 
ENDBRANCH  22  23
BRANCH  22  26
ATOM     26  C   LIG    1       -7.605   8.745  -3.817  0.00  0.00    +0.040 C 
BRANCH  26  27
ATOM     27  C   LIG    1       -8.753   7.805  -4.191  0.00  0.00    -0.020 C 
ATOM     28  C   LIG    1       -8.183   6.480  -4.699  0.00  0.00    +0.000 C 
ATOM     29  C   LIG    1       -9.331   5.540  -5.072  0.00  0.00    +0.000 C 
ATOM     30  C   LIG    1      -10.181   6.183  -6.170  0.00  0.00    +0.000 C 
ATOM     31  C   LIG    1      -10.751   7.509  -5.661  0.00  0.00    +0.000 C 
ATOM     32  C   LIG    1       -9.603   8.449  -5.288  0.00  0.00    +0.010 C 
ENDBRANCH  26  27
ENDBRANCH  22  26
ENDBRANCH  20  22
ENDBRANCH   6  18
TORSDOF 6
