REMARK  Name = ZINCvU0000000Btb.0
REMARK                            x       y       z     vdW  Elec       q    Type
REMARK                         _______ _______ _______ _____ _____    ______ ____
ROOT
ATOM      1  C   LIG    1       -0.428  -1.432  -5.053  0.00  0.00    -0.140 A 
ATOM      2  C   LIG    1        0.393  -2.249  -4.262  0.00  0.00    +0.120 A 
ATOM      3  C   LIG    1        0.684  -1.899  -2.977  0.00  0.00    +0.020 A 
ATOM      4  C   LIG    1        0.171  -0.720  -2.440  0.00  0.00    +0.100 A 
ATOM      5  C   LIG    1       -0.659   0.109  -3.217  0.00  0.00    -0.020 A 
ATOM      6  N   LIG    1       -1.014   1.167  -2.450  0.00  0.00    -0.210 NA
ATOM      7  N   LIG    1       -0.486   1.063  -1.281  0.00  0.00    +0.000 NA
ATOM      8  N   LIG    1        0.273  -0.114  -1.213  0.00  0.00    -0.390 N 
ATOM      9  C   LIG    1       -0.954  -0.256  -4.534  0.00  0.00    +0.150 A 
ENDROOT
BRANCH   1  15
ATOM     10  C   LIG    1       -3.397  -3.434  -8.113  0.00  0.00    -0.020 C 
ATOM     11  C   LIG    1       -4.598  -2.915  -7.319  0.00  0.00    +0.020 C 
ATOM     12  C   LIG    1       -4.152  -2.536  -5.905  0.00  0.00    +0.010 C 
ATOM     13  C   LIG    1       -3.107  -1.424  -5.985  0.00  0.00    +0.250 C 
ATOM     14  N   LIG    1       -2.015  -1.855  -6.867  0.00  0.00    -0.600 N 
ATOM     15  C   LIG    1       -0.736  -1.825  -6.443  0.00  0.00    +0.570 C 
ATOM     16  O   LIG    1        0.165  -2.120  -7.205  0.00  0.00    -0.530 OA
ATOM     17  C   LIG    1       -2.344  -2.327  -8.220  0.00  0.00    +0.290 C 
BRANCH  10  18
ATOM     18  C   LIG    1       -3.851  -3.844  -9.516  0.00  0.00    +0.030 C 
BRANCH  18  19
ATOM     19  C   LIG    1       -2.677  -4.473 -10.268  0.00  0.00    +0.000 C 
BRANCH  19  20
ATOM     20  C   LIG    1       -3.131  -4.883 -11.671  0.00  0.00    +0.000 C 
BRANCH  20  21
ATOM     21  C   LIG    1       -1.956  -5.513 -12.423  0.00  0.00    +0.000 C 
BRANCH  21  23
ATOM     22  C   LIG    1       -1.236  -6.553 -14.577  0.00  0.00    +0.000 C 
ATOM     23  C   LIG    1       -2.410  -5.923 -13.825  0.00  0.00    -0.010 C 
ENDBRANCH  21  23
ENDBRANCH  20  21
ENDBRANCH  19  20
ENDBRANCH  18  19
ENDBRANCH  10  18
ENDBRANCH   1  15
BRANCH   8  24
ATOM     24  C   LIG    1        1.032  -0.599  -0.058  0.00  0.00    +0.350 C 
BRANCH  24  25
ATOM     25  C   LIG    1        0.136  -1.491   0.804  0.00  0.00    +0.070 C 
BRANCH  25  26
ATOM     26  C   LIG    1        0.917  -1.990   1.992  0.00  0.00    -0.090 A 
ATOM     27  C   LIG    1        1.617  -3.179   1.909  0.00  0.00    +0.010 A 
ATOM     28  C   LIG    1        2.337  -3.635   2.997  0.00  0.00    +0.000 A 
ATOM     29  C   LIG    1        2.349  -2.906   4.172  0.00  0.00    +0.000 A 
ATOM     30  C   LIG    1        1.645  -1.720   4.257  0.00  0.00    +0.000 A 
ATOM     31  C   LIG    1        0.929  -1.262   3.167  0.00  0.00    +0.010 A 
ENDBRANCH  25  26
ENDBRANCH  24  25
ENDBRANCH   8  24
TORSDOF 9
