REMARK  Name = ZINCtV00000L6jEr.0
REMARK                            x       y       z     vdW  Elec       q    Type
REMARK                         _______ _______ _______ _____ _____    ______ ____
ROOT
ATOM      1  C   LIG    1        0.006  -0.018   0.005  0.00  0.00    +0.070 C 
ENDROOT
BRANCH   1   2
ATOM      2  C   LIG    1       -0.005   1.489   0.023  0.00  0.00    -0.090 A 
ATOM      3  C   LIG    1       -1.208   2.170   0.036  0.00  0.00    +0.040 A 
ATOM      4  C   LIG    1       -1.219   3.552   0.056  0.00  0.00    +0.000 A 
ATOM      5  C   LIG    1       -0.027   4.253   0.053  0.00  0.00    +0.010 A 
ATOM      6  C   LIG    1        1.175   3.571   0.034  0.00  0.00    +0.000 A 
ATOM      7  C   LIG    1        1.186   2.189   0.019  0.00  0.00    +0.070 A 
ENDBRANCH   1   2
BRANCH   1   8
ATOM      8  C   LIG    1       -0.712  -0.512  -1.224  0.00  0.00    +0.550 C 
ATOM      9  N   LIG    1       -0.050  -0.623  -2.392  0.00  0.00    -0.660 N 
ATOM     10  H   LIG    1        0.865  -0.309  -2.463  0.00  0.00    +0.420 HD
ATOM     11  O   LIG    1       -1.886  -0.811  -1.161  0.00  0.00    -0.490 OA
BRANCH   9  12
ATOM     12  C   LIG    1       -0.684  -1.190  -3.505  0.00  0.00    +0.210 A 
ATOM     13  C   LIG    1       -1.735  -2.079  -3.328  0.00  0.00    +0.050 A 
ATOM     14  C   LIG    1       -2.358  -2.637  -4.427  0.00  0.00    +0.100 A 
ATOM     15  C   LIG    1       -1.937  -2.309  -5.703  0.00  0.00    -0.060 A 
ATOM     16  C   LIG    1       -0.889  -1.423  -5.882  0.00  0.00    +0.120 A 
ATOM     17 CL   LIG    1       -2.722  -3.012  -7.082  0.00  0.00    -0.050 Cl
ATOM     18  C   LIG    1       -0.266  -0.859  -4.787  0.00  0.00    -0.210 A 
BRANCH  18  19
ATOM     19  C   LIG    1        0.871   0.111  -4.983  0.00  0.00    +0.510 C 
ATOM     20  F   LIG    1        2.025  -0.393  -4.371  0.00  0.00    -0.180 F 
ATOM     21  F   LIG    1        0.538   1.342  -4.408  0.00  0.00    -0.170 F 
ATOM     22  F   LIG    1        1.107   0.284  -6.351  0.00  0.00    -0.170 F 
ENDBRANCH  18  19
ENDBRANCH   9  12
ENDBRANCH   1   8
BRANCH   1  23
ATOM     23  S   LIG    1       -0.827  -0.645   1.485  0.00  0.00    +0.060 S 
BRANCH  23  28
ATOM     24  N   LIG    1        0.133  -0.245   4.069  0.00  0.00    -0.440 N 
ATOM     25  C   LIG    1        1.208   0.365   4.676  0.00  0.00    +0.140 A 
ATOM     26  C   LIG    1        1.958   0.902   3.698  0.00  0.00    +0.150 A 
ATOM     27  N   LIG    1        1.372   0.631   2.519  0.00  0.00    -0.480 NA
ATOM     28  C   LIG    1        0.276  -0.061   2.728  0.00  0.00    +0.180 A 
BRANCH  24  30
ATOM     29  C   LIG    1       -0.639  -2.456   4.774  0.00  0.00    +0.040 C 
ATOM     30  C   LIG    1       -0.956  -0.959   4.740  0.00  0.00    +0.290 C 
ENDBRANCH  24  30
ENDBRANCH  23  28
ENDBRANCH   1  23
TORSDOF 7
