REMARK  Name = ZINCrD00000fI6BB.0
REMARK                            x       y       z     vdW  Elec       q    Type
REMARK                         _______ _______ _______ _____ _____    ______ ____
ROOT
ATOM      1  O   LIG    1       -1.204   2.837   0.023  0.00  0.00    -0.530 OA
ATOM      2  C   LIG    1       -1.187   1.624   0.017  0.00  0.00    +0.520 C 
ATOM      3  N   LIG    1       -0.011   0.966   0.007  0.00  0.00    -0.730 N 
ATOM      4  H   LIG    1        0.002  -0.004   0.002  0.00  0.00    +0.400 HD
ENDROOT
BRANCH   2   5
ATOM      5  C   LIG    1       -2.482   0.853   0.018  0.00  0.00    +0.000 C 
ATOM      6  C   LIG    1       -2.549  -0.014  -1.231  0.00  0.00    +0.000 C 
ATOM      7  C   LIG    1       -3.683  -1.011  -1.218  0.00  0.00    +0.280 C 
ATOM      8  N   LIG    1       -4.979  -0.312  -1.211  0.00  0.00    -0.790 N 
ATOM      9  H   LIG    1       -5.469  -0.160  -2.034  0.00  0.00    +0.400 HD
ATOM     10  C   LIG    1       -5.480   0.125   0.017  0.00  0.00    +0.170 A 
ATOM     11  C   LIG    1       -6.613  -0.470   0.560  0.00  0.00    -0.020 A 
ATOM     12  C   LIG    1       -7.083  -0.051   1.790  0.00  0.00    +0.010 A 
ATOM     13  C   LIG    1       -6.431   0.954   2.480  0.00  0.00    -0.010 A 
ATOM     14  C   LIG    1       -5.309   1.556   1.935  0.00  0.00    +0.020 A 
ATOM     15  C   LIG    1       -4.848   1.148   0.702  0.00  0.00    -0.110 A 
ATOM     16  C   LIG    1       -3.648   1.834   0.072  0.00  0.00    +0.100 C 
ENDBRANCH   2   5
BRANCH   3  17
ATOM     17  C   LIG    1        1.248   1.716  -0.001  0.00  0.00    +0.330 C 
BRANCH  17  18
ATOM     18  C   LIG    1        2.406   0.752  -0.017  0.00  0.00    -0.200 A 
ATOM     19  C   LIG    1        2.934   0.310  -1.222  0.00  0.00    +0.130 A 
ATOM     20  C   LIG    1        3.998  -0.575  -1.192  0.00  0.00    -0.030 A 
ATOM     21  C   LIG    1        4.499  -0.987   0.036  0.00  0.00    +0.330 A 
ATOM     22  N   LIG    1        3.969  -0.544   1.164  0.00  0.00    -0.540 NA
ATOM     23  C   LIG    1        2.958   0.304   1.167  0.00  0.00    +0.330 A 
BRANCH  21  24
ATOM     24  O   LIG    1        5.542  -1.854   0.079  0.00  0.00    -0.290 OA
BRANCH  24  25
ATOM     25  C   LIG    1        6.012  -2.240   1.373  0.00  0.00    +0.270 C 
BRANCH  25  26
ATOM     26  C   LIG    1        7.183  -3.213   1.220  0.00  0.00    +0.460 C 
ATOM     27  F   LIG    1        6.758  -4.347   0.520  0.00  0.00    -0.170 F 
ATOM     28  F   LIG    1        7.642  -3.591   2.487  0.00  0.00    -0.170 F 
ATOM     29  F   LIG    1        8.218  -2.590   0.516  0.00  0.00    -0.170 F 
ENDBRANCH  25  26
ENDBRANCH  24  25
ENDBRANCH  21  24
ENDBRANCH  17  18
ENDBRANCH   3  17
TORSDOF 6
