REMARK  Name = ZINCqH0000003Iu0.0
REMARK                            x       y       z     vdW  Elec       q    Type
REMARK                         _______ _______ _______ _____ _____    ______ ____
ROOT
ATOM      1  C   LIG    1        4.794   3.833   0.775  0.00  0.00    +0.570 C 
ATOM      2  N   LIG    1        5.782   3.301   0.027  0.00  0.00    -0.600 N 
ATOM      3  O   LIG    1        4.523   5.013   0.673  0.00  0.00    -0.520 OA
ENDROOT
BRANCH   1   7
ATOM      4  C   LIG    1        2.633   1.383   3.489  0.00  0.00    +0.160 A 
ATOM      5  C   LIG    1        2.860   0.945   2.189  0.00  0.00    -0.070 A 
ATOM      6  C   LIG    1        3.556   1.739   1.305  0.00  0.00    +0.080 A 
ATOM      7  C   LIG    1        4.043   2.981   1.718  0.00  0.00    -0.170 A 
ATOM      8  C   LIG    1        3.816   3.416   3.027  0.00  0.00    +0.120 A 
ATOM      9  C   LIG    1        3.115   2.619   3.904  0.00  0.00    -0.010 A 
BRANCH   4  10
ATOM     10  O   LIG    1        1.942   0.600   4.356  0.00  0.00    -0.310 OA
BRANCH  10  12
ATOM     11  C   LIG    1        0.725  -1.393   4.976  0.00  0.00    +0.070 C 
ATOM     12  C   LIG    1        1.475  -0.657   3.864  0.00  0.00    +0.190 C 
ENDBRANCH  10  12
ENDBRANCH   4  10
ENDBRANCH   1   7
BRANCH   2  13
ATOM     13  C   LIG    1        6.609   4.167  -0.817  0.00  0.00    +0.350 C 
BRANCH  13  14
ATOM     14  C   LIG    1        7.803   4.642  -0.030  0.00  0.00    -0.160 A 
ATOM     15  C   LIG    1        7.740   5.819   0.700  0.00  0.00    +0.090 A 
ATOM     16  C   LIG    1        8.861   6.215   1.413  0.00  0.00    -0.030 A 
ATOM     17  C   LIG    1       10.001   5.434   1.363  0.00  0.00    +0.260 A 
ATOM     18  N   LIG    1       10.027   4.323   0.653  0.00  0.00    -0.480 NA
ATOM     19  C   LIG    1        8.977   3.913  -0.032  0.00  0.00    +0.260 A 
ENDBRANCH  13  14
ENDBRANCH   2  13
BRANCH   2  20
ATOM     20  C   LIG    1        6.027   1.857   0.058  0.00  0.00    +0.320 C 
BRANCH  20  21
ATOM     21  C   LIG    1        6.244   1.354  -1.346  0.00  0.00    -0.060 A 
ATOM     22  C   LIG    1        5.167   1.057  -2.167  0.00  0.00    -0.030 A 
ATOM     23  C   LIG    1        5.404   0.602  -3.450  0.00  0.00    +0.260 A 
ATOM     24  N   LIG    1        6.635   0.441  -3.892  0.00  0.00    -0.480 NA
ATOM     25  C   LIG    1        7.683   0.709  -3.138  0.00  0.00    +0.260 A 
ATOM     26  C   LIG    1        7.524   1.173  -1.845  0.00  0.00    -0.020 A 
ENDBRANCH  20  21
ENDBRANCH   2  20
TORSDOF 7
