REMARK  Name = ZINCE70000000vik.0
REMARK                            x       y       z     vdW  Elec       q    Type
REMARK                         _______ _______ _______ _____ _____    ______ ____
ROOT
ATOM      1  C   LIG    1       -0.803   8.215   2.051  0.00  0.00    +0.140 C 
ATOM      2  C   LIG    1       -1.281   6.878   2.675  0.00  0.00    +0.040 C 
ATOM      3  C   LIG    1       -1.321   5.947   1.444  0.00  0.00    -0.090 C 
ATOM      4  C   LIG    1       -1.398   6.898   0.240  0.00  0.00    +0.200 C 
ATOM      5  C   LIG    1       -2.558   5.058   1.501  0.00  0.00    +0.050 C 
ATOM      6  C   LIG    1       -2.608   4.174   0.250  0.00  0.00    +0.280 C 
ATOM      7  N   LIG    1       -1.333   3.455   0.129  0.00  0.00    -0.600 N 
ATOM      8  C   LIG    1       -0.082   4.226   0.135  0.00  0.00    +0.270 C 
ATOM      9  C   LIG    1       -1.310   2.112   0.020  0.00  0.00    +0.560 C 
ATOM     10  O   LIG    1       -2.352   1.490  -0.048  0.00  0.00    -0.520 OA
ATOM     11  C   LIG    1       -0.049   5.110   1.381  0.00  0.00    +0.040 C 
ATOM     12  O   LIG    1       -1.451   8.238   0.761  0.00  0.00    -0.370 OA
ENDROOT
BRANCH   9  13
ATOM     13  C   LIG    1       -0.016   1.394  -0.017  0.00  0.00    -0.100 A 
ATOM     14  C   LIG    1        0.976   1.796  -0.912  0.00  0.00    +0.080 A 
ATOM     15  C   LIG    1        2.187   1.129  -0.959  0.00  0.00    +0.100 A 
ATOM     16  C   LIG    1        2.416   0.054  -0.112  0.00  0.00    -0.090 A 
ATOM     17  C   LIG    1        3.699  -0.686  -0.132  0.00  0.00    +0.560 A 
ATOM     18  N   LIG    1        3.880  -1.723   0.708  0.00  0.00    -0.500 N 
ATOM     19  H   LIG    1        4.722  -2.203   0.689  0.00  0.00    +0.430 HD
ATOM     20  N   LIG    1        2.890  -2.129   1.605  0.00  0.00    -0.510 N 
ATOM     21  H   LIG    1        3.066  -2.882   2.191  0.00  0.00    +0.430 HD
ATOM     22  C   LIG    1        1.698  -1.506   1.682  0.00  0.00    +0.570 A 
ATOM     23  O   LIG    1        0.859  -1.886   2.475  0.00  0.00    -0.500 OA
ATOM     24  O   LIG    1        4.582  -0.360  -0.901  0.00  0.00    -0.510 OA
ATOM     25  C   LIG    1        1.417  -0.357   0.794  0.00  0.00    -0.110 A 
ATOM     26  C   LIG    1        0.205   0.314   0.839  0.00  0.00    +0.140 A 
ENDBRANCH   9  13
BRANCH   1  27
ATOM     27  C   LIG    1       -1.259   9.401   2.904  0.00  0.00    +0.300 C 
BRANCH  27  29
ATOM     28  C   LIG    1       -1.189  11.835   2.811  0.00  0.00    +0.560 C 
ATOM     29  N   LIG    1       -0.886  10.652   2.240  0.00  0.00    -0.720 N 
ATOM     30  H   LIG    1       -0.421  10.630   1.389  0.00  0.00    +0.400 HD
ATOM     31  O   LIG    1       -1.772  11.863   3.878  0.00  0.00    -0.530 OA
BRANCH  28  39
ATOM     32  O   LIG    1        0.264  18.851   0.249  0.00  0.00    -0.540 OA
ATOM     33  C   LIG    1       -0.055  17.826   0.820  0.00  0.00    +0.710 A 
ATOM     34  N   LIG    1       -0.696  17.921   1.996  0.00  0.00    -0.660 N 
ATOM     35  H   LIG    1       -0.890  18.797   2.363  0.00  0.00    +0.440 HD
ATOM     36  C   LIG    1       -1.077  16.818   2.676  0.00  0.00    +0.570 A 
ATOM     37  C   LIG    1       -0.768  15.498   2.095  0.00  0.00    -0.210 A 
ATOM     38  C   LIG    1       -1.132  14.319   2.731  0.00  0.00    +0.210 A 
ATOM     39  C   LIG    1       -0.814  13.096   2.142  0.00  0.00    -0.170 A 
ATOM     40  C   LIG    1       -0.142  13.062   0.913  0.00  0.00    +0.130 A 
ATOM     41  C   LIG    1        0.213  14.232   0.280  0.00  0.00    -0.020 A 
ATOM     42  C   LIG    1       -0.094  15.456   0.859  0.00  0.00    +0.230 A 
ATOM     43  O   LIG    1       -1.657  16.910   3.740  0.00  0.00    -0.480 OA
ATOM     44  N   LIG    1        0.249  16.649   0.248  0.00  0.00    -0.640 N 
ATOM     45  H   LIG    1        0.715  16.636  -0.603  0.00  0.00    +0.440 HD
ENDBRANCH  28  39
ENDBRANCH  27  29
ENDBRANCH   1  27
TORSDOF 4
