REMARK  Name = ZINCpk00000xIpC2.0
REMARK                            x       y       z     vdW  Elec       q    Type
REMARK                         _______ _______ _______ _____ _____    ______ ____
ROOT
ATOM      1  C   LIG    1       -0.443   3.943  -1.873  0.00  0.00    +0.520 C 
ATOM      2  N   LIG    1        0.590   3.368  -1.226  0.00  0.00    -0.600 N 
ATOM      3  C   LIG    1        0.904   1.940  -1.402  0.00  0.00    +0.300 C 
ATOM      4  C   LIG    1        2.279   1.840  -2.060  0.00  0.00    +0.080 C 
ATOM      5  C   LIG    1        3.271   2.738  -1.368  0.00  0.00    -0.040 A 
ATOM      6  C   LIG    1        4.622   2.469  -1.552  0.00  0.00    -0.090 A 
ATOM      7  C   LIG    1        5.583   3.258  -0.953  0.00  0.00    +0.060 A 
ATOM      8  C   LIG    1        5.201   4.326  -0.164  0.00  0.00    +0.030 A 
ATOM      9  C   LIG    1        3.861   4.593   0.022  0.00  0.00    +0.040 A 
ATOM     10 BR   LIG    1        5.148   1.010  -2.634  0.00  0.00    -0.040 Br
ATOM     11  C   LIG    1        2.893   3.798  -0.575  0.00  0.00    -0.090 A 
ATOM     12  C   LIG    1        1.447   4.139  -0.319  0.00  0.00    +0.340 C 
ATOM     13  O   LIG    1       -1.080   3.307  -2.688  0.00  0.00    -0.500 OA
ENDROOT
BRANCH   1  16
ATOM     14  C   LIG    1        0.453   6.026  -3.566  0.00  0.00    +0.290 C 
ATOM     15  N   LIG    1       -0.329   6.352  -2.371  0.00  0.00    -0.600 N 
ATOM     16  C   LIG    1       -0.805   5.365  -1.587  0.00  0.00    +0.510 C 
ATOM     17  O   LIG    1       -1.528   5.630  -0.650  0.00  0.00    -0.490 OA
BRANCH  15  18
ATOM     18  C   LIG    1       -0.593   7.752  -2.028  0.00  0.00    +0.280 C 
BRANCH  18  19
ATOM     19  C   LIG    1        0.526   8.276  -1.126  0.00  0.00    +0.280 C 
BRANCH  19  20
ATOM     20  N   LIG    1        0.262   9.675  -0.783  0.00  0.00    -0.620 N 
ATOM     21  C   LIG    1        0.739  10.823  -1.564  0.00  0.00    +0.250 C 
ATOM     22  C   LIG    1       -0.123  12.021  -1.100  0.00  0.00    +0.040 C 
ATOM     23  C   LIG    1       -0.525  11.583   0.328  0.00  0.00    +0.050 C 
ATOM     24  C   LIG    1       -0.443  10.073   0.290  0.00  0.00    +0.510 C 
ATOM     25  O   LIG    1       -0.940   9.330   1.109  0.00  0.00    -0.520 OA
ENDBRANCH  19  20
ENDBRANCH  18  19
ENDBRANCH  15  18
ENDBRANCH   1  16
TORSDOF 4
