REMARK  Name = ZINCvU0000000Fvj.0
REMARK                            x       y       z     vdW  Elec       q    Type
REMARK                         _______ _______ _______ _____ _____    ______ ____
ROOT
ATOM      1  C   LIG    1        2.674   5.905   0.624  0.00  0.00    -0.140 A 
ATOM      2  C   LIG    1        1.403   6.472   0.510  0.00  0.00    +0.200 A 
ATOM      3  C   LIG    1        1.257   7.843   0.530  0.00  0.00    -0.690 A 
ATOM      4  C   LIG    1        2.370   8.659   0.653  0.00  0.00    +0.090 A 
ATOM      5  C   LIG    1        3.634   8.105   0.762  0.00  0.00    +0.050 A 
ATOM      6 CL   LIG    1        2.177  10.384   0.671  0.00  0.00    -0.010 Cl
ATOM      7  C   LIG    1        3.793   6.734   0.748  0.00  0.00    +0.080 A 
ATOM      8 CL   LIG    1        5.379   6.041   0.883  0.00  0.00    +0.010 Cl
ENDROOT
BRANCH   1  10
ATOM      9  O   LIG    1        3.945   3.948   0.702  0.00  0.00    -0.480 OA
ATOM     10  C   LIG    1        2.837   4.438   0.608  0.00  0.00    +0.560 C 
ATOM     11  N   LIG    1        1.756   3.642   0.488  0.00  0.00    -0.670 N 
ATOM     12  H   LIG    1        0.879   4.032   0.344  0.00  0.00    +0.410 HD
BRANCH  11  13
ATOM     13  C   LIG    1        1.898   2.253   0.572  0.00  0.00    +0.200 A 
ATOM     14  C   LIG    1        0.918   1.520   1.173  0.00  0.00    -0.010 A 
ATOM     15  C   LIG    1        1.053   0.119   1.261  0.00  0.00    +0.120 A 
ATOM     16  N   LIG    1        0.314  -0.854   1.763  0.00  0.00    -0.310 NA
ATOM     17  N   LIG    1        0.968  -2.074   1.557  0.00  0.00    -0.430 N 
ATOM     18  H   LIG    1        0.631  -2.941   1.834  0.00  0.00    +0.450 HD
ATOM     19  C   LIG    1        2.129  -1.869   0.920  0.00  0.00    +0.280 A 
ATOM     20  C   LIG    1        2.257  -0.511   0.697  0.00  0.00    -0.220 A 
ATOM     21  C   LIG    1        3.233   0.308   0.088  0.00  0.00    +0.110 A 
ATOM     22  C   LIG    1        3.044   1.649   0.035  0.00  0.00    -0.010 A 
ENDBRANCH  11  13
ENDBRANCH   1  10
BRANCH   3  23
ATOM     23  S   LIG    1       -0.347   8.558   0.392  0.00  0.00    +2.690 S 
ATOM     24  O   LIG    1       -1.267   7.476   0.353  0.00  0.00    -0.930 OA
ATOM     25  O   LIG    1       -0.261   9.542  -0.630  0.00  0.00    -0.920 OA
BRANCH  23  26
ATOM     26  N   LIG    1       -0.643   9.373   1.803  0.00  0.00    -1.050 N 
ATOM     27  H   LIG    1       -0.705  10.341   1.800  0.00  0.00    +0.430 HD
BRANCH  26  28
ATOM     28  C   LIG    1       -0.804   8.666   2.998  0.00  0.00    +0.140 A 
ATOM     29  C   LIG    1       -0.117   7.477   3.201  0.00  0.00    -0.020 A 
ATOM     30  C   LIG    1       -0.278   6.781   4.384  0.00  0.00    +0.050 A 
ATOM     31  C   LIG    1       -1.121   7.267   5.366  0.00  0.00    +0.030 A 
ATOM     32  C   LIG    1       -1.807   8.451   5.169  0.00  0.00    +0.030 A 
ATOM     33  C   LIG    1       -1.648   9.156   3.990  0.00  0.00    +0.080 A 
ATOM     34  F   LIG    1       -2.314  10.316   3.800  0.00  0.00    -0.130 F 
ENDBRANCH  26  28
ENDBRANCH  23  26
ENDBRANCH   3  23
TORSDOF 5
