REMARK  Name = ZINCpk00000y6v1Y.0
REMARK                            x       y       z     vdW  Elec       q    Type
REMARK                         _______ _______ _______ _____ _____    ______ ____
ROOT
ATOM      1  C   LIG    1       -1.124   2.240   0.020  0.00  0.00    +0.540 C 
ATOM      2  N   LIG    1       -0.018   1.470   0.010  0.00  0.00    -0.600 N 
ATOM      3  C   LIG    1        0.002  -0.004   0.002  0.00  0.00    +0.250 C 
ATOM      4  C   LIG    1        1.380  -0.385   0.599  0.00  0.00    +0.170 C 
ATOM      5  C   LIG    1        2.292   0.724   0.011  0.00  0.00    +0.080 C 
ATOM      6  C   LIG    1        1.368   1.960  -0.001  0.00  0.00    +0.220 C 
ATOM      7  O   LIG    1       -1.021   3.449   0.025  0.00  0.00    -0.510 OA
ENDROOT
BRANCH   6   8
ATOM      8  C   LIG    1        1.615   2.773  -1.246  0.00  0.00    +0.510 C 
ATOM      9  O   LIG    1        0.871   2.664  -2.198  0.00  0.00    -0.520 OA
ATOM     10  N   LIG    1        2.662   3.620  -1.301  0.00  0.00    -0.850 N 
ATOM     11  H   LIG    1        2.821   4.142  -2.103  0.00  0.00    +0.400 HD
ATOM     12  H   LIG    1        3.256   3.706  -0.540  0.00  0.00    +0.400 HD
ENDBRANCH   6   8
BRANCH   4  13
ATOM     13  O   LIG    1        1.792  -1.678   0.152  0.00  0.00    -0.370 OA
ATOM     14  C   LIG    1        1.392  -2.746   1.013  0.00  0.00    +0.220 C 
ENDBRANCH   4  13
BRANCH   1  15
ATOM     15  C   LIG    1       -2.488   1.601   0.024  0.00  0.00    +0.110 C 
BRANCH  15  19
ATOM     16  C   LIG    1       -3.870   3.449  -3.555  0.00  0.00    +0.130 A 
ATOM     17  C   LIG    1       -3.431   2.860  -2.404  0.00  0.00    -0.020 A 
ATOM     18  C   LIG    1       -3.973   3.257  -1.171  0.00  0.00    +0.010 A 
ATOM     19  C   LIG    1       -3.546   2.674   0.034  0.00  0.00    -0.070 A 
ATOM     20  C   LIG    1       -4.098   3.079   1.211  0.00  0.00    +0.030 A 
ATOM     21  C   LIG    1       -5.074   4.073   1.241  0.00  0.00    -0.010 A 
ATOM     22  C   LIG    1       -5.511   4.660   0.094  0.00  0.00    +0.040 A 
ATOM     23  C   LIG    1       -4.970   4.265  -1.140  0.00  0.00    -0.080 A 
ATOM     24  C   LIG    1       -5.399   4.849  -2.345  0.00  0.00    +0.060 A 
ATOM     25  C   LIG    1       -4.854   4.443  -3.523  0.00  0.00    -0.060 A 
BRANCH  16  27
ATOM     26  C   LIG    1       -3.845   3.716  -5.918  0.00  0.00    +0.250 C 
ATOM     27  O   LIG    1       -3.345   3.064  -4.748  0.00  0.00    -0.320 OA
ENDBRANCH  16  27
ENDBRANCH  15  19
ENDBRANCH   1  15
TORSDOF 5
