REMARK  Name = ZINCqH00000059pz.2
REMARK                            x       y       z     vdW  Elec       q    Type
REMARK                         _______ _______ _______ _____ _____    ______ ____
ROOT
ATOM      1  C   LIG    1       -0.308  -3.438  -3.043  0.00  0.00    +0.520 C 
ATOM      2  N   LIG    1       -1.531  -3.513  -3.604  0.00  0.00    -0.670 N 
ATOM      3  H   LIG    1       -2.296  -3.124  -3.151  0.00  0.00    +0.410 HD
ATOM      4  O   LIG    1        0.634  -3.994  -3.568  0.00  0.00    -0.490 OA
ENDROOT
BRANCH   2   5
ATOM      5  C   LIG    1       -1.698  -4.151  -4.840  0.00  0.00    +0.180 A 
ATOM      6  C   LIG    1       -0.925  -5.258  -5.159  0.00  0.00    +0.050 A 
ATOM      7  C   LIG    1       -1.091  -5.891  -6.382  0.00  0.00    +0.090 A 
ATOM      8  C   LIG    1       -2.033  -5.415  -7.286  0.00  0.00    +0.040 A 
ATOM      9  O   LIG    1       -2.213  -6.026  -8.490  0.00  0.00    -0.300 OA
ATOM     10  C   LIG    1       -1.168  -6.899  -8.931  0.00  0.00    +0.230 C 
ATOM     11  C   LIG    1       -0.771  -7.805  -7.757  0.00  0.00    +0.230 C 
ATOM     12  C   LIG    1       -2.804  -4.308  -6.964  0.00  0.00    +0.080 A 
ATOM     13  O   LIG    1       -0.321  -6.973  -6.682  0.00  0.00    -0.300 OA
ATOM     14  C   LIG    1       -2.642  -3.680  -5.744  0.00  0.00    -0.120 A 
ATOM     15 BR   LIG    1       -3.701  -2.176  -5.307  0.00  0.00    -0.030 Br
ENDBRANCH   2   5
BRANCH   1  16
ATOM     16  C   LIG    1       -0.110  -2.664  -1.765  0.00  0.00    +0.210 C 
BRANCH  16  18
ATOM     17  C   LIG    1        2.159  -2.038  -2.330  0.00  0.00    +0.200 C 
ATOM     18  N   LIG    1        1.301  -2.735  -1.363  0.00  0.00    -0.500 NA
BRANCH  18  19
ATOM     19  C   LIG    1        1.490  -2.199  -0.009  0.00  0.00    +0.210 C 
ATOM     20  C   LIG    1        2.968  -2.331   0.418  0.00  0.00    +0.060 C 
ATOM     21  C   LIG    1        3.559  -0.971  -0.010  0.00  0.00    +0.080 C 
ATOM     22  C   LIG    1        2.393  -0.007   0.012  0.00  0.00    -0.080 A 
ATOM     23  C   LIG    1        2.373   1.377   0.030  0.00  0.00    +0.010 A 
ATOM     24  C   LIG    1        1.169   2.055   0.048  0.00  0.00    +0.010 A 
ATOM     25  C   LIG    1       -0.020   1.350   0.048  0.00  0.00    +0.000 A 
ATOM     26  C   LIG    1       -0.002  -0.032   0.030  0.00  0.00    +0.020 A 
ATOM     27  C   LIG    1        1.204  -0.713   0.012  0.00  0.00    -0.140 A 
ENDBRANCH  18  19
ENDBRANCH  16  18
ENDBRANCH   1  16
TORSDOF 4
