REMARK  Name = ZINC590000002vR9.0
REMARK                            x       y       z     vdW  Elec       q    Type
REMARK                         _______ _______ _______ _____ _____    ______ ____
ROOT
ATOM      1  C   LIG    1       -0.013   1.086   0.008  0.00  0.00    +0.330 C 
ATOM      2  N   LIG    1       -0.700   1.560   1.217  0.00  0.00    -0.480 N 
ATOM      3  H   LIG    1       -1.647   1.210   1.224  0.00  0.00    +0.430 HD
ATOM      4  H   LIG    1       -0.714   2.568   1.222  0.00  0.00    +0.430 HD
ENDROOT
BRANCH   2   5
ATOM      5  C   LIG    1        0.010   1.073   2.407  0.00  0.00    +0.090 C 
ATOM      6  C   LIG    1       -0.738   0.111   3.332  0.00  0.00    +0.090 C 
ATOM      7  C   LIG    1       -0.485   1.556   3.772  0.00  0.00    +0.090 C 
ENDBRANCH   2   5
TORSDOF 1
