REMARK  Name = ZINCqH0000037iMG.0
REMARK                            x       y       z     vdW  Elec       q    Type
REMARK                         _______ _______ _______ _____ _____    ______ ____
ROOT
ATOM      1  C   LIG    1       -1.827  -0.729   3.077  0.00  0.00    +0.490 C 
ATOM      2  N   LIG    1       -1.181  -0.043   2.114  0.00  0.00    -0.660 N 
ATOM      3  H   LIG    1       -1.138   0.925   2.153  0.00  0.00    +0.420 HD
ATOM      4  O   LIG    1       -1.813  -1.942   3.072  0.00  0.00    -0.510 OA
ENDROOT
BRANCH   2   5
ATOM      5  C   LIG    1       -0.570  -0.730   1.055  0.00  0.00    +0.170 A 
ATOM      6  C   LIG    1        0.012  -1.968   1.274  0.00  0.00    +0.020 A 
ATOM      7  C   LIG    1        0.619  -2.641   0.230  0.00  0.00    +0.030 A 
ATOM      8  C   LIG    1        0.643  -2.085  -1.036  0.00  0.00    +0.000 A 
ATOM      9  C   LIG    1        0.060  -0.852  -1.264  0.00  0.00    -0.010 A 
ATOM     10  C   LIG    1       -0.551  -0.170  -0.223  0.00  0.00    +0.060 A 
BRANCH  10  11
ATOM     11  N   LIG    1       -1.141   1.077  -0.451  0.00  0.00    -0.500 N 
ATOM     12  C   LIG    1       -2.275   0.961  -1.376  0.00  0.00    +0.190 C 
ATOM     13  C   LIG    1       -2.984   2.313  -1.489  0.00  0.00    +0.000 C 
ATOM     14  C   LIG    1       -1.991   3.363  -1.998  0.00  0.00    +0.150 C 
ATOM     15  C   LIG    1       -0.796   3.429  -1.043  0.00  0.00    +0.050 C 
ATOM     16  C   LIG    1       -0.152   2.045  -0.943  0.00  0.00    +0.180 C 
BRANCH  14  17
ATOM     17  O   LIG    1       -2.632   4.639  -2.052  0.00  0.00    -0.570 OA
ATOM     18  H   LIG    1       -3.399   4.670  -2.639  0.00  0.00    +0.380 HD
ENDBRANCH  14  17
ENDBRANCH  10  11
ENDBRANCH   2   5
BRANCH   1  20
ATOM     19  C   LIG    1       -1.572   0.803   5.010  0.00  0.00    +0.080 C 
ATOM     20  C   LIG    1       -2.568   0.012   4.161  0.00  0.00    +0.170 C 
BRANCH  20  21
ATOM     21  O   LIG    1       -3.262  -0.924   4.988  0.00  0.00    -0.350 OA
BRANCH  21  22
ATOM     22  C   LIG    1       -4.625  -1.132   4.613  0.00  0.00    +0.150 C 
ATOM     23  C   LIG    1       -5.487  -0.001   5.211  0.00  0.00    +0.010 C 
ATOM     24  C   LIG    1       -6.771   0.085   4.433  0.00  0.00    +0.000 C 
ATOM     25  C   LIG    1       -7.907  -0.732   5.077  0.00  0.00    +0.000 C 
ATOM     26  C   LIG    1       -7.436  -2.103   5.598  0.00  0.00    +0.000 C 
ATOM     27  C   LIG    1       -6.489  -2.785   4.649  0.00  0.00    +0.030 C 
ATOM     28  C   LIG    1       -5.044  -2.449   5.070  0.00  0.00    +0.020 C 
ENDBRANCH  21  22
ENDBRANCH  20  21
ENDBRANCH   1  20
TORSDOF 6
