REMARK  Name = ZINCpk00000M6REB.1
REMARK                            x       y       z     vdW  Elec       q    Type
REMARK                         _______ _______ _______ _____ _____    ______ ____
ROOT
ATOM      1  C   LIG    1       -0.003   0.001  -0.005  0.00  0.00    +0.180 C 
ATOM      2  C   LIG    1        1.238  -0.558   0.727  0.00  0.00    +0.030 C 
ATOM      3  C   LIG    1        2.208   0.632   0.842  0.00  0.00    +0.220 C 
ATOM      4  N   LIG    1        1.559   1.786   0.182  0.00  0.00    -0.450 N 
ATOM      5  C   LIG    1        0.098   1.525   0.256  0.00  0.00    +0.260 C 
ENDROOT
BRANCH   4   6
ATOM      6  C   LIG    1        1.882   2.964   0.817  0.00  0.00    +0.460 A 
ATOM      7  N   LIG    1        0.951   3.712   1.397  0.00  0.00    -0.590 NA
ATOM      8  C   LIG    1        1.244   4.847   2.012  0.00  0.00    +0.570 A 
ATOM      9  N   LIG    1        2.448   5.345   2.116  0.00  0.00    -0.520 NA
ATOM     10  C   LIG    1        3.509   4.709   1.582  0.00  0.00    +0.300 A 
ATOM     11  N   LIG    1        4.803   4.932   1.512  0.00  0.00    -0.280 NA
ATOM     12  N   LIG    1        5.412   3.877   0.822  0.00  0.00    -0.420 N 
ATOM     13  H   LIG    1        6.362   3.806   0.639  0.00  0.00    +0.450 HD
ATOM     14  C   LIG    1        4.487   2.985   0.442  0.00  0.00    +0.350 A 
ATOM     15  C   LIG    1        3.264   3.434   0.885  0.00  0.00    -0.320 A 
ENDBRANCH   4   6
BRANCH   1  16
ATOM     16  O   LIG    1       -1.204  -0.529   0.559  0.00  0.00    -0.290 OA
BRANCH  16  19
ATOM     17  C   LIG    1       -3.360  -3.374  -0.146  0.00  0.00    +0.170 A 
ATOM     18  C   LIG    1       -2.904  -2.207   0.432  0.00  0.00    -0.040 A 
ATOM     19  C   LIG    1       -1.685  -1.678   0.018  0.00  0.00    +0.170 A 
ATOM     20  C   LIG    1       -0.968  -2.359  -0.962  0.00  0.00    -0.120 A 
ATOM     21  C   LIG    1       -1.490  -3.524  -1.488  0.00  0.00    +0.300 A 
ATOM     22  N   LIG    1       -2.651  -3.991  -1.073  0.00  0.00    -0.500 NA
BRANCH  17  23
ATOM     23  C   LIG    1       -4.681  -3.954   0.290  0.00  0.00    +0.250 C 
BRANCH  23  25
ATOM     24  C   LIG    1       -5.542  -4.058  -1.971  0.00  0.00    +0.180 C 
ATOM     25  N   LIG    1       -5.739  -3.504  -0.624  0.00  0.00    -0.540 NA
ATOM     26  C   LIG    1       -7.068  -3.850  -0.102  0.00  0.00    +0.190 C 
ENDBRANCH  23  25
ENDBRANCH  17  23
ENDBRANCH  16  19
ENDBRANCH   1  16
TORSDOF 5
