REMARK  Name = ZINCpe00000MJLGu.0
REMARK                            x       y       z     vdW  Elec       q    Type
REMARK                         _______ _______ _______ _____ _____    ______ ____
ROOT
ATOM      1  N   LIG    1        0.023  -2.747   0.221  0.00  0.00    -1.000 NA
ATOM      2  C   LIG    1       -1.156  -2.170  -0.448  0.00  0.00    +0.320 C 
ATOM      3  C   LIG    1       -1.314  -0.731   0.043  0.00  0.00    +0.110 C 
ATOM      4  C   LIG    1        0.002  -0.004   0.002  0.00  0.00    -0.230 A 
ATOM      5  C   LIG    1        1.201  -0.634  -0.028  0.00  0.00    +0.160 A 
ATOM      6  N   LIG    1        2.330   0.091  -0.026  0.00  0.00    -0.540 NA
ATOM      7  C   LIG    1        2.314   1.395  -0.011  0.00  0.00    +0.590 A 
ATOM      8  N   LIG    1        1.153   2.080   0.002  0.00  0.00    -0.520 N 
ATOM      9  C   LIG    1       -0.017   1.411   0.010  0.00  0.00    +0.520 A 
ATOM     10  O   LIG    1       -1.076   2.017   0.018  0.00  0.00    -0.530 OA
ATOM     11  C   LIG    1        1.325  -2.136  -0.065  0.00  0.00    +0.400 C 
ENDROOT
BRANCH   1  12
ATOM     12  S   LIG    1       -0.117  -4.034   1.253  0.00  0.00    +2.710 S 
ATOM     13  O   LIG    1        1.153  -4.671   1.275  0.00  0.00    -0.950 OA
ATOM     14  O   LIG    1       -1.317  -4.706   0.896  0.00  0.00    -0.940 OA
BRANCH  12  18
ATOM     15  C   LIG    1       -0.854  -2.373   5.352  0.00  0.00    +0.370 A 
ATOM     16  C   LIG    1        0.460  -2.592   4.956  0.00  0.00    -0.060 A 
ATOM     17  C   LIG    1        0.706  -3.109   3.696  0.00  0.00    +0.220 A 
ATOM     18  C   LIG    1       -0.375  -3.381   2.869  0.00  0.00    -0.780 A 
ATOM     19  C   LIG    1       -1.654  -3.139   3.329  0.00  0.00    +0.430 A 
ATOM     20  N   LIG    1       -1.858  -2.650   4.537  0.00  0.00    -0.550 NA
BRANCH  15  21
ATOM     21  O   LIG    1       -1.109  -1.871   6.587  0.00  0.00    -0.300 OA
BRANCH  21  23
ATOM     22  C   LIG    1       -2.569  -1.103   8.352  0.00  0.00    +0.060 C 
ATOM     23  C   LIG    1       -2.480  -1.670   6.934  0.00  0.00    +0.200 C 
ENDBRANCH  21  23
ENDBRANCH  15  21
ENDBRANCH  12  18
ENDBRANCH   1  12
BRANCH   8  24
ATOM     24  C   LIG    1        1.164   3.545   0.009  0.00  0.00    +0.280 C 
ATOM     25  C   LIG    1        1.181   4.048   1.454  0.00  0.00    +0.030 C 
ENDBRANCH   8  24
TORSDOF 5
