REMARK  Name = ZINCrD00000hQ78E.0
REMARK                            x       y       z     vdW  Elec       q    Type
REMARK                         _______ _______ _______ _____ _____    ______ ____
ROOT
ATOM      1  N   LIG    1       -2.874  -2.613   0.092  0.00  0.00    -0.980 NA
ENDROOT
BRANCH   1   2
ATOM      2  C   LIG    1       -3.764  -2.863  -1.046  0.00  0.00    +0.310 C 
ATOM      3  C   LIG    1       -3.145  -3.918  -1.987  0.00  0.00    +0.030 C 
ATOM      4  C   LIG    1       -2.382  -3.042  -3.007  0.00  0.00    +0.070 C 
ATOM      5  C   LIG    1       -3.111  -1.715  -3.014  0.00  0.00    -0.080 A 
ATOM      6  C   LIG    1       -3.081  -0.680  -3.933  0.00  0.00    +0.010 A 
ATOM      7  C   LIG    1       -3.843   0.454  -3.727  0.00  0.00    +0.010 A 
ATOM      8  C   LIG    1       -4.637   0.557  -2.601  0.00  0.00    +0.010 A 
ATOM      9  C   LIG    1       -4.667  -0.475  -1.682  0.00  0.00    +0.030 A 
ATOM     10  C   LIG    1       -3.905  -1.612  -1.887  0.00  0.00    -0.110 A 
ENDBRANCH   1   2
BRANCH   1  12
ATOM     11  O   LIG    1       -2.694  -1.963   2.466  0.00  0.00    -0.950 OA
ATOM     12  S   LIG    1       -3.415  -2.864   1.637  0.00  0.00    +2.690 S 
ATOM     13  O   LIG    1       -4.834  -2.889   1.566  0.00  0.00    -0.940 OA
BRANCH  12  14
ATOM     14  C   LIG    1       -2.912  -4.485   2.108  0.00  0.00    -0.700 A 
ATOM     15  C   LIG    1       -1.989  -4.655   3.122  0.00  0.00    +0.160 A 
ATOM     16  C   LIG    1       -1.593  -5.927   3.493  0.00  0.00    -0.020 A 
ATOM     17  C   LIG    1       -2.120  -7.032   2.850  0.00  0.00    +0.110 A 
ATOM     18  C   LIG    1       -3.043  -6.868   1.835  0.00  0.00    -0.070 A 
ATOM     19  C   LIG    1       -3.446  -5.593   1.466  0.00  0.00    +0.210 A 
BRANCH  19  20
ATOM     20  O   LIG    1       -4.359  -5.429   0.472  0.00  0.00    -0.320 OA
BRANCH  20  21
ATOM     21  C   LIG    1       -4.866  -6.614  -0.145  0.00  0.00    +0.600 C 
ATOM     22  F   LIG    1       -5.498  -7.407   0.819  0.00  0.00    -0.190 F 
ATOM     23  F   LIG    1       -3.810  -7.330  -0.719  0.00  0.00    -0.190 F 
ENDBRANCH  20  21
ENDBRANCH  19  20
ENDBRANCH  12  14
ENDBRANCH   1  12
BRANCH   1  24
ATOM     24  C   LIG    1       -1.506  -2.141  -0.138  0.00  0.00    +0.290 C 
BRANCH  24  25
ATOM     25  C   LIG    1       -1.507  -0.616  -0.260  0.00  0.00    +0.020 C 
BRANCH  25  26
ATOM     26  C   LIG    1       -0.066  -0.113  -0.367  0.00  0.00    +0.170 C 
BRANCH  26  27
ATOM     27  O   LIG    1       -0.067   1.312  -0.482  0.00  0.00    -0.570 OA
ATOM     28  H   LIG    1        0.816   1.701  -0.554  0.00  0.00    +0.380 HD
ENDBRANCH  26  27
ENDBRANCH  25  26
ENDBRANCH  24  25
ENDBRANCH   1  24
TORSDOF 9
