REMARK  Name = ZINCpk00000KfLxE.0
REMARK                            x       y       z     vdW  Elec       q    Type
REMARK                         _______ _______ _______ _____ _____    ______ ____
ROOT
ATOM      1  C   LIG    1        0.941  -0.922  -1.728  0.00  0.00    +0.220 C 
ATOM      2  C   LIG    1        0.994  -2.441  -1.993  0.00  0.00    +0.040 C 
ATOM      3  C   LIG    1        0.740  -2.537  -3.521  0.00  0.00    +0.040 C 
ATOM      4  C   LIG    1       -0.269  -1.382  -3.741  0.00  0.00    +0.240 C 
ATOM      5  N   LIG    1        0.174  -0.314  -2.826  0.00  0.00    -0.620 N 
ATOM      6  C   LIG    1       -0.081   1.001  -2.973  0.00  0.00    +0.560 C 
ATOM      7  O   LIG    1        0.419   1.806  -2.211  0.00  0.00    -0.430 OA
ENDROOT
BRANCH   6   8
ATOM      8  C   LIG    1       -0.967   1.465  -4.058  0.00  0.00    -0.160 A 
ATOM      9  C   LIG    1       -2.279   0.988  -4.159  0.00  0.00    +0.120 A 
ATOM     10  C   LIG    1       -3.070   1.454  -5.195  0.00  0.00    -0.030 A 
ATOM     11  C   LIG    1       -2.547   2.369  -6.091  0.00  0.00    +0.330 A 
ATOM     12  N   LIG    1       -1.307   2.805  -5.977  0.00  0.00    -0.500 NA
ATOM     13  C   LIG    1       -0.512   2.396  -5.003  0.00  0.00    +0.400 A 
BRANCH  13  14
ATOM     14  N   LIG    1        0.789   2.889  -4.919  0.00  0.00    -0.350 N 
ATOM     15  C   LIG    1        1.551   3.341  -5.936  0.00  0.00    +0.500 A 
ATOM     16  N   LIG    1        2.704   3.714  -5.444  0.00  0.00    -0.530 NA
ATOM     17  C   LIG    1        2.717   3.518  -4.125  0.00  0.00    +0.420 A 
ATOM     18  N   LIG    1        1.567   3.020  -3.756  0.00  0.00    -0.240 NA
ENDBRANCH  13  14
ENDBRANCH   6   8
BRANCH   1  19
ATOM     19  C   LIG    1        0.242  -0.650  -0.394  0.00  0.00    +0.310 C 
BRANCH  19  23
ATOM     20  C   LIG    1       -0.923   4.076   0.801  0.00  0.00    +0.090 C 
ATOM     21  C   LIG    1       -0.144   2.833   0.457  0.00  0.00    -0.230 A 
ATOM     22  C   LIG    1       -0.667   1.612   0.194  0.00  0.00    +0.200 A 
ATOM     23  N   LIG    1        0.357   0.773  -0.064  0.00  0.00    -0.360 N 
ATOM     24  N   LIG    1        1.548   1.503   0.033  0.00  0.00    -0.270 NA
ATOM     25  C   LIG    1        1.247   2.737   0.345  0.00  0.00    +0.230 A 
ENDBRANCH  19  23
ENDBRANCH   1  19
TORSDOF 4
