REMARK  Name = ZINCtV00000tRRNX.0
REMARK                            x       y       z     vdW  Elec       q    Type
REMARK                         _______ _______ _______ _____ _____    ______ ____
ROOT
ATOM      1  C   LIG    1       -0.128   9.573   0.049  0.00  0.00    +0.100 C 
ATOM      2  N   LIG    1       -1.191  10.302   0.062  0.00  0.00    -0.220 NA
ATOM      3  N   LIG    1       -0.940  11.673   0.066  0.00  0.00    -0.460 N 
ATOM      4  C   LIG    1        0.515  11.890   0.053  0.00  0.00    +0.260 C 
ATOM      5  C   LIG    1        1.095  10.462   0.047  0.00  0.00    +0.080 C 
ENDROOT
BRANCH   1   9
ATOM      6  C   LIG    1       -0.070   5.327   0.029  0.00  0.00    -0.030 A 
ATOM      7  C   LIG    1        1.129   6.040   0.027  0.00  0.00    +0.020 A 
ATOM      8  C   LIG    1        1.112   7.416   0.028  0.00  0.00    +0.040 A 
ATOM      9  C   LIG    1       -0.108   8.100   0.042  0.00  0.00    -0.020 A 
ATOM     10  C   LIG    1       -1.309   7.383   0.051  0.00  0.00    +0.050 A 
ATOM     11  C   LIG    1       -1.288   6.007   0.044  0.00  0.00    +0.020 A 
BRANCH   6  15
ATOM     12  C   LIG    1       -0.013   1.076   0.008  0.00  0.00    +0.000 A 
ATOM     13  C   LIG    1       -1.221   1.748   0.017  0.00  0.00    +0.010 A 
ATOM     14  C   LIG    1       -1.246   3.128   0.030  0.00  0.00    +0.020 A 
ATOM     15  C   LIG    1       -0.050   3.844   0.022  0.00  0.00    -0.050 A 
ATOM     16  C   LIG    1        1.165   3.161   0.007  0.00  0.00    +0.020 A 
ATOM     17  C   LIG    1        1.177   1.781   0.000  0.00  0.00    +0.010 A 
ENDBRANCH   6  15
ENDBRANCH   1   9
BRANCH   4  18
ATOM     18  C   LIG    1        0.928  12.644  -1.185  0.00  0.00    -0.100 A 
ATOM     19  C   LIG    1        0.323  12.368  -2.396  0.00  0.00    +0.030 A 
ATOM     20  C   LIG    1        0.699  13.062  -3.531  0.00  0.00    +0.000 A 
ATOM     21  C   LIG    1        1.687  14.026  -3.456  0.00  0.00    +0.010 A 
ATOM     22  C   LIG    1        2.296  14.298  -2.246  0.00  0.00    +0.010 A 
ATOM     23  C   LIG    1        1.917  13.607  -1.110  0.00  0.00    +0.010 A 
ENDBRANCH   4  18
BRANCH   3  24
ATOM     24  C   LIG    1       -1.910  12.675   0.080  0.00  0.00    +0.230 A 
ATOM     25  C   LIG    1       -1.530  14.012   0.088  0.00  0.00    -0.050 A 
ATOM     26  C   LIG    1       -2.493  15.002   0.096  0.00  0.00    +0.040 A 
ATOM     27  C   LIG    1       -3.834  14.664   0.107  0.00  0.00    -0.040 A 
ATOM     28  C   LIG    1       -4.216  13.335   0.104  0.00  0.00    +0.040 A 
ATOM     29  C   LIG    1       -3.259  12.340   0.090  0.00  0.00    -0.030 A 
ENDBRANCH   3  24
TORSDOF 4
