REMARK  Name = ZINCpk00000y6wg7.0
REMARK                            x       y       z     vdW  Elec       q    Type
REMARK                         _______ _______ _______ _____ _____    ______ ____
ROOT
ATOM      1  C   LIG    1       -4.959   2.095   0.259  0.00  0.00    +0.160 C 
ATOM      2  C   LIG    1       -5.198   3.607   0.065  0.00  0.00    +0.080 C 
ATOM      3  C   LIG    1       -3.812   4.118  -0.409  0.00  0.00    +0.050 C 
ATOM      4  C   LIG    1       -2.852   3.219   0.410  0.00  0.00    +0.250 C 
ATOM      5  N   LIG    1       -3.515   1.903   0.455  0.00  0.00    -0.620 N 
ATOM      6  C   LIG    1       -2.898   0.719   0.640  0.00  0.00    +0.590 C 
ATOM      7  O   LIG    1       -3.552  -0.304   0.705  0.00  0.00    -0.460 OA
ENDROOT
BRANCH   6   8
ATOM      8  C   LIG    1       -1.432   0.664   0.763  0.00  0.00    -0.040 A 
ATOM      9  C   LIG    1       -0.649  -0.473   0.819  0.00  0.00    +0.040 A 
ATOM     10  C   LIG    1        0.674  -0.007   0.928  0.00  0.00    +0.070 A 
ATOM     11  N   LIG    1        0.633   1.309   0.939  0.00  0.00    -0.260 NA
ATOM     12  N   LIG    1       -0.578   1.727   0.848  0.00  0.00    -0.380 N 
ATOM     13  H   LIG    1       -0.846   2.660   0.837  0.00  0.00    +0.440 HD
BRANCH  10  14
ATOM     14  C   LIG    1        1.895  -0.847   1.015  0.00  0.00    -0.010 A 
ATOM     15  C   LIG    1        1.791  -2.236   0.998  0.00  0.00    +0.030 A 
ATOM     16  C   LIG    1        2.930  -3.011   1.074  0.00  0.00    +0.010 A 
ATOM     17  C   LIG    1        4.173  -2.412   1.179  0.00  0.00    +0.010 A 
ATOM     18  C   LIG    1        4.281  -1.034   1.201  0.00  0.00    +0.010 A 
ATOM     19  C   LIG    1        3.149  -0.248   1.120  0.00  0.00    +0.040 A 
ENDBRANCH  10  14
ENDBRANCH   6   8
BRANCH   1  23
ATOM     20  C   LIG    1       -5.152  -0.468  -2.575  0.00  0.00    +0.280 C 
ATOM     21  N   LIG    1       -4.651   0.352  -1.470  0.00  0.00    -0.710 N 
ATOM     22  H   LIG    1       -3.769   0.184  -1.102  0.00  0.00    +0.400 HD
ATOM     23  C   LIG    1       -5.415   1.341  -0.964  0.00  0.00    +0.520 C 
ATOM     24  O   LIG    1       -6.470   1.623  -1.492  0.00  0.00    -0.540 OA
ENDBRANCH   1  23
BRANCH   1  25
ATOM     25  C   LIG    1       -5.722   1.604   1.491  0.00  0.00    +0.190 C 
BRANCH  25  26
ATOM     26  O   LIG    1       -5.390   0.237   1.743  0.00  0.00    -0.350 OA
ATOM     27  C   LIG    1       -6.052  -0.322   2.879  0.00  0.00    +0.200 C 
ENDBRANCH  25  26
ENDBRANCH   1  25
TORSDOF 5
