REMARK  Name = ZINCpk00000y6wg7.1
REMARK                            x       y       z     vdW  Elec       q    Type
REMARK                         _______ _______ _______ _____ _____    ______ ____
ROOT
ATOM      1  C   LIG    1       -2.130   1.810  -0.778  0.00  0.00    +0.160 C 
ATOM      2  C   LIG    1       -2.144   1.623   0.753  0.00  0.00    +0.060 C 
ATOM      3  C   LIG    1       -0.641   1.744   1.133  0.00  0.00    +0.030 C 
ATOM      4  C   LIG    1        0.039   1.075  -0.087  0.00  0.00    +0.270 C 
ATOM      5  N   LIG    1       -0.776   1.480  -1.246  0.00  0.00    -0.610 N 
ATOM      6  C   LIG    1       -0.350   1.538  -2.524  0.00  0.00    +0.610 C 
ATOM      7  O   LIG    1       -1.129   1.828  -3.411  0.00  0.00    -0.470 OA
ENDROOT
BRANCH   6   8
ATOM      8  C   LIG    1        1.062   1.249  -2.846  0.00  0.00    -0.000 A 
ATOM      9  N   LIG    1        2.010   0.929  -1.986  0.00  0.00    -0.250 NA
ATOM     10  N   LIG    1        3.124   0.740  -2.597  0.00  0.00    -0.380 N 
ATOM     11  H   LIG    1        3.958   0.494  -2.169  0.00  0.00    +0.450 HD
ATOM     12  C   LIG    1        2.961   0.942  -3.936  0.00  0.00    +0.060 A 
ATOM     13  C   LIG    1        1.649   1.270  -4.130  0.00  0.00    +0.010 A 
BRANCH  12  14
ATOM     14  C   LIG    1        4.005   0.828  -4.979  0.00  0.00    -0.030 A 
ATOM     15  C   LIG    1        3.688   1.061  -6.317  0.00  0.00    +0.040 A 
ATOM     16  C   LIG    1        4.667   0.958  -7.283  0.00  0.00    +0.020 A 
ATOM     17  C   LIG    1        5.959   0.615  -6.929  0.00  0.00    +0.020 A 
ATOM     18  C   LIG    1        6.279   0.377  -5.604  0.00  0.00    +0.020 A 
ATOM     19  C   LIG    1        5.310   0.482  -4.628  0.00  0.00    +0.000 A 
ENDBRANCH  12  14
ENDBRANCH   6   8
BRANCH   1  23
ATOM     20  C   LIG    1       -1.827   5.584  -1.328  0.00  0.00    +0.280 C 
ATOM     21  N   LIG    1       -1.489   4.177  -1.101  0.00  0.00    -0.730 N 
ATOM     22  H   LIG    1       -0.569   3.920  -0.934  0.00  0.00    +0.400 HD
ATOM     23  C   LIG    1       -2.458   3.240  -1.123  0.00  0.00    +0.530 C 
ATOM     24  O   LIG    1       -3.592   3.547  -1.421  0.00  0.00    -0.520 OA
ENDBRANCH   1  23
BRANCH   1  25
ATOM     25  C   LIG    1       -3.148   0.871  -1.429  0.00  0.00    +0.190 C 
BRANCH  25  26
ATOM     26  O   LIG    1       -3.034   0.958  -2.851  0.00  0.00    -0.340 OA
ATOM     27  C   LIG    1       -3.946   0.116  -3.560  0.00  0.00    +0.180 C 
ENDBRANCH  25  26
ENDBRANCH   1  25
TORSDOF 5
