REMARK  Name = ZINCrg000000tdoN.0
REMARK                            x       y       z     vdW  Elec       q    Type
REMARK                         _______ _______ _______ _____ _____    ______ ____
ROOT
ATOM      1  C   LIG    1        9.520   0.007  -0.704  0.00  0.00    +0.240 C 
ATOM      2  C   LIG    1        9.070   1.366  -0.106  0.00  0.00    +0.050 C 
ATOM      3  C   LIG    1        7.533   1.233  -0.065  0.00  0.00    +0.260 C 
ATOM      4  N   LIG    1        7.218  -0.203  -0.071  0.00  0.00    -0.620 N 
ATOM      5  C   LIG    1        5.981  -0.737  -0.062  0.00  0.00    +0.530 C 
ATOM      6  O   LIG    1        5.839  -1.941  -0.068  0.00  0.00    -0.510 OA
ATOM      7  C   LIG    1        8.482  -0.964  -0.082  0.00  0.00    +0.270 C 
ENDROOT
BRANCH   1  10
ATOM      8  O   LIG    1       11.200  -1.611  -2.055  0.00  0.00    -0.530 OA
ATOM      9  C   LIG    1       11.639  -1.154  -1.021  0.00  0.00    +0.510 C 
ATOM     10  N   LIG    1       10.878  -0.334  -0.270  0.00  0.00    -0.720 N 
ATOM     11  H   LIG    1       11.229   0.032   0.557  0.00  0.00    +0.410 HD
BRANCH   9  12
ATOM     12  C   LIG    1       13.035  -1.504  -0.576  0.00  0.00    +0.300 C 
BRANCH  12  13
ATOM     13  N   LIG    1       13.650  -2.403  -1.555  0.00  0.00    -0.720 N 
ATOM     14  H   LIG    1       13.152  -2.677  -2.342  0.00  0.00    +0.410 HD
ATOM     15  C   LIG    1       14.906  -2.851  -1.364  0.00  0.00    +0.520 C 
ATOM     16  O   LIG    1       15.529  -2.509  -0.381  0.00  0.00    -0.540 OA
BRANCH  15  17
ATOM     17  C   LIG    1       15.538  -3.776  -2.372  0.00  0.00    -0.010 C 
ATOM     18  C   LIG    1       14.747  -5.099  -2.444  0.00  0.00    +0.030 C 
ATOM     19  C   LIG    1       15.835  -6.182  -2.644  0.00  0.00    +0.020 C 
ATOM     20  C   LIG    1       16.992  -5.674  -1.748  0.00  0.00    +0.010 C 
ATOM     21  C   LIG    1       16.966  -4.142  -1.929  0.00  0.00    +0.040 C 
ENDBRANCH  15  17
ENDBRANCH  12  13
ENDBRANCH   9  12
ENDBRANCH   1  10
BRANCH   5  22
ATOM     22  C   LIG    1        4.772   0.164  -0.044  0.00  0.00    +0.230 C 
BRANCH  22  23
ATOM     23  O   LIG    1        3.586  -0.632  -0.037  0.00  0.00    -0.290 OA
BRANCH  23  24
ATOM     24  C   LIG    1        2.399   0.030  -0.021  0.00  0.00    +0.130 A 
ATOM     25  C   LIG    1        1.207  -0.680  -0.014  0.00  0.00    -0.020 A 
ATOM     26  C   LIG    1        0.002  -0.004   0.002  0.00  0.00    +0.050 A 
ATOM     27  C   LIG    1       -0.017   1.378   0.010  0.00  0.00    -0.030 A 
ATOM     28  C   LIG    1        1.170   2.088   0.002  0.00  0.00    +0.050 A 
ATOM     29  C   LIG    1        2.377   1.417  -0.013  0.00  0.00    -0.080 A 
ENDBRANCH  23  24
ENDBRANCH  22  23
ENDBRANCH   5  22
TORSDOF 7
