REMARK  Name = ZINCkj000005lsRd.0
REMARK                            x       y       z     vdW  Elec       q    Type
REMARK                         _______ _______ _______ _____ _____    ______ ____
ROOT
ATOM      1  N   LIG    1        1.096   2.227   0.004  0.00  0.00    -0.720 N 
ATOM      2  H   LIG    1        1.967   1.809  -0.081  0.00  0.00    +0.400 HD
ATOM      3  C   LIG    1       -0.018   1.468   0.010  0.00  0.00    +0.580 C 
ATOM      4  O   LIG    1       -1.113   1.996   0.021  0.00  0.00    -0.510 OA
ENDROOT
BRANCH   3   5
ATOM      5  C   LIG    1        0.091  -0.000  -0.003  0.00  0.00    -0.150 A 
ATOM      6  C   LIG    1        1.328  -0.623  -0.120  0.00  0.00    +0.120 A 
ATOM      7  C   LIG    1        1.391  -2.019  -0.122  0.00  0.00    -0.040 A 
ATOM      8  C   LIG    1        0.273  -2.771  -0.024  0.00  0.00    +0.350 A 
ATOM      9  N   LIG    1       -0.963  -2.209   0.087  0.00  0.00    -0.290 N 
ATOM     10  N   LIG    1       -2.246  -2.759   0.201  0.00  0.00    -0.300 NA
ATOM     11  C   LIG    1       -3.121  -1.783   0.281  0.00  0.00    +0.290 A 
ATOM     12  C   LIG    1       -2.450  -0.569   0.223  0.00  0.00    -0.080 A 
ATOM     13  C   LIG    1       -1.101  -0.844   0.102  0.00  0.00    +0.120 A 
ENDBRANCH   3   5
BRANCH   1  16
ATOM     14  C   LIG    1        2.024   5.466  -0.395  0.00  0.00    +0.190 C 
ATOM     15  C   LIG    1        1.217   4.432  -1.201  0.00  0.00    +0.060 C 
ATOM     16  C   LIG    1        0.991   3.683   0.125  0.00  0.00    +0.300 C 
ATOM     17  C   LIG    1        2.273   4.352   0.622  0.00  0.00    -0.130 C 
ATOM     18  C   LIG    1        3.600   3.592   0.653  0.00  0.00    +0.060 C 
ATOM     19  C   LIG    1        3.986   4.488   1.844  0.00  0.00    +0.020 C 
ATOM     20  C   LIG    1        2.479   4.665   2.104  0.00  0.00    +0.070 C 
BRANCH  14  21
ATOM     21  N   LIG    1        3.240   5.927  -1.077  0.00  0.00    -0.630 N 
ATOM     22  H   LIG    1        3.689   5.145  -1.530  0.00  0.00    +0.430 HD
ATOM     23  H   LIG    1        3.872   6.332  -0.403  0.00  0.00    +0.440 HD
ATOM     24  H   LIG    1        2.996   6.621  -1.768  0.00  0.00    +0.440 HD
ENDBRANCH  14  21
ENDBRANCH   1  16
TORSDOF 3
