REMARK  Name = ZINCqH0000031yFB.0
REMARK                            x       y       z     vdW  Elec       q    Type
REMARK                         _______ _______ _______ _____ _____    ______ ____
ROOT
ATOM      1  C   LIG    1       -0.020   1.372   0.025  0.00  0.00    -0.110 A 
ATOM      2  C   LIG    1        1.156   2.075  -0.161  0.00  0.00    +0.060 A 
ATOM      3  C   LIG    1        2.365   1.407  -0.182  0.00  0.00    +0.000 A 
ATOM      4  C   LIG    1        2.399   0.029  -0.015  0.00  0.00    +0.160 A 
ATOM      5  C   LIG    1        1.215  -0.674   0.172  0.00  0.00    +0.020 A 
ATOM      6  C   LIG    1        0.010  -0.001   0.192  0.00  0.00    +0.060 A 
ENDROOT
BRANCH   4   7
ATOM      7  N   LIG    1        3.621  -0.650  -0.036  0.00  0.00    -0.670 N 
ATOM      8  H   LIG    1        4.420  -0.222   0.310  0.00  0.00    +0.410 HD
ATOM      9  C   LIG    1        3.689  -1.899  -0.537  0.00  0.00    +0.590 C 
ATOM     10  O   LIG    1        2.711  -2.400  -1.058  0.00  0.00    -0.500 OA
BRANCH   9  11
ATOM     11  C   LIG    1        4.946  -2.656  -0.455  0.00  0.00    -0.240 A 
ATOM     12  C   LIG    1        5.118  -3.898  -0.920  0.00  0.00    +0.140 A 
ATOM     13  C   LIG    1        6.400  -4.441  -0.739  0.00  0.00    -0.090 A 
ATOM     14  C   LIG    1        6.887  -5.715  -1.118  0.00  0.00    +0.070 A 
ATOM     15  C   LIG    1        8.173  -6.068  -0.857  0.00  0.00    +0.010 A 
ATOM     16  C   LIG    1        9.034  -5.187  -0.214  0.00  0.00    +0.060 A 
ATOM     17  C   LIG    1        8.591  -3.943   0.167  0.00  0.00    +0.040 A 
ATOM     18  C   LIG    1        7.272  -3.557  -0.091  0.00  0.00    -0.120 A 
ATOM     19  S   LIG    1        6.430  -2.052   0.262  0.00  0.00    +0.120 S 
ENDBRANCH   9  11
ENDBRANCH   4   7
BRANCH   1  20
ATOM     20  C   LIG    1       -1.338   2.103   0.042  0.00  0.00    -0.300 C 
BRANCH  20  21
ATOM     21  S   LIG    1       -1.731   2.604   1.740  0.00  0.00    +2.610 S 
ATOM     22  O   LIG    1       -0.830   3.609   2.185  0.00  0.00    -0.950 OA
ATOM     23  O   LIG    1       -2.014   1.466   2.543  0.00  0.00    -0.950 OA
BRANCH  21  24
ATOM     24  N   LIG    1       -3.185   3.386   1.614  0.00  0.00    -1.120 NA
ATOM     25  H   LIG    1       -3.246   4.333   1.817  0.00  0.00    +0.420 HD
BRANCH  24  26
ATOM     26  C   LIG    1       -4.380   2.649   1.196  0.00  0.00    +0.300 C 
BRANCH  26  28
ATOM     27  C   LIG    1       -6.469   3.742   0.562  0.00  0.00    +0.030 C 
ATOM     28  C   LIG    1       -5.608   3.463   1.510  0.00  0.00    -0.050 C 
ENDBRANCH  26  28
ENDBRANCH  24  26
ENDBRANCH  21  24
ENDBRANCH  20  21
ENDBRANCH   1  20
TORSDOF 7
