REMARK  Name = ZINCtj00000nxOD0.0
REMARK                            x       y       z     vdW  Elec       q    Type
REMARK                         _______ _______ _______ _____ _____    ______ ____
ROOT
ATOM      1  C   LIG    1       -0.472   3.832   0.027  0.00  0.00    -0.230 A 
ATOM      2  C   LIG    1        0.819   3.460   0.013  0.00  0.00    +0.150 A 
ATOM      3  N   LIG    1        1.032   2.145   0.004  0.00  0.00    -0.500 NA
ATOM      4  C   LIG    1       -0.017   1.381   0.010  0.00  0.00    +0.270 A 
ATOM      5  S   LIG    1       -1.468   2.378   0.021  0.00  0.00    +0.120 S 
ENDROOT
BRANCH   4   6
ATOM      6  N   LIG    1        0.002  -0.004   0.002  0.00  0.00    -0.450 N 
ATOM      7  C   LIG    1       -0.741  -0.547   1.149  0.00  0.00    +0.190 C 
ATOM      8  C   LIG    1       -0.745  -2.076   1.069  0.00  0.00    +0.240 C 
ATOM      9  O   LIG    1        0.603  -2.550   1.023  0.00  0.00    -0.380 OA
ATOM     10  C   LIG    1        1.356  -2.041  -0.082  0.00  0.00    +0.230 C 
ATOM     11  C   LIG    1        1.381  -0.512  -0.013  0.00  0.00    +0.200 C 
ENDBRANCH   4   6
BRANCH   2  12
ATOM     12  C   LIG    1        1.929   4.444   0.008  0.00  0.00    -0.020 A 
ATOM     13  C   LIG    1        1.792   5.648  -0.680  0.00  0.00    +0.010 A 
ATOM     14  C   LIG    1        2.826   6.563  -0.676  0.00  0.00    -0.010 A 
ATOM     15  C   LIG    1        4.000   6.280  -0.001  0.00  0.00    +0.020 A 
ATOM     16  C   LIG    1        4.143   5.084   0.679  0.00  0.00    +0.010 A 
ATOM     17  C   LIG    1        3.114   4.165   0.687  0.00  0.00    +0.050 A 
ENDBRANCH   2  12
BRANCH   1  18
ATOM     18  C   LIG    1       -0.982   5.251   0.040  0.00  0.00    +0.170 C 
BRANCH  18  24
ATOM     19  C   LIG    1       -1.033   8.778  -3.155  0.00  0.00    +0.160 C 
ATOM     20  C   LIG    1       -1.799   7.462  -2.988  0.00  0.00    +0.310 C 
ATOM     21  N   LIG    1       -1.615   6.979  -1.612  0.00  0.00    -0.620 N 
ATOM     22  C   LIG    1       -1.937   7.881  -0.498  0.00  0.00    +0.280 C 
ATOM     23  C   LIG    1       -1.164   9.194  -0.694  0.00  0.00    +0.070 C 
ATOM     24  C   LIG    1       -1.165   5.731  -1.377  0.00  0.00    +0.520 C 
ATOM     25  O   LIG    1       -0.908   4.994  -2.305  0.00  0.00    -0.500 OA
ATOM     26  C   LIG    1       -1.483   9.766  -2.077  0.00  0.00    +0.000 C 
BRANCH  19  27
ATOM     27  N   LIG    1       -1.310   9.341  -4.483  0.00  0.00    -0.630 N 
ATOM     28  H   LIG    1       -1.016   8.688  -5.194  0.00  0.00    +0.440 HD
ATOM     29  H   LIG    1       -0.805  10.208  -4.593  0.00  0.00    +0.440 HD
ATOM     30  H   LIG    1       -2.300   9.515  -4.575  0.00  0.00    +0.440 HD
ENDBRANCH  19  27
BRANCH  26  31
ATOM     31  C   LIG    1       -0.745  11.094  -2.262  0.00  0.00    +0.170 C 
BRANCH  31  32
ATOM     32  O   LIG    1       -1.248  12.053  -1.330  0.00  0.00    -0.560 OA
ATOM     33  H   LIG    1       -0.824  12.920  -1.391  0.00  0.00    +0.400 HD
ENDBRANCH  31  32
ENDBRANCH  26  31
ENDBRANCH  18  24
ENDBRANCH   1  18
TORSDOF 7
