REMARK  Name = ZINCtV00000L6joN.0
REMARK                            x       y       z     vdW  Elec       q    Type
REMARK                         _______ _______ _______ _____ _____    ______ ____
ROOT
ATOM      1  O   LIG    1       -2.070   1.085   1.277  0.00  0.00    -0.290 OA
ENDROOT
BRANCH   1   2
ATOM      2  C   LIG    1       -2.264  -0.161   1.784  0.00  0.00    +0.140 A 
ATOM      3  C   LIG    1       -1.201  -0.851   2.351  0.00  0.00    -0.080 A 
ATOM      4  C   LIG    1       -1.395  -2.113   2.871  0.00  0.00    +0.070 A 
ATOM      5  C   LIG    1       -2.659  -2.700   2.817  0.00  0.00    -0.100 A 
ATOM      6  C   LIG    1       -3.723  -2.006   2.242  0.00  0.00    +0.080 A 
ATOM      7  C   LIG    1       -3.523  -0.743   1.728  0.00  0.00    -0.010 A 
BRANCH   5   8
ATOM      8  C   LIG    1       -2.871  -4.059   3.370  0.00  0.00    -0.000 A 
ATOM      9  C   LIG    1       -4.138  -4.642   3.321  0.00  0.00    +0.020 A 
ATOM     10  C   LIG    1       -4.335  -5.906   3.829  0.00  0.00    +0.080 A 
ATOM     11  C   LIG    1       -3.268  -6.601   4.406  0.00  0.00    -0.030 A 
ATOM     12  C   LIG    1       -2.000  -6.013   4.460  0.00  0.00    +0.080 A 
ATOM     13  C   LIG    1       -1.805  -4.752   3.946  0.00  0.00    +0.020 A 
BRANCH  11  14
ATOM     14  C   LIG    1       -3.473  -7.913   4.941  0.00  0.00    +0.250 C 
ATOM     15  N   LIG    1       -3.635  -8.954   5.366  0.00  0.00    -0.410 NA
ENDBRANCH  11  14
ENDBRANCH   5   8
ENDBRANCH   1   2
BRANCH   1  17
ATOM     16  C   LIG    1        0.165   1.206   0.364  0.00  0.00    +0.060 C 
ATOM     17  C   LIG    1       -0.781   1.671   1.473  0.00  0.00    +0.140 C 
BRANCH  17  18
ATOM     18  C   LIG    1       -0.902   3.173   1.433  0.00  0.00    +0.400 C 
ATOM     19  O   LIG    1       -1.906   3.689   0.992  0.00  0.00    -0.420 OA
BRANCH  18  20
ATOM     20  C   LIG    1        0.200   4.013   1.929  0.00  0.00    -0.170 A 
ATOM     21  C   LIG    1        1.358   3.421   2.444  0.00  0.00    +0.060 A 
ATOM     22  C   LIG    1        2.388   4.215   2.903  0.00  0.00    +0.010 A 
ATOM     23  C   LIG    1        2.274   5.594   2.865  0.00  0.00    -0.030 A 
ATOM     24  C   LIG    1        1.129   6.187   2.361  0.00  0.00    +0.000 A 
ATOM     25  C   LIG    1        0.092   5.407   1.894  0.00  0.00    +0.090 A 
BRANCH  23  26
ATOM     26  C   LIG    1        3.401   6.454   3.374  0.00  0.00    -0.040 C 
ATOM     27  C   LIG    1        3.912   7.348   2.243  0.00  0.00    +0.040 C 
ATOM     28  C   LIG    1        4.540   5.560   3.871  0.00  0.00    +0.030 C 
ATOM     29  C   LIG    1        2.897   7.326   4.526  0.00  0.00    +0.040 C 
ENDBRANCH  23  26
ENDBRANCH  18  20
ENDBRANCH  17  18
ENDBRANCH   1  17
TORSDOF 7
