REMARK  Name = ZINCpk000000mK4v.0
REMARK                            x       y       z     vdW  Elec       q    Type
REMARK                         _______ _______ _______ _____ _____    ______ ____
ROOT
ATOM      1  C   LIG    1       -6.682   3.245  -2.297  0.00  0.00    +0.210 A 
ATOM      2  C   LIG    1       -6.160   2.851  -3.523  0.00  0.00    -0.030 A 
ATOM      3  C   LIG    1       -4.946   2.192  -3.584  0.00  0.00    +0.050 A 
ATOM      4  C   LIG    1       -4.246   1.919  -2.427  0.00  0.00    +0.010 A 
ATOM      5  C   LIG    1       -4.762   2.309  -1.190  0.00  0.00    -0.090 A 
ATOM      6  C   LIG    1       -5.988   2.970  -1.128  0.00  0.00    -0.030 A 
ENDROOT
BRANCH   5   7
ATOM      7  C   LIG    1       -4.013   2.018   0.052  0.00  0.00    +0.560 C 
ATOM      8  N   LIG    1       -3.943   2.943   1.029  0.00  0.00    -0.600 N 
ATOM      9  C   LIG    1       -3.313   2.624   2.318  0.00  0.00    +0.280 C 
ATOM     10  C   LIG    1       -2.237   3.674   2.614  0.00  0.00    +0.030 C 
ATOM     11  C   LIG    1       -2.861   5.070   2.548  0.00  0.00    +0.040 C 
ATOM     12  C   LIG    1       -3.405   5.320   1.140  0.00  0.00    +0.150 C 
ATOM     13  C   LIG    1       -4.494   4.290   0.827  0.00  0.00    +0.250 C 
ATOM     14  O   LIG    1       -3.461   0.944   0.190  0.00  0.00    -0.530 OA
BRANCH  12  15
ATOM     15  O   LIG    1       -3.960   6.635   1.070  0.00  0.00    -0.560 OA
ATOM     16  H   LIG    1       -4.325   6.863   0.204  0.00  0.00    +0.380 HD
ENDBRANCH  12  15
ENDBRANCH   5   7
BRANCH   1  17
ATOM     17  N   LIG    1       -7.908   3.911  -2.241  0.00  0.00    -0.730 N 
ATOM     18  H   LIG    1       -8.273   4.186  -1.385  0.00  0.00    +0.400 HD
BRANCH  17  22
ATOM     19  N   LIG    1       -9.129   6.468  -3.786  0.00  0.00    -0.620 N 
ATOM     20  C   LIG    1      -10.247   5.918  -3.011  0.00  0.00    +0.250 C 
ATOM     21  C   LIG    1      -10.149   4.385  -3.177  0.00  0.00    +0.060 C 
ATOM     22  C   LIG    1       -8.644   4.196  -3.476  0.00  0.00    +0.230 C 
ATOM     23  C   LIG    1       -8.209   5.522  -4.059  0.00  0.00    +0.500 C 
ATOM     24  O   LIG    1       -7.182   5.705  -4.678  0.00  0.00    -0.510 OA
BRANCH  19  25
ATOM     25  C   LIG    1       -9.026   7.866  -4.211  0.00  0.00    +0.330 C 
BRANCH  25  27
ATOM     26  C   LIG    1       -7.247   9.361  -3.462  0.00  0.00    +0.040 C 
ATOM     27  C   LIG    1       -8.310   8.662  -3.150  0.00  0.00    -0.080 C 
ENDBRANCH  25  27
ENDBRANCH  19  25
ENDBRANCH  17  22
ENDBRANCH   1  17
TORSDOF 6
