REMARK  Name = ZINCqH0000008lWr.0
REMARK                            x       y       z     vdW  Elec       q    Type
REMARK                         _______ _______ _______ _____ _____    ______ ____
ROOT
ATOM      1  C   LIG    1        1.272   1.743  -0.001  0.00  0.00    +0.110 A 
ATOM      2  N   LIG    1        2.015   0.663  -0.014  0.00  0.00    -0.280 NA
ATOM      3  N   LIG    1        1.259  -0.378  -0.012  0.00  0.00    -0.270 NA
ATOM      4  C   LIG    1        0.002  -0.004   0.002  0.00  0.00    +0.260 A 
ATOM      5  O   LIG    1       -0.016   1.347   0.009  0.00  0.00    -0.210 OA
ENDROOT
BRANCH   4   6
ATOM      6  C   LIG    1       -1.175  -0.894   0.009  0.00  0.00    -0.130 A 
ATOM      7  C   LIG    1       -2.479  -0.515   0.030  0.00  0.00    +0.310 A 
ATOM      8  N   LIG    1       -3.280  -1.620   0.026  0.00  0.00    -0.580 N 
ATOM      9  H   LIG    1       -4.250  -1.602   0.036  0.00  0.00    +0.430 HD
ATOM     10  C   LIG    1       -2.512  -2.764   0.012  0.00  0.00    +0.090 A 
ATOM     11  C   LIG    1       -2.824  -4.120   0.008  0.00  0.00    +0.000 A 
ATOM     12  C   LIG    1       -1.814  -5.058  -0.006  0.00  0.00    +0.040 A 
ATOM     13  C   LIG    1       -0.484  -4.664  -0.017  0.00  0.00    -0.010 A 
ATOM     14  C   LIG    1       -0.154  -3.327  -0.014  0.00  0.00    +0.070 A 
ATOM     15  C   LIG    1       -1.164  -2.367   0.001  0.00  0.00    -0.070 A 
ENDBRANCH   4   6
BRANCH   1  16
ATOM     16  S   LIG    1        1.852   3.407   0.002  0.00  0.00    +0.150 S 
BRANCH  16  17
ATOM     17  C   LIG    1        3.639   3.117  -0.016  0.00  0.00    +0.100 C 
BRANCH  17  20
ATOM     18  N   LIG    1        5.709   4.471  -0.029  0.00  0.00    -0.720 N 
ATOM     19  H   LIG    1        6.213   3.642  -0.038  0.00  0.00    +0.410 HD
ATOM     20  C   LIG    1        4.362   4.439  -0.017  0.00  0.00    +0.540 C 
ATOM     21  O   LIG    1        3.731   5.475  -0.006  0.00  0.00    -0.520 OA
BRANCH  18  23
ATOM     22  C   LIG    1        6.533   6.271  -1.466  0.00  0.00    +0.040 C 
ATOM     23  C   LIG    1        6.412   5.756  -0.030  0.00  0.00    +0.350 C 
BRANCH  23  24
ATOM     24  C   LIG    1        7.788   5.576   0.557  0.00  0.00    -0.030 A 
ATOM     25  C   LIG    1        8.410   6.437   1.383  0.00  0.00    -0.040 A 
ATOM     26  C   LIG    1        9.671   5.874   1.687  0.00  0.00    -0.060 A 
ATOM     27  C   LIG    1        9.748   4.707   1.022  0.00  0.00    +0.180 A 
ATOM     28  O   LIG    1        8.604   4.531   0.340  0.00  0.00    -0.170 OA
ENDBRANCH  23  24
ENDBRANCH  18  23
ENDBRANCH  17  20
ENDBRANCH  16  17
ENDBRANCH   1  16
TORSDOF 6
