REMARK  Name = ZINCpe00000yx3EX.0
REMARK                            x       y       z     vdW  Elec       q    Type
REMARK                         _______ _______ _______ _____ _____    ______ ____
ROOT
ATOM      1  N   LIG    1       -3.583  -1.238   0.130  0.00  0.00    -0.720 N 
ATOM      2  H   LIG    1       -4.420  -0.756   0.213  0.00  0.00    +0.400 HD
ATOM      3  C   LIG    1       -2.423  -0.560   0.021  0.00  0.00    +0.570 C 
ATOM      4  O   LIG    1       -1.373  -1.165  -0.083  0.00  0.00    -0.540 OA
ENDROOT
BRANCH   3   5
ATOM      5  C   LIG    1       -2.427   0.915   0.029  0.00  0.00    -0.190 A 
ATOM      6  C   LIG    1       -3.633   1.613   0.025  0.00  0.00    +0.100 A 
ATOM      7  C   LIG    1       -3.644   2.997   0.032  0.00  0.00    -0.020 A 
ATOM      8  C   LIG    1       -2.464   3.709   0.043  0.00  0.00    +0.120 A 
ATOM      9  C   LIG    1       -1.240   3.031   0.048  0.00  0.00    -0.150 A 
ATOM     10  C   LIG    1        0.028   3.763   0.060  0.00  0.00    +0.130 A 
ATOM     11  C   LIG    1        1.184   3.054   0.064  0.00  0.00    -0.050 A 
ATOM     12  C   LIG    1        1.150   1.643   0.056  0.00  0.00    +0.530 A 
ATOM     13  O   LIG    1        2.200   1.023   0.060  0.00  0.00    -0.530 OA
ATOM     14  N   LIG    1       -0.011   0.966   0.045  0.00  0.00    -0.620 N 
ATOM     15  H   LIG    1        0.002  -0.004   0.040  0.00  0.00    +0.430 HD
ATOM     16  C   LIG    1       -1.215   1.625   0.036  0.00  0.00    +0.240 A 
ENDBRANCH   3   5
BRANCH   1  17
ATOM     17  C   LIG    1       -3.578  -2.703   0.122  0.00  0.00    +0.250 C 
BRANCH  17  18
ATOM     18  C   LIG    1       -5.013  -3.218   0.258  0.00  0.00    +0.280 C 
BRANCH  18  20
ATOM     19  C   LIG    1       -5.128  -5.409  -1.017  0.00  0.00    +0.300 C 
ATOM     20  N   LIG    1       -5.008  -4.683   0.250  0.00  0.00    -0.610 N 
ATOM     21  C   LIG    1       -4.894  -5.363   1.408  0.00  0.00    +0.530 C 
ATOM     22  O   LIG    1       -4.795  -4.762   2.457  0.00  0.00    -0.530 OA
BRANCH  21  23
ATOM     23  C   LIG    1       -4.890  -6.870   1.400  0.00  0.00    -0.020 C 
ATOM     24  C   LIG    1       -3.515  -7.480   1.079  0.00  0.00    +0.020 C 
ATOM     25  C   LIG    1       -3.819  -8.533   2.158  0.00  0.00    +0.170 C 
ATOM     26  C   LIG    1       -4.752  -7.493   2.799  0.00  0.00    +0.070 C 
BRANCH  25  27
ATOM     27  O   LIG    1       -2.689  -8.865   2.968  0.00  0.00    -0.560 OA
ATOM     28  H   LIG    1       -2.098  -9.518   2.570  0.00  0.00    +0.380 HD
ENDBRANCH  25  27
ENDBRANCH  21  23
ENDBRANCH  18  20
ENDBRANCH  17  18
ENDBRANCH   1  17
TORSDOF 6
