REMARK  Name = ZINCnE000001PK1q.0
REMARK                            x       y       z     vdW  Elec       q    Type
REMARK                         _______ _______ _______ _____ _____    ______ ____
ROOT
ATOM      1  N   LIG    1       -1.170   1.971   1.335  0.00  0.00    -0.750 N 
ATOM      2  H   LIG    1       -1.860   2.592   1.053  0.00  0.00    +0.390 HD
ENDROOT
BRANCH   1   7
ATOM      3  C   LIG    1        0.264   1.571   6.818  0.00  0.00    +0.090 C 
ATOM      4  C   LIG    1       -0.119   1.679   5.365  0.00  0.00    -0.100 A 
ATOM      5  C   LIG    1        0.512   0.892   4.424  0.00  0.00    +0.010 A 
ATOM      6  C   LIG    1        0.165   0.988   3.089  0.00  0.00    -0.090 A 
ATOM      7  C   LIG    1       -0.824   1.878   2.685  0.00  0.00    +0.190 A 
ATOM      8  C   LIG    1       -1.461   2.678   3.621  0.00  0.00    -0.030 A 
ATOM      9  C   LIG    1       -1.114   2.578   4.970  0.00  0.00    -0.100 A 
BRANCH   9  10
ATOM     10  C   LIG    1       -1.792   3.421   5.973  0.00  0.00    +0.520 C 
ATOM     11  O   LIG    1       -1.408   3.417   7.134  0.00  0.00    -0.680 OA
ATOM     12  O   LIG    1       -2.737   4.123   5.644  0.00  0.00    -0.690 OA
ENDBRANCH   9  10
ENDBRANCH   1   7
BRANCH   1  13
ATOM     13  C   LIG    1       -0.492   1.131   0.345  0.00  0.00    +0.270 C 
BRANCH  13  14
ATOM     14  C   LIG    1       -1.092   1.388  -1.039  0.00  0.00    -0.060 C 
ATOM     15  C   LIG    1       -0.369   0.538  -2.108  0.00  0.00    +0.020 C 
ATOM     16  C   LIG    1        0.241   1.584  -3.068  0.00  0.00    +0.190 C 
ATOM     17  O   LIG    1        0.372   2.783  -2.273  0.00  0.00    -0.370 OA
ATOM     18  C   LIG    1       -0.832   2.846  -1.479  0.00  0.00    +0.220 C 
BRANCH  14  19
ATOM     19  C   LIG    1       -2.569   1.089  -1.037  0.00  0.00    -0.060 A 
ATOM     20  C   LIG    1       -3.482   2.114  -1.196  0.00  0.00    +0.010 A 
ATOM     21  C   LIG    1       -4.837   1.839  -1.198  0.00  0.00    +0.010 A 
ATOM     22  C   LIG    1       -5.278   0.540  -1.032  0.00  0.00    +0.000 A 
ATOM     23  C   LIG    1       -4.365  -0.485  -0.867  0.00  0.00    +0.000 A 
ATOM     24  C   LIG    1       -3.010  -0.211  -0.870  0.00  0.00    +0.010 A 
ENDBRANCH  14  19
ENDBRANCH  13  14
ENDBRANCH   1  13
TORSDOF 5
