REMARK  Name = ZINCqH00000080Id.0
REMARK                            x       y       z     vdW  Elec       q    Type
REMARK                         _______ _______ _______ _____ _____    ______ ____
ROOT
ATOM      1  C   UNK A  0       -1.185   2.341   0.020  0.00  0.00    +0.310 C 
ATOM      2  C   UNK A  0       -0.587   3.694   0.468  0.00  0.00    +0.030 C 
ATOM      3  C   UNK A  0        0.882   3.572   0.013  0.00  0.00    +0.070 C 
ATOM      4  C   UNK A  0        1.173   2.086   0.002  0.00  0.00    -0.080 A 
ATOM      5  C   UNK A  0        2.382   1.410  -0.013  0.00  0.00    +0.020 A 
ATOM      6  C   UNK A  0        2.410   0.031  -0.021  0.00  0.00    +0.030 A 
ATOM      7  C   UNK A  0        1.216  -0.686  -0.013  0.00  0.00    -0.050 A 
ATOM      8  C   UNK A  0        0.002  -0.004   0.002  0.00  0.00    +0.040 A 
ATOM      9  C   UNK A  0       -0.017   1.378   0.010  0.00  0.00    -0.120 A 
ENDROOT
BRANCH   1  13
ATOM     10  N   MET A  1       -3.578   2.929  -2.709  0.00  0.00    -0.730 N 
ATOM     11  H   MET A  1       -3.032   2.742  -3.489  0.00  0.00    +0.400 HD
ATOM     12  C   UNK A  0       -3.048   2.823  -1.474  0.00  0.00    +0.710 C 
ATOM     13  N   UNK A  0       -1.760   2.457  -1.323  0.00  0.00    -0.730 N 
ATOM     14  H   UNK A  0       -1.214   2.269  -2.102  0.00  0.00    +0.400 HD
ATOM     15  O   UNK A  0       -3.733   3.058  -0.497  0.00  0.00    -0.590 OA
BRANCH  10  16
ATOM     16  CA  MET A  1       -4.978   3.328  -2.874  0.00  0.00    +0.270 C 
BRANCH  16  17
ATOM     17  CB  MET A  1       -5.168   3.965  -4.252  0.00  0.00    +0.070 C 
BRANCH  17  18
ATOM     18  CG  MET A  1       -4.365   5.266  -4.327  0.00  0.00    +0.070 C 
BRANCH  18  20
ATOM     19  CE  MET A  1       -3.580   7.525  -5.858  0.00  0.00    +0.140 C 
ATOM     20  SD  MET A  1       -4.590   6.021  -5.961  0.00  0.00    -0.260 S 
ENDBRANCH  18  20
ENDBRANCH  17  18
ENDBRANCH  16  17
BRANCH  16  21
ATOM     21  C   MET A  1       -5.876   2.095  -2.754  0.00  0.00    +0.170 C 
BRANCH  21  22
ATOM     22  O   MET A  1       -5.607   1.202  -3.837  0.00  0.00    -0.570 OA
ATOM     23  H   MET A  1       -6.142   0.397  -3.825  0.00  0.00    +0.380 HD
ENDBRANCH  21  22
ENDBRANCH  16  21
ENDBRANCH  10  16
ENDBRANCH   1  13
BRANCH   7  24
ATOM     24  C   UNK A  0        1.237  -2.170  -0.021  0.00  0.00    -0.050 A 
ATOM     25  C   UNK A  0        0.042  -2.886  -0.007  0.00  0.00    +0.010 A 
ATOM     26  C   UNK A  0        0.068  -4.266  -0.019  0.00  0.00    +0.000 A 
ATOM     27  C   UNK A  0        1.276  -4.938  -0.035  0.00  0.00    +0.000 A 
ATOM     28  C   UNK A  0        2.466  -4.232  -0.043  0.00  0.00    +0.010 A 
ATOM     29  C   UNK A  0        2.452  -2.852  -0.037  0.00  0.00    +0.020 A 
ENDBRANCH   7  24
TORSDOF 8
