REMARK  Name = ZINCqH0000008Soa.0
REMARK                            x       y       z     vdW  Elec       q    Type
REMARK                         _______ _______ _______ _____ _____    ______ ____
ROOT
ATOM      1  C   LIG    1       -1.841   0.997   4.334  0.00  0.00    +0.090 C 
ATOM      2  C   LIG    1       -2.084   1.743   3.020  0.00  0.00    +0.120 C 
ATOM      3  N   LIG    1       -1.194   2.912   2.915  0.00  0.00    -0.720 N 
ATOM      4  H   LIG    1       -1.168   3.676   3.512  0.00  0.00    +0.440 HD
ATOM      5  C   LIG    1       -0.420   2.710   1.834  0.00  0.00    +0.700 C 
ATOM      6  N   LIG    1       -0.698   1.558   1.213  0.00  0.00    -0.570 N 
ATOM      7  O   LIG    1        0.435   3.489   1.460  0.00  0.00    -0.520 OA
ATOM      8  C   LIG    1       -1.684   0.883   1.837  0.00  0.00    +0.530 C 
ATOM      9  O   LIG    1       -2.153  -0.188   1.519  0.00  0.00    -0.450 OA
ENDROOT
BRANCH   6  10
ATOM     10  C   LIG    1       -0.013   1.086   0.008  0.00  0.00    +0.450 C 
BRANCH  10  11
ATOM     11  C   LIG    1       -0.742   1.585  -1.213  0.00  0.00    +0.050 A 
ATOM     12  N   LIG    1       -0.491   2.695  -1.797  0.00  0.00    -0.430 NA
ATOM     13  C   LIG    1       -1.223   3.015  -2.881  0.00  0.00    +0.070 A 
ATOM     14  C   LIG    1       -1.161   4.157  -3.704  0.00  0.00    +0.080 A 
ATOM     15  C   LIG    1       -2.004   4.289  -4.766  0.00  0.00    +0.030 A 
ATOM     16  C   LIG    1       -2.937   3.305  -5.058  0.00  0.00    +0.050 A 
ATOM     17  C   LIG    1       -3.020   2.178  -4.271  0.00  0.00    +0.060 A 
ATOM     18  C   LIG    1       -2.167   2.026  -3.181  0.00  0.00    -0.180 A 
ATOM     19  S   LIG    1       -2.000   0.737  -1.994  0.00  0.00    +0.130 S 
ENDBRANCH  10  11
ENDBRANCH   6  10
BRANCH   2  20
ATOM     20  C   LIG    1       -3.550   2.167   2.906  0.00  0.00    +0.060 C 
BRANCH  20  21
ATOM     21  C   LIG    1       -3.891   3.132   4.043  0.00  0.00    +0.070 C 
BRANCH  21  22
ATOM     22  C   LIG    1       -5.335   3.549   3.932  0.00  0.00    -0.090 A 
ATOM     23  C   LIG    1       -5.676   4.668   3.196  0.00  0.00    +0.000 A 
ATOM     24  C   LIG    1       -7.001   5.049   3.090  0.00  0.00    +0.000 A 
ATOM     25  C   LIG    1       -7.984   4.315   3.727  0.00  0.00    +0.000 A 
ATOM     26  C   LIG    1       -7.642   3.198   4.466  0.00  0.00    +0.000 A 
ATOM     27  C   LIG    1       -6.318   2.815   4.569  0.00  0.00    +0.000 A 
ENDBRANCH  21  22
ENDBRANCH  20  21
ENDBRANCH   2  20
TORSDOF 5
