REMARK  Name = ZINCrD00000hQ6bC.0
REMARK                            x       y       z     vdW  Elec       q    Type
REMARK                         _______ _______ _______ _____ _____    ______ ____
ROOT
ATOM      1  O   LIG    1       -4.787  -0.272   0.726  0.00  0.00    -0.580 OA
ATOM      2  C   LIG    1       -4.095   0.113   1.649  0.00  0.00    +0.710 C 
ATOM      3  N   LIG    1       -4.480  -0.116   2.921  0.00  0.00    -0.740 N 
ATOM      4  H   LIG    1       -3.929   0.191   3.657  0.00  0.00    +0.400 HD
ATOM      5  N   LIG    1       -2.944   0.768   1.401  0.00  0.00    -0.740 N 
ATOM      6  H   LIG    1       -2.393   1.075   2.138  0.00  0.00    +0.400 HD
ENDROOT
BRANCH   3   7
ATOM      7  C   LIG    1       -5.732  -0.828   3.190  0.00  0.00    +0.250 C 
ATOM      8  C   LIG    1       -6.897   0.163   3.171  0.00  0.00    +0.010 C 
ATOM      9  C   LIG    1       -8.204  -0.581   3.452  0.00  0.00    +0.020 C 
ATOM     10  C   LIG    1       -8.125  -1.248   4.827  0.00  0.00    +0.150 C 
ATOM     11  C   LIG    1       -6.959  -2.239   4.846  0.00  0.00    +0.050 C 
ATOM     12  C   LIG    1       -5.652  -1.495   4.565  0.00  0.00    +0.030 C 
BRANCH  10  13
ATOM     13  O   LIG    1       -9.345  -1.943   5.090  0.00  0.00    -0.380 OA
BRANCH  13  14
ATOM     14  C   LIG    1      -10.336  -1.150   5.748  0.00  0.00    +0.570 C 
ATOM     15  F   LIG    1      -10.653  -0.045   4.950  0.00  0.00    -0.210 F 
ATOM     16  F   LIG    1       -9.838  -0.709   6.979  0.00  0.00    -0.210 F 
ENDBRANCH  13  14
ENDBRANCH  10  13
ENDBRANCH   3   7
BRANCH   5  17
ATOM     17  C   LIG    1       -2.526   1.017   0.019  0.00  0.00    +0.350 C 
BRANCH  17  18
ATOM     18  C   LIG    1       -1.215   1.761   0.017  0.00  0.00    -0.030 A 
ATOM     19  C   LIG    1       -1.187   3.148   0.031  0.00  0.00    -0.040 A 
ATOM     20  C   LIG    1        0.031   3.799   0.022  0.00  0.00    +0.310 A 
ATOM     21  N   LIG    1        1.161   3.118   0.008  0.00  0.00    -0.530 NA
ATOM     22  C   LIG    1        1.175   1.796   0.001  0.00  0.00    +0.320 A 
ATOM     23  C   LIG    1       -0.013   1.076   0.008  0.00  0.00    -0.010 A 
BRANCH  22  24
ATOM     24  O   LIG    1        2.361   1.136  -0.015  0.00  0.00    -0.290 OA
BRANCH  24  25
ATOM     25  C   LIG    1        3.546   1.933  -0.022  0.00  0.00    +0.260 C 
BRANCH  25  26
ATOM     26  C   LIG    1        4.774   1.020  -0.039  0.00  0.00    +0.460 C 
ATOM     27  F   LIG    1        4.766   0.206   1.099  0.00  0.00    -0.170 F 
ATOM     28  F   LIG    1        5.935   1.801  -0.046  0.00  0.00    -0.170 F 
ATOM     29  F   LIG    1        4.744   0.220  -1.186  0.00  0.00    -0.170 F 
ENDBRANCH  25  26
ENDBRANCH  24  25
ENDBRANCH  22  24
ENDBRANCH  17  18
ENDBRANCH   5  17
TORSDOF 8
