REMARK  Name = ZINCc70000006aMZ.0
REMARK                            x       y       z     vdW  Elec       q    Type
REMARK                         _______ _______ _______ _____ _____    ______ ____
ROOT
ATOM      1  C   LIG    1       -1.564   4.896   2.683  0.00  0.00    +0.110 C 
ATOM      2  C   LIG    1       -2.170   5.428   4.003  0.00  0.00    +0.030 C 
ATOM      3  C   LIG    1       -3.038   6.631   3.590  0.00  0.00    +0.170 C 
ATOM      4  N   LIG    1       -2.901   6.783   2.125  0.00  0.00    -0.520 NA
ATOM      5  C   LIG    1       -4.155   7.259   1.526  0.00  0.00    +0.180 C 
ATOM      6  F   LIG    1       -0.276   5.408   2.488  0.00  0.00    -0.190 F 
ATOM      7  C   LIG    1       -2.541   5.437   1.610  0.00  0.00    +0.190 C 
ENDROOT
BRANCH   1   8
ATOM      8  C   LIG    1       -1.543   3.366   2.675  0.00  0.00    +0.280 C 
BRANCH   8  11
ATOM      9  C   LIG    1       -0.013   1.086   0.008  0.00  0.00    +0.100 C 
ATOM     10  C   LIG    1       -0.718   1.572   1.248  0.00  0.00    +0.510 C 
ATOM     11  N   LIG    1       -0.857   2.894   1.470  0.00  0.00    -0.730 N 
ATOM     12  H   LIG    1       -0.503   3.533   0.831  0.00  0.00    +0.410 HD
ATOM     13  O   LIG    1       -1.161   0.773   2.046  0.00  0.00    -0.540 OA
ENDBRANCH   8  11
ENDBRANCH   1   8
TORSDOF 2
