REMARK  Name = ZINCvU00000006zR.0
REMARK                            x       y       z     vdW  Elec       q    Type
REMARK                         _______ _______ _______ _____ _____    ______ ____
ROOT
ATOM      1  N   LIG    1       -1.505   1.617  -3.366  0.00  0.00    -0.740 N 
ATOM      2  H   LIG    1       -2.034   2.409  -3.182  0.00  0.00    +0.390 HD
ATOM      3  C   LIG    1       -0.770   1.055  -2.386  0.00  0.00    +0.720 C 
ATOM      4  N   LIG    1       -0.768   1.595  -1.151  0.00  0.00    -0.640 N 
ATOM      5  C   LIG    1       -1.519   2.789  -0.737  0.00  0.00    +0.240 C 
ATOM      6  C   LIG    1       -1.232   3.013   0.763  0.00  0.00    +0.040 C 
ATOM      7  C   LIG    1       -0.783   1.608   1.247  0.00  0.00    -0.010 C 
ATOM      8  C   LIG    1       -0.013   1.086   0.008  0.00  0.00    +0.280 C 
ATOM      9  O   LIG    1       -0.108   0.062  -2.616  0.00  0.00    -0.570 OA
ENDROOT
BRANCH   1  10
ATOM     10  C   LIG    1       -1.507   1.030  -4.708  0.00  0.00    +0.310 C 
BRANCH  10  11
ATOM     11  C   LIG    1       -1.852   2.092  -5.720  0.00  0.00    -0.090 A 
ATOM     12  C   LIG    1       -2.833   3.024  -5.438  0.00  0.00    +0.050 A 
ATOM     13  C   LIG    1       -3.147   4.000  -6.364  0.00  0.00    +0.030 A 
ATOM     14  C   LIG    1       -2.485   4.040  -7.577  0.00  0.00    +0.070 A 
ATOM     15  C   LIG    1       -1.507   3.106  -7.862  0.00  0.00    -0.180 A 
ATOM     16  C   LIG    1       -1.191   2.132  -6.934  0.00  0.00    +0.080 A 
BRANCH  15  17
ATOM     17  C   LIG    1       -0.785   3.149  -9.184  0.00  0.00    +0.510 C 
ATOM     18  F   LIG    1        0.512   2.649  -9.024  0.00  0.00    -0.180 F 
ATOM     19  F   LIG    1       -0.723   4.471  -9.638  0.00  0.00    -0.180 F 
ATOM     20  F   LIG    1       -1.475   2.367 -10.117  0.00  0.00    -0.170 F 
ENDBRANCH  15  17
ENDBRANCH  10  11
BRANCH  10  21
ATOM     21  C   LIG    1       -2.546  -0.092  -4.773  0.00  0.00    +0.010 C 
BRANCH  21  23
ATOM     22  C   LIG    1       -3.227  -2.292  -3.805  0.00  0.00    +0.000 C 
ATOM     23  C   LIG    1       -2.129  -1.227  -3.836  0.00  0.00    -0.010 C 
ATOM     24  C   LIG    1       -0.826  -1.852  -4.339  0.00  0.00    +0.020 C 
ENDBRANCH  21  23
ENDBRANCH  10  21
ENDBRANCH   1  10
BRANCH   7  25
ATOM     25  C   LIG    1        0.140   1.713   2.462  0.00  0.00    +0.090 C 
BRANCH  25  26
ATOM     26  C   LIG    1        0.580   0.333   2.880  0.00  0.00    -0.070 A 
ATOM     27  C   LIG    1       -0.163  -0.379   3.802  0.00  0.00    -0.010 A 
ATOM     28  C   LIG    1        0.235  -1.647   4.183  0.00  0.00    +0.030 A 
ATOM     29  C   LIG    1        1.383  -2.201   3.651  0.00  0.00    -0.020 A 
ATOM     30  C   LIG    1        2.134  -1.486   2.729  0.00  0.00    +0.110 A 
ATOM     31  C   LIG    1        1.729  -0.216   2.344  0.00  0.00    -0.010 A 
BRANCH  30  32
ATOM     32  O   LIG    1        3.263  -2.029   2.203  0.00  0.00    -0.500 OA
ATOM     33  H   LIG    1        4.065  -1.836   2.709  0.00  0.00    +0.390 HD
ENDBRANCH  30  32
ENDBRANCH  25  26
ENDBRANCH   7  25
TORSDOF 8
