REMARK  Name = ZINCtV00001bB38h.0
REMARK                            x       y       z     vdW  Elec       q    Type
REMARK                         _______ _______ _______ _____ _____    ______ ____
ROOT
ATOM      1  C   LIG    1        3.383   3.640  -2.369  0.00  0.00    +0.150 C 
ATOM      2  C   LIG    1        3.499   4.371  -1.056  0.00  0.00    +0.020 A 
ATOM      3  C   LIG    1        4.440   5.279  -0.751  0.00  0.00    +0.010 A 
ATOM      4  C   LIG    1        4.163   5.721   0.623  0.00  0.00    -0.210 A 
ATOM      5  C   LIG    1        3.040   5.017   1.028  0.00  0.00    +0.120 A 
ATOM      6  C   LIG    1        2.362   5.128   2.370  0.00  0.00    +0.160 C 
ATOM      7  N   LIG    1        2.662   4.213   0.015  0.00  0.00    -0.390 N 
ENDROOT
BRANCH   7   8
ATOM      8  C   LIG    1        1.563   3.344   0.050  0.00  0.00    +0.120 A 
ATOM      9  C   LIG    1        0.276   3.854   0.158  0.00  0.00    +0.060 A 
ATOM     10  C   LIG    1       -0.805   2.996   0.193  0.00  0.00    +0.080 A 
ATOM     11  C   LIG    1       -0.609   1.629   0.114  0.00  0.00    -0.020 A 
ATOM     12  C   LIG    1        0.674   1.117   0.012  0.00  0.00    -0.020 A 
ATOM     13 CL   LIG    1        0.919  -0.600  -0.080  0.00  0.00    -0.030 Cl
ATOM     14 CL   LIG    1       -1.971   0.553   0.151  0.00  0.00    -0.030 Cl
ATOM     15  C   LIG    1        1.760   1.972  -0.023  0.00  0.00    +0.060 A 
ENDBRANCH   7   8
BRANCH   4  16
ATOM     16  C   LIG    1        4.891   6.675   1.378  0.00  0.00    +0.300 C 
ATOM     17  C   LIG    1        5.752   7.547   0.741  0.00  0.00    -0.180 C 
BRANCH  17  18
ATOM     18  C   LIG    1        6.634   8.417   1.531  0.00  0.00    +0.580 C 
ATOM     19  N   LIG    1        7.474   9.268   0.909  0.00  0.00    -0.670 N 
ATOM     20  H   LIG    1        7.426   9.381  -0.053  0.00  0.00    +0.410 HD
ATOM     21  O   LIG    1        6.607   8.368   2.746  0.00  0.00    -0.510 OA
BRANCH  19  22
ATOM     22  C   LIG    1        8.415   9.990   1.652  0.00  0.00    +0.180 A 
ATOM     23  C   LIG    1        8.828   9.523   2.892  0.00  0.00    +0.030 A 
ATOM     24  C   LIG    1        9.757  10.238   3.623  0.00  0.00    +0.050 A 
ATOM     25  C   LIG    1       10.275  11.417   3.121  0.00  0.00    +0.000 A 
ATOM     26  C   LIG    1        9.866  11.886   1.886  0.00  0.00    +0.070 A 
ATOM     27  C   LIG    1        8.942  11.172   1.147  0.00  0.00    -0.130 A 
ATOM     28 BR   LIG    1        8.389  11.809  -0.546  0.00  0.00    -0.050 Br
ENDBRANCH  19  22
ENDBRANCH  17  18
BRANCH  17  29
ATOM     29  C   LIG    1        5.784   7.605  -0.690  0.00  0.00    +0.260 C 
ATOM     30  N   LIG    1        5.810   7.650  -1.825  0.00  0.00    -0.420 NA
ENDBRANCH  17  29
ENDBRANCH   4  16
TORSDOF 5
