REMARK  Name = ZINCqH0000000oBV.0
REMARK                            x       y       z     vdW  Elec       q    Type
REMARK                         _______ _______ _______ _____ _____    ______ ____
ROOT
ATOM      1  C   LIG    1       -6.119   2.987   0.214  0.00  0.00    +0.150 A 
ATOM      2  C   LIG    1       -5.048   3.635   0.816  0.00  0.00    +0.030 A 
ATOM      3  C   LIG    1       -3.818   3.013   0.890  0.00  0.00    +0.040 A 
ATOM      4  C   LIG    1       -3.651   1.740   0.364  0.00  0.00    +0.080 A 
ATOM      5  C   LIG    1       -4.719   1.094  -0.243  0.00  0.00    +0.030 A 
ATOM      6  C   LIG    1       -5.951   1.714  -0.313  0.00  0.00    +0.010 A 
ENDROOT
BRANCH   1   8
ATOM      7  C   LIG    1       -7.438   4.952  -0.043  0.00  0.00    +0.520 C 
ATOM      8  N   LIG    1       -7.367   3.618   0.138  0.00  0.00    -0.670 N 
ATOM      9  H   LIG    1       -8.180   3.095   0.216  0.00  0.00    +0.410 HD
ATOM     10  O   LIG    1       -6.424   5.616  -0.063  0.00  0.00    -0.510 OA
BRANCH   7  17
ATOM     11  C   LIG    1      -11.964   3.651  -1.599  0.00  0.00    +0.100 C 
ATOM     12  C   LIG    1      -11.899   5.143  -1.801  0.00  0.00    +0.510 C 
ATOM     13  N   LIG    1      -10.721   5.788  -1.688  0.00  0.00    -0.610 N 
ATOM     14  C   LIG    1      -10.655   7.252  -1.795  0.00  0.00    +0.280 C 
ATOM     15  C   LIG    1       -9.942   7.805  -0.557  0.00  0.00    +0.020 C 
ATOM     16  C   LIG    1       -8.580   7.123  -0.409  0.00  0.00    +0.060 C 
ATOM     17  C   LIG    1       -8.778   5.618  -0.220  0.00  0.00    -0.010 C 
ATOM     18  C   LIG    1       -9.478   5.040  -1.454  0.00  0.00    +0.280 C 
ATOM     19  O   LIG    1      -12.906   5.764  -2.067  0.00  0.00    -0.540 OA
ENDBRANCH   7  17
ENDBRANCH   1   8
BRANCH   4  20
ATOM     20  O   LIG    1       -2.440   1.128   0.437  0.00  0.00    -0.240 OA
BRANCH  20  21
ATOM     21  C   LIG    1       -2.052   0.624   1.636  0.00  0.00    +0.320 A 
ATOM     22  C   LIG    1       -0.870  -0.099   1.728  0.00  0.00    -0.020 A 
ATOM     23  C   LIG    1       -0.482  -0.603   2.957  0.00  0.00    +0.130 A 
ATOM     24  C   LIG    1       -1.299  -0.369   4.056  0.00  0.00    -0.130 A 
ATOM     25  C   LIG    1       -2.465   0.354   3.889  0.00  0.00    +0.330 A 
ATOM     26 CL   LIG    1       -0.860  -0.979   5.621  0.00  0.00    -0.050 Cl
ATOM     27  N   LIG    1       -2.807   0.821   2.704  0.00  0.00    -0.510 NA
ENDBRANCH  20  21
ENDBRANCH   4  20
TORSDOF 4
