REMARK  Name = ZINCnE000001Dij9.0
REMARK                            x       y       z     vdW  Elec       q    Type
REMARK                         _______ _______ _______ _____ _____    ______ ____
ROOT
ATOM      1  C   LIG    1       -3.541   3.588   0.038  0.00  0.00    -0.100 A 
ATOM      2  C   LIG    1       -2.518   4.495   0.038  0.00  0.00    +0.010 A 
ATOM      3  C   LIG    1       -1.266   3.946   0.030  0.00  0.00    +0.090 A 
ATOM      4  C   LIG    1       -1.241   2.579   0.022  0.00  0.00    -0.220 A 
ATOM      5  S   LIG    1       -2.885   1.957   0.019  0.00  0.00    +0.220 S 
ENDROOT
BRANCH   4   6
ATOM      6  C   LIG    1       -0.022   1.754   0.012  0.00  0.00    +0.230 A 
ATOM      7  N   LIG    1        1.185   2.218   0.003  0.00  0.00    -0.480 NA
ATOM      8  C   LIG    1        2.195   1.342  -0.012  0.00  0.00    +0.100 A 
ATOM      9  C   LIG    1        3.585   1.596  -0.023  0.00  0.00    +0.060 A 
ATOM     10  C   LIG    1        4.476   0.567  -0.037  0.00  0.00    +0.020 A 
ATOM     11  C   LIG    1        4.040  -0.751  -0.041  0.00  0.00    +0.020 A 
ATOM     12  C   LIG    1        2.692  -1.030  -0.029  0.00  0.00    +0.060 A 
ATOM     13  C   LIG    1        1.764   0.009  -0.015  0.00  0.00    -0.180 A 
ATOM     14  S   LIG    1        0.002  -0.004   0.002  0.00  0.00    +0.060 S 
ENDBRANCH   4   6
BRANCH   1  16
ATOM     15  N   LIG    1       -5.892   2.943   0.044  0.00  0.00    -0.490 NA
ATOM     16  C   LIG    1       -4.969   3.925   0.045  0.00  0.00    +0.440 C 
ATOM     17  O   LIG    1       -5.319   5.090   0.053  0.00  0.00    -0.670 OA
BRANCH  15  19
ATOM     18  C   LIG    1       -8.180   2.283   0.050  0.00  0.00    +0.510 C 
ATOM     19  N   LIG    1       -7.256   3.264   0.051  0.00  0.00    -0.540 N 
ATOM     20  H   LIG    1       -7.535   4.193   0.057  0.00  0.00    +0.360 HD
ATOM     21  O   LIG    1       -7.830   1.122   0.043  0.00  0.00    -0.560 OA
BRANCH  18  23
ATOM     22  C   LIG    1       -9.982   3.454  -1.186  0.00  0.00    +0.040 C 
ATOM     23  C   LIG    1       -9.646   2.629   0.058  0.00  0.00    -0.020 C 
ATOM     24  C   LIG    1      -10.474   1.342   0.055  0.00  0.00    +0.050 C 
ENDBRANCH  18  23
ENDBRANCH  15  19
ENDBRANCH   1  16
TORSDOF 4
