REMARK  Name = ZINCrD00000F5LCx.0
REMARK                            x       y       z     vdW  Elec       q    Type
REMARK                         _______ _______ _______ _____ _____    ______ ____
ROOT
ATOM      1  C   LIG    1        1.572  -1.762   0.010  0.00  0.00    +0.560 C 
ATOM      2  N   LIG    1        1.281  -0.464   0.223  0.00  0.00    -0.540 N 
ATOM      3  C   LIG    1        2.327   0.505   0.457  0.00  0.00    +0.290 C 
ATOM      4  C   LIG    1        1.768   1.916   0.672  0.00  0.00    +0.140 C 
ATOM      5  S   LIG    1       -0.035   1.717   0.529  0.00  0.00    -0.140 S 
ATOM      6  C   LIG    1       -0.011  -0.023   0.223  0.00  0.00    +0.380 C 
ATOM      7  N   LIG    1       -1.062  -0.768   0.029  0.00  0.00    -0.480 NA
ATOM      8  O   LIG    1        0.687  -2.544  -0.276  0.00  0.00    -0.440 OA
ENDROOT
BRANCH   1  12
ATOM      9  O   LIG    1        5.404  -3.172   2.520  0.00  0.00    -0.520 OA
ATOM     10  C   LIG    1        4.909  -2.951   1.429  0.00  0.00    +0.540 A 
ATOM     11  C   LIG    1        3.526  -2.484   1.348  0.00  0.00    +0.000 A 
ATOM     12  C   LIG    1        2.971  -2.237   0.125  0.00  0.00    -0.030 A 
ATOM     13  C   LIG    1        3.792  -2.458  -1.076  0.00  0.00    -0.110 A 
ATOM     14  C   LIG    1        3.272  -2.212  -2.350  0.00  0.00    +0.070 A 
ATOM     15  C   LIG    1        4.051  -2.417  -3.453  0.00  0.00    -0.010 A 
ATOM     16  C   LIG    1        5.359  -2.863  -3.320  0.00  0.00    +0.080 A 
ATOM     17  C   LIG    1        5.894  -3.106  -2.073  0.00  0.00    -0.020 A 
ATOM     18  C   LIG    1        5.118  -2.903  -0.935  0.00  0.00    +0.190 A 
ATOM     19  N   LIG    1        5.641  -3.141   0.318  0.00  0.00    -0.630 N 
ATOM     20  H   LIG    1        6.556  -3.452   0.400  0.00  0.00    +0.420 HD
ENDBRANCH   1  12
BRANCH   7  21
ATOM     21  C   LIG    1       -2.403  -0.196   0.171  0.00  0.00    +0.220 C 
BRANCH  21  22
ATOM     22  C   LIG    1       -3.116  -0.225  -1.182  0.00  0.00    +0.080 C 
BRANCH  22  23
ATOM     23  C   LIG    1       -4.447   0.472  -1.064  0.00  0.00    -0.080 A 
ATOM     24  C   LIG    1       -5.556  -0.226  -0.624  0.00  0.00    +0.010 A 
ATOM     25  C   LIG    1       -6.776   0.415  -0.510  0.00  0.00    +0.000 A 
ATOM     26  C   LIG    1       -6.888   1.751  -0.848  0.00  0.00    +0.000 A 
ATOM     27  C   LIG    1       -5.781   2.447  -1.293  0.00  0.00    +0.000 A 
ATOM     28  C   LIG    1       -4.560   1.808  -1.401  0.00  0.00    +0.010 A 
ENDBRANCH  22  23
ENDBRANCH  21  22
ENDBRANCH   7  21
TORSDOF 4
