REMARK  Name = ZINCqH0000005yqw.0
REMARK                            x       y       z     vdW  Elec       q    Type
REMARK                         _______ _______ _______ _____ _____    ______ ____
ROOT
ATOM      1  C   LIG    1        0.002  -0.004   0.002  0.00  0.00    +0.150 A 
ATOM      2  N   LIG    1       -0.016   1.310   0.009  0.00  0.00    -0.280 NA
ATOM      3  N   LIG    1        1.185   1.769   0.000  0.00  0.00    -0.260 NA
ATOM      4  C   LIG    1        2.045   0.777  -0.013  0.00  0.00    +0.240 A 
ATOM      5  N   LIG    1        1.314  -0.391  -0.013  0.00  0.00    -0.410 N 
ENDROOT
BRANCH   4   6
ATOM      6  C   LIG    1        3.518   0.892  -0.028  0.00  0.00    -0.080 A 
ATOM      7  C   LIG    1        4.134   2.110  -0.339  0.00  0.00    +0.120 A 
ATOM      8  C   LIG    1        5.517   2.165  -0.338  0.00  0.00    -0.020 A 
ATOM      9  C   LIG    1        6.239   1.026  -0.033  0.00  0.00    +0.270 A 
ATOM     10  N   LIG    1        5.632  -0.109   0.256  0.00  0.00    -0.480 NA
ATOM     11  C   LIG    1        4.319  -0.210   0.275  0.00  0.00    +0.280 A 
ENDBRANCH   4   6
BRANCH   5  12
ATOM     12  C   LIG    1        1.812  -1.702  -0.024  0.00  0.00    +0.080 A 
ATOM     13  C   LIG    1        2.042  -2.348  -1.231  0.00  0.00    +0.040 A 
ATOM     14  C   LIG    1        2.537  -3.637  -1.239  0.00  0.00    +0.030 A 
ATOM     15  C   LIG    1        2.792  -4.288  -0.046  0.00  0.00    +0.050 A 
ATOM     16  C   LIG    1        2.559  -3.649   1.158  0.00  0.00    +0.040 A 
ATOM     17  C   LIG    1        2.069  -2.358   1.172  0.00  0.00    -0.050 A 
BRANCH  17  18
ATOM     18  C   LIG    1        1.815  -1.663   2.484  0.00  0.00    +0.010 C 
ATOM     19  C   LIG    1        3.122  -1.570   3.275  0.00  0.00    +0.030 C 
ATOM     20  C   LIG    1        0.786  -2.457   3.292  0.00  0.00    +0.040 C 
ENDBRANCH  17  18
ENDBRANCH   5  12
BRANCH   1  21
ATOM     21  S   LIG    1       -1.402  -1.069   0.009  0.00  0.00    +0.100 S 
BRANCH  21  22
ATOM     22  C   LIG    1       -2.729   0.162   0.029  0.00  0.00    +0.150 C 
BRANCH  22  23
ATOM     23  C   LIG    1       -4.064  -0.539   0.037  0.00  0.00    +0.480 C 
ATOM     24  O   LIG    1       -4.112  -1.746   0.031  0.00  0.00    -0.490 OA
BRANCH  23  26
ATOM     25  C   LIG    1       -6.446  -0.564   0.060  0.00  0.00    +0.290 C 
ATOM     26  O   LIG    1       -5.198   0.178   0.052  0.00  0.00    -0.350 OA
ENDBRANCH  23  26
ENDBRANCH  22  23
ENDBRANCH  21  22
ENDBRANCH   1  21
TORSDOF 7
