REMARK  Name = ZINCqH0000004S7P.0
REMARK                            x       y       z     vdW  Elec       q    Type
REMARK                         _______ _______ _______ _____ _____    ______ ____
ROOT
ATOM      1  C   LIG    1        0.372   5.168  -2.765  0.00  0.00    +0.110 C 
ENDROOT
BRANCH   1   2
ATOM      2  C   LIG    1        1.302   6.343  -2.614  0.00  0.00    +0.540 C 
ATOM      3  N   LIG    1        1.242   7.367  -3.488  0.00  0.00    -0.660 N 
ATOM      4  H   LIG    1        0.647   7.318  -4.253  0.00  0.00    +0.420 HD
ATOM      5  O   LIG    1        2.105   6.368  -1.705  0.00  0.00    -0.500 OA
BRANCH   3   6
ATOM      6  C   LIG    1        2.037   8.502  -3.292  0.00  0.00    +0.140 A 
ATOM      7  C   LIG    1        3.310   8.376  -2.752  0.00  0.00    +0.020 A 
ATOM      8  C   LIG    1        4.090   9.498  -2.562  0.00  0.00    +0.040 A 
ATOM      9  C   LIG    1        3.609  10.751  -2.907  0.00  0.00    -0.110 A 
ATOM     10  C   LIG    1        4.259  12.114  -2.798  0.00  0.00    +0.080 C 
ATOM     11  C   LIG    1        3.100  13.125  -2.916  0.00  0.00    +0.030 C 
ATOM     12  C   LIG    1        2.054  12.338  -3.734  0.00  0.00    +0.080 C 
ATOM     13  C   LIG    1        2.341  10.880  -3.445  0.00  0.00    -0.080 A 
ATOM     14  C   LIG    1        1.558   9.757  -3.643  0.00  0.00    -0.010 A 
ENDBRANCH   3   6
ENDBRANCH   1   2
BRANCH   1  15
ATOM     15  S   LIG    1        0.696   3.968  -1.449  0.00  0.00    +0.090 S 
BRANCH  15  17
ATOM     16  N   LIG    1       -0.712   1.564  -1.188  0.00  0.00    -0.450 N 
ATOM     17  C   LIG    1       -0.495   2.736  -1.858  0.00  0.00    +0.150 A 
ATOM     18  N   LIG    1       -1.341   2.772  -2.863  0.00  0.00    -0.290 NA
ATOM     19  N   LIG    1       -2.067   1.712  -2.870  0.00  0.00    -0.250 NA
ATOM     20  C   LIG    1       -1.726   0.929  -1.871  0.00  0.00    +0.260 A 
BRANCH  20  21
ATOM     21  C   LIG    1       -2.317  -0.378  -1.542  0.00  0.00    +0.040 A 
ATOM     22  C   LIG    1       -3.493  -0.869  -2.025  0.00  0.00    +0.030 A 
ATOM     23  C   LIG    1       -3.667  -2.143  -1.451  0.00  0.00    -0.050 A 
ATOM     24  C   LIG    1       -2.607  -2.363  -0.648  0.00  0.00    +0.200 A 
ATOM     25  O   LIG    1       -1.793  -1.296  -0.705  0.00  0.00    -0.170 OA
ENDBRANCH  20  21
BRANCH  16  27
ATOM     26  C   LIG    1       -0.734   1.574   1.258  0.00  0.00    +0.050 C 
ATOM     27  C   LIG    1       -0.009   1.082   0.003  0.00  0.00    +0.310 C 
ENDBRANCH  16  27
ENDBRANCH  15  17
ENDBRANCH   1  15
TORSDOF 6
