REMARK  Name = ZINCc70000003ZwA.0
REMARK                            x       y       z     vdW  Elec       q    Type
REMARK                         _______ _______ _______ _____ _____    ______ ____
ROOT
ATOM      1  C   LIG    1       -1.176  -0.875   0.009  0.00  0.00    +0.390 C 
ATOM      2  N   LIG    1        0.002  -0.004   0.002  0.00  0.00    -0.280 N 
ATOM      3  N   LIG    1       -0.017   1.395   0.010  0.00  0.00    -0.240 NA
ATOM      4  C   LIG    1        1.210   1.836   0.000  0.00  0.00    +0.290 A 
ATOM      5  C   LIG    1        2.077   0.717  -0.014  0.00  0.00    -0.210 A 
ATOM      6  C   LIG    1        1.279  -0.414  -0.012  0.00  0.00    -0.430 A 
ENDROOT
BRANCH   6   7
ATOM      7  S   LIG    1        1.838  -2.085  -0.026  0.00  0.00    +2.480 S 
ATOM      8 CL   LIG    1        2.009  -2.643  -1.960  0.00  0.00    -0.450 Cl
ATOM      9  O   LIG    1        0.786  -2.865   0.525  0.00  0.00    -0.860 OA
ATOM     10  O   LIG    1        3.156  -2.072   0.506  0.00  0.00    -0.790 OA
ENDBRANCH   6   7
BRANCH   5  11
ATOM     11  C   LIG    1        3.543   0.750  -0.029  0.00  0.00    +0.510 C 
ATOM     12  O   LIG    1        4.173  -0.286  -0.041  0.00  0.00    -0.410 OA
ENDBRANCH   5  11
TORSDOF 2
