REMARK  Name = ZINCvU00000008gm.0
REMARK                            x       y       z     vdW  Elec       q    Type
REMARK                         _______ _______ _______ _____ _____    ______ ____
ROOT
ATOM      1  N   LIG    1        4.571   8.986   0.577  0.00  0.00    -0.410 N 
ATOM      2  C   LIG    1        3.639   7.990   0.465  0.00  0.00    +0.150 A 
ATOM      3  N   LIG    1        2.456   8.564   0.468  0.00  0.00    -0.290 NA
ATOM      4  N   LIG    1        2.582   9.837   0.581  0.00  0.00    -0.260 NA
ATOM      5  C   LIG    1        3.853  10.159   0.649  0.00  0.00    +0.240 A 
ENDROOT
BRANCH   1  12
ATOM      6  C   LIG    1        5.827   8.645   3.109  0.00  0.00    +0.100 C 
ATOM      7  C   LIG    1        6.617   8.673   1.826  0.00  0.00    -0.060 A 
ATOM      8  C   LIG    1        7.991   8.530   1.856  0.00  0.00    +0.030 A 
ATOM      9  C   LIG    1        8.716   8.556   0.679  0.00  0.00    +0.050 A 
ATOM     10  C   LIG    1        8.070   8.725  -0.531  0.00  0.00    +0.030 A 
ATOM     11  C   LIG    1        6.696   8.861  -0.569  0.00  0.00    +0.040 A 
ATOM     12  C   LIG    1        5.965   8.841   0.612  0.00  0.00    +0.090 A 
ENDBRANCH   1  12
BRANCH   5  13
ATOM     13  C   LIG    1        4.408  11.523   0.780  0.00  0.00    -0.020 A 
ATOM     14  C   LIG    1        5.739  11.704   1.159  0.00  0.00    +0.050 A 
ATOM     15  C   LIG    1        6.253  12.979   1.274  0.00  0.00    +0.030 A 
ATOM     16  C   LIG    1        5.449  14.078   1.025  0.00  0.00    -0.020 A 
ATOM     17  C   LIG    1        4.126  13.905   0.654  0.00  0.00    +0.030 A 
ATOM     18 CL   LIG    1        6.101  15.679   1.179  0.00  0.00    -0.060 Cl
ATOM     19  C   LIG    1        3.602  12.635   0.530  0.00  0.00    +0.090 A 
ENDBRANCH   5  13
BRANCH   2  20
ATOM     20  S   LIG    1        3.964   6.264   0.334  0.00  0.00    +0.100 S 
BRANCH  20  21
ATOM     21  C   LIG    1        2.271   5.633   0.227  0.00  0.00    +0.120 C 
BRANCH  21  22
ATOM     22  C   LIG    1        2.301   4.131   0.104  0.00  0.00    +0.540 C 
ATOM     23  N   LIG    1        1.148   3.439   0.010  0.00  0.00    -0.660 N 
ATOM     24  H   LIG    1        0.304   3.911  -0.061  0.00  0.00    +0.420 HD
ATOM     25  O   LIG    1        3.363   3.545   0.091  0.00  0.00    -0.500 OA
BRANCH  23  26
ATOM     26  C   LIG    1        1.170   2.039   0.014  0.00  0.00    +0.120 A 
ATOM     27  C   LIG    1        2.226   1.351   0.604  0.00  0.00    +0.090 A 
ATOM     28  C   LIG    1        2.202  -0.035   0.583  0.00  0.00    +0.010 A 
ATOM     29  C   LIG    1        1.140  -0.683  -0.017  0.00  0.00    +0.270 A 
ATOM     30  N   LIG    1        0.153  -0.003  -0.567  0.00  0.00    -0.450 NA
ATOM     31  C   LIG    1        0.136   1.316  -0.570  0.00  0.00    +0.150 A 
ATOM     32 CL   LIG    1       -1.187   2.157  -1.316  0.00  0.00    -0.020 Cl
ENDBRANCH  23  26
ENDBRANCH  21  22
ENDBRANCH  20  21
ENDBRANCH   2  20
TORSDOF 6
