REMARK  Name = ZINCpe000000XLzq.0
REMARK                            x       y       z     vdW  Elec       q    Type
REMARK                         _______ _______ _______ _____ _____    ______ ____
ROOT
ATOM      1  C   LIG    1        4.110  -0.684   1.928  0.00  0.00    +0.300 C 
ENDROOT
BRANCH   1   2
ATOM      2  C   LIG    1        3.810  -1.992   1.242  0.00  0.00    +0.510 C 
ATOM      3  N   LIG    1        4.814  -2.838   0.936  0.00  0.00    -0.610 N 
ATOM      4  C   LIG    1        6.205  -2.496   1.260  0.00  0.00    +0.260 C 
ATOM      5  C   LIG    1        6.800  -3.633   2.109  0.00  0.00    +0.250 C 
ATOM      6  N   LIG    1        6.522  -4.912   1.440  0.00  0.00    -0.630 N 
ATOM      7  C   LIG    1        5.130  -5.251   1.111  0.00  0.00    +0.290 C 
ATOM      8  C   LIG    1        7.525  -5.757   1.133  0.00  0.00    +0.710 C 
ATOM      9  N   LIG    1        8.779  -5.288   0.980  0.00  0.00    -0.630 N 
ATOM     10  C   LIG    1        9.027  -3.844   0.986  0.00  0.00    +0.280 C 
ATOM     11  C   LIG    1        9.895  -6.222   0.808  0.00  0.00    +0.310 C 
ATOM     12  O   LIG    1        7.299  -6.944   0.995  0.00  0.00    -0.580 OA
ATOM     13  C   LIG    1        4.536  -4.117   0.267  0.00  0.00    +0.290 C 
ATOM     14  O   LIG    1        2.666  -2.283   0.965  0.00  0.00    -0.530 OA
ENDBRANCH   1   2
BRANCH   1  16
ATOM     15  C   LIG    1        2.885   1.254   2.753  0.00  0.00    +0.570 C 
ATOM     16  N   LIG    1        2.861   0.049   2.149  0.00  0.00    -0.720 N 
ATOM     17  H   LIG    1        2.017  -0.333   1.862  0.00  0.00    +0.410 HD
ATOM     18  O   LIG    1        3.943   1.732   3.113  0.00  0.00    -0.540 OA
BRANCH  15  23
ATOM     19  C   LIG    1       -2.020   4.135   3.620  0.00  0.00    +0.100 C 
ATOM     20  C   LIG    1       -0.736   3.381   3.393  0.00  0.00    -0.060 A 
ATOM     21  C   LIG    1       -0.763   2.146   2.769  0.00  0.00    +0.010 A 
ATOM     22  C   LIG    1        0.409   1.448   2.563  0.00  0.00    +0.040 A 
ATOM     23  C   LIG    1        1.625   1.994   2.976  0.00  0.00    -0.140 A 
ATOM     24  C   LIG    1        1.646   3.243   3.600  0.00  0.00    +0.090 A 
ATOM     25  C   LIG    1        0.467   3.928   3.805  0.00  0.00    -0.100 A 
ATOM     26  C   LIG    1        0.488   5.276   4.478  0.00  0.00    +0.090 C 
ENDBRANCH  15  23
ENDBRANCH   1  16
TORSDOF 3
