REMARK  Name = ZINCpk00000ebbnU.0
REMARK                            x       y       z     vdW  Elec       q    Type
REMARK                         _______ _______ _______ _____ _____    ______ ____
ROOT
ATOM      1  N   LIG    1       -1.032   3.837   4.231  0.00  0.00    -0.740 N 
ATOM      2  H   LIG    1       -0.217   4.339   4.387  0.00  0.00    +0.400 HD
ENDROOT
BRANCH   1   3
ATOM      3  C   LIG    1       -1.147   3.017   3.092  0.00  0.00    +0.070 A 
ATOM      4  C   LIG    1       -0.200   2.838   2.137  0.00  0.00    +0.140 A 
ATOM      5  N   LIG    1       -0.704   1.975   1.216  0.00  0.00    -0.360 N 
ATOM      6  N   LIG    1       -1.998   1.623   1.620  0.00  0.00    -0.250 NA
ATOM      7  C   LIG    1       -2.261   2.240   2.743  0.00  0.00    +0.190 A 
BRANCH   5   8
ATOM      8  C   LIG    1       -0.018   1.503   0.010  0.00  0.00    +0.360 C 
BRANCH   8   9
ATOM      9  C   LIG    1        0.002  -0.004   0.002  0.00  0.00    +0.500 C 
ATOM     10  N   LIG    1        0.585  -0.664  -1.018  0.00  0.00    -0.730 N 
ATOM     11  H   LIG    1        0.992  -0.170  -1.747  0.00  0.00    +0.400 HD
ATOM     12  O   LIG    1       -0.506  -0.622   0.913  0.00  0.00    -0.510 OA
BRANCH  10  13
ATOM     13  C   LIG    1        0.605  -2.129  -1.026  0.00  0.00    +0.280 C 
BRANCH  13  14
ATOM     14  C   LIG    1        1.321  -2.623  -2.285  0.00  0.00    +0.180 C 
BRANCH  14  15
ATOM     15  O   LIG    1        2.693  -2.226  -2.239  0.00  0.00    -0.570 OA
ATOM     16  H   LIG    1        3.209  -2.506  -3.007  0.00  0.00    +0.380 HD
ENDBRANCH  14  15
ENDBRANCH  13  14
ENDBRANCH  10  13
ENDBRANCH   8   9
ENDBRANCH   5   8
ENDBRANCH   1   3
BRANCH   1  17
ATOM     17  C   LIG    1       -2.143   3.931   5.181  0.00  0.00    +0.350 C 
BRANCH  17  24
ATOM     18  C   LIG    1       -0.728   3.112   7.895  0.00  0.00    +0.160 C 
ATOM     19  C   LIG    1       -1.143   4.505   7.500  0.00  0.00    +0.100 A 
ATOM     20  N   LIG    1       -0.978   5.587   8.217  0.00  0.00    -0.270 NA
ATOM     21  N   LIG    1       -1.502   6.671   7.502  0.00  0.00    -0.360 N 
ATOM     22  C   LIG    1       -1.981   6.204   6.330  0.00  0.00    +0.150 A 
ATOM     23 CL   LIG    1       -2.735   7.146   5.082  0.00  0.00    +0.000 Cl
ATOM     24  C   LIG    1       -1.768   4.866   6.302  0.00  0.00    -0.230 A 
BRANCH  21  25
ATOM     25  C   LIG    1       -1.527   8.067   7.947  0.00  0.00    +0.330 C 
BRANCH  25  26
ATOM     26  C   LIG    1       -2.823   8.334   8.716  0.00  0.00    -0.030 C 
ATOM     27  C   LIG    1       -4.016   8.190   7.769  0.00  0.00    +0.020 C 
ATOM     28  C   LIG    1       -2.793   9.753   9.287  0.00  0.00    +0.040 C 
ENDBRANCH  25  26
ENDBRANCH  21  25
ENDBRANCH  17  24
ENDBRANCH   1  17
TORSDOF 10
