REMARK  Name = ZINCvU0000000C4d.0
REMARK                            x       y       z     vdW  Elec       q    Type
REMARK                         _______ _______ _______ _____ _____    ______ ____
ROOT
ATOM      1  C   LIG    1       -1.513   3.629  -2.463  0.00  0.00    +0.240 C 
ENDROOT
BRANCH   1   2
ATOM      2  C   LIG    1       -0.773   3.123  -1.223  0.00  0.00    -0.010 C 
ATOM      3  C   LIG    1       -0.753   1.593  -1.232  0.00  0.00    +0.030 C 
ATOM      4  C   LIG    1       -0.013   1.086   0.008  0.00  0.00    +0.000 C 
ATOM      5  C   LIG    1       -0.729   1.579   1.267  0.00  0.00    +0.000 C 
ATOM      6  C   LIG    1       -0.750   3.109   1.275  0.00  0.00    +0.000 C 
ATOM      7  C   LIG    1       -1.490   3.616   0.036  0.00  0.00    +0.000 C 
ENDBRANCH   1   2
BRANCH   1  10
ATOM      8  O   LIG    1       -2.457   1.239  -3.281  0.00  0.00    -0.520 OA
ATOM      9  C   LIG    1       -3.290   2.002  -2.829  0.00  0.00    +0.600 C 
ATOM     10  N   LIG    1       -2.919   3.222  -2.393  0.00  0.00    -0.720 N 
ATOM     11  H   LIG    1       -3.583   3.831  -2.032  0.00  0.00    +0.400 HD
BRANCH   9  12
ATOM     12  C   LIG    1       -4.696   1.595  -2.759  0.00  0.00    -0.270 A 
ATOM     13  C   LIG    1       -5.194   0.392  -3.173  0.00  0.00    +0.110 A 
ATOM     14  C   LIG    1       -6.551   0.273  -2.987  0.00  0.00    +0.000 A 
ATOM     15  C   LIG    1       -7.147   1.343  -2.450  0.00  0.00    -0.180 A 
ATOM     16  S   LIG    1       -6.013   2.579  -2.136  0.00  0.00    +0.200 S 
BRANCH  15  17
ATOM     17  C   LIG    1       -8.623   1.445  -2.161  0.00  0.00    +0.150 C 
BRANCH  17  18
ATOM     18  C   LIG    1       -8.901   0.940  -0.744  0.00  0.00    -0.040 C 
ATOM     19  C   LIG    1       -9.779  -0.304  -0.597  0.00  0.00    +0.020 C 
ATOM     20  C   LIG    1      -10.331   1.071  -0.215  0.00  0.00    +0.020 C 
ENDBRANCH  17  18
ENDBRANCH  15  17
ENDBRANCH   9  12
ENDBRANCH   1  10
BRANCH   1  21
ATOM     21  C   LIG    1       -1.427   5.156  -2.520  0.00  0.00    +0.280 C 
BRANCH  21  22
ATOM     22  N   LIG    1       -2.234   5.649  -3.638  0.00  0.00    -0.710 N 
ATOM     23  H   LIG    1       -2.716   5.024  -4.202  0.00  0.00    +0.410 HD
ATOM     24  C   LIG    1       -2.308   6.972  -3.884  0.00  0.00    +0.570 C 
ATOM     25  O   LIG    1       -1.705   7.756  -3.177  0.00  0.00    -0.500 OA
BRANCH  24  26
ATOM     26  C   LIG    1       -3.124   7.471  -5.014  0.00  0.00    +0.090 A 
ATOM     27  N   LIG    1       -3.776   6.610  -5.785  0.00  0.00    -0.430 NA
ATOM     28  C   LIG    1       -4.516   7.011  -6.795  0.00  0.00    +0.300 A 
ATOM     29  C   LIG    1       -4.634   8.359  -7.101  0.00  0.00    -0.060 A 
ATOM     30  C   LIG    1       -3.965   9.293  -6.325  0.00  0.00    +0.100 A 
ATOM     31 CL   LIG    1       -5.610   8.871  -8.443  0.00  0.00    -0.030 Cl
ATOM     32  C   LIG    1       -3.196   8.842  -5.263  0.00  0.00    -0.030 A 
ATOM     33 CL   LIG    1       -2.336   9.966  -4.258  0.00  0.00    +0.000 Cl
ENDBRANCH  24  26
ENDBRANCH  21  22
ENDBRANCH   1  21
TORSDOF 8
