REMARK  Name = ZINCpk00000l15um.0
REMARK                            x       y       z     vdW  Elec       q    Type
REMARK                         _______ _______ _______ _____ _____    ______ ____
ROOT
ATOM      1  O   LIG    1       -0.016  -0.002   0.076  0.00  0.00    -0.520 OA
ATOM      2  C   LIG    1       -0.031   1.210   0.075  0.00  0.00    +0.520 C 
ATOM      3  N   LIG    1       -1.206   1.870   0.067  0.00  0.00    -0.620 N 
ATOM      4  C   LIG    1       -1.240   3.339   0.072  0.00  0.00    +0.270 C 
ATOM      5  C   LIG    1       -2.072   3.810  -1.133  0.00  0.00    +0.280 C 
ATOM      6  N   LIG    1       -3.343   3.072  -1.141  0.00  0.00    -0.600 N 
ATOM      7  C   LIG    1       -3.310   1.603  -1.140  0.00  0.00    +0.290 C 
ATOM      8  C   LIG    1       -4.519   3.732  -1.148  0.00  0.00    +0.610 C 
ATOM      9  O   LIG    1       -5.561   3.115  -1.254  0.00  0.00    -0.520 OA
ATOM     10  C   LIG    1       -2.478   1.132   0.059  0.00  0.00    +0.280 C 
ENDROOT
BRANCH   8  11
ATOM     11  C   LIG    1       -4.540   5.201  -1.028  0.00  0.00    +0.010 A 
ATOM     12  N   LIG    1       -3.500   6.006  -1.016  0.00  0.00    -0.210 NA
ATOM     13  N   LIG    1       -3.847   7.237  -0.899  0.00  0.00    -0.420 N 
ATOM     14  H   LIG    1       -3.225   7.981  -0.870  0.00  0.00    +0.450 HD
ATOM     15  C   LIG    1       -5.210   7.364  -0.820  0.00  0.00    +0.070 A 
ATOM     16  C   LIG    1       -6.086   8.435  -0.689  0.00  0.00    +0.010 A 
ATOM     17  C   LIG    1       -7.443   8.204  -0.639  0.00  0.00    +0.050 A 
ATOM     18  C   LIG    1       -7.946   6.912  -0.718  0.00  0.00    -0.010 A 
ATOM     19  C   LIG    1       -7.102   5.844  -0.847  0.00  0.00    +0.100 A 
ATOM     20  C   LIG    1       -5.728   6.056  -0.905  0.00  0.00    -0.110 A 
ENDBRANCH   8  11
BRANCH   2  21
ATOM     21  C   LIG    1        1.265   1.980   0.077  0.00  0.00    +0.070 C 
BRANCH  21  22
ATOM     22  C   LIG    1        2.440   1.000   0.080  0.00  0.00    +0.170 C 
ATOM     23  C   LIG    1        3.767   1.773  -0.044  0.00  0.00    +0.010 C 
ATOM     24  C   LIG    1        4.559   1.375   1.225  0.00  0.00    +0.000 C 
ATOM     25  C   LIG    1        3.868   0.050   1.636  0.00  0.00    +0.190 C 
ATOM     26  O   LIG    1        2.477   0.285   1.327  0.00  0.00    -0.360 OA
ENDBRANCH  21  22
ENDBRANCH   2  21
TORSDOF 3
