REMARK  Name = ZINCpk00000l15um.1
REMARK                            x       y       z     vdW  Elec       q    Type
REMARK                         _______ _______ _______ _____ _____    ______ ____
ROOT
ATOM      1  O   LIG    1       -1.490  -6.716  -1.599  0.00  0.00    -0.520 OA
ATOM      2  C   LIG    1       -1.819  -5.549  -1.589  0.00  0.00    +0.520 C 
ATOM      3  N   LIG    1       -0.882  -4.585  -1.491  0.00  0.00    -0.620 N 
ATOM      4  C   LIG    1        0.543  -4.933  -1.397  0.00  0.00    +0.280 C 
ATOM      5  C   LIG    1        1.124  -4.280  -0.137  0.00  0.00    +0.270 C 
ATOM      6  N   LIG    1        0.740  -2.862  -0.123  0.00  0.00    -0.600 N 
ATOM      7  C   LIG    1       -0.685  -2.513  -0.212  0.00  0.00    +0.290 C 
ATOM      8  C   LIG    1        1.677  -1.898  -0.025  0.00  0.00    +0.600 C 
ATOM      9  O   LIG    1        1.342  -0.732   0.076  0.00  0.00    -0.510 OA
ATOM     10  C   LIG    1       -1.266  -3.166  -1.478  0.00  0.00    +0.270 C 
ENDROOT
BRANCH   8  11
ATOM     11  C   LIG    1        3.097  -2.253  -0.040  0.00  0.00    -0.020 A 
ATOM     12  C   LIG    1        3.834  -2.813   1.012  0.00  0.00    -0.120 A 
ATOM     13  C   LIG    1        3.578  -3.213   2.329  0.00  0.00    +0.050 A 
ATOM     14  C   LIG    1        4.587  -3.734   3.079  0.00  0.00    +0.010 A 
ATOM     15  C   LIG    1        5.876  -3.881   2.567  0.00  0.00    +0.030 A 
ATOM     16  C   LIG    1        6.190  -3.512   1.298  0.00  0.00    +0.060 A 
ATOM     17  C   LIG    1        5.192  -2.966   0.467  0.00  0.00    +0.060 A 
ATOM     18  N   LIG    1        5.144  -2.515  -0.774  0.00  0.00    -0.270 NA
ATOM     19  N   LIG    1        3.965  -2.107  -1.079  0.00  0.00    -0.310 N 
ATOM     20  H   LIG    1        3.722  -1.740  -1.944  0.00  0.00    +0.450 HD
ENDBRANCH   8  11
BRANCH   2  21
ATOM     21  C   LIG    1       -3.276  -5.176  -1.685  0.00  0.00    +0.070 C 
BRANCH  21  22
ATOM     22  C   LIG    1       -4.122  -6.447  -1.785  0.00  0.00    +0.170 C 
ATOM     23  C   LIG    1       -5.619  -6.083  -1.758  0.00  0.00    +0.010 C 
ATOM     24  C   LIG    1       -6.172  -6.653  -3.087  0.00  0.00    +0.000 C 
ATOM     25  C   LIG    1       -5.106  -7.718  -3.453  0.00  0.00    +0.190 C 
ATOM     26  O   LIG    1       -3.865  -7.108  -3.035  0.00  0.00    -0.360 OA
ENDBRANCH  21  22
ENDBRANCH   2  21
TORSDOF 3
