REMARK  Name = ZINCrD000000AMxJ.0
REMARK                            x       y       z     vdW  Elec       q    Type
REMARK                         _______ _______ _______ _____ _____    ______ ____
ROOT
ATOM      1  C   LIG    1       -1.428   3.559   1.518  0.00  0.00    +0.240 C 
ATOM      2  C   LIG    1       -0.010   3.014   1.311  0.00  0.00    +0.010 C 
ATOM      3  C   LIG    1       -0.052   1.881   0.280  0.00  0.00    +0.280 C 
ATOM      4  N   LIG    1       -0.694   2.377  -0.945  0.00  0.00    -0.610 N 
ATOM      5  C   LIG    1       -2.020   3.002  -0.845  0.00  0.00    +0.290 C 
ATOM      6  C   LIG    1       -0.078   2.261  -2.138  0.00  0.00    +0.560 C 
ATOM      7  O   LIG    1        1.059   1.836  -2.197  0.00  0.00    -0.530 OA
ATOM      8  C   LIG    1       -1.959   4.123   0.198  0.00  0.00    +0.030 C 
ENDROOT
BRANCH   6   9
ATOM      9  C   LIG    1       -0.786   2.651  -3.377  0.00  0.00    -0.130 A 
ATOM     10  C   LIG    1       -2.152   2.404  -3.511  0.00  0.00    +0.050 A 
ATOM     11  C   LIG    1       -2.804   2.771  -4.669  0.00  0.00    +0.020 A 
ATOM     12  C   LIG    1       -2.110   3.385  -5.700  0.00  0.00    -0.070 A 
ATOM     13  C   LIG    1       -2.594   3.874  -7.049  0.00  0.00    +0.080 C 
ATOM     14  C   LIG    1       -1.495   4.836  -7.548  0.00  0.00    +0.030 C 
ATOM     15  C   LIG    1       -0.238   4.306  -6.827  0.00  0.00    +0.080 C 
ATOM     16  C   LIG    1       -0.754   3.633  -5.573  0.00  0.00    -0.100 A 
ATOM     17  C   LIG    1       -0.092   3.274  -4.414  0.00  0.00    +0.080 A 
ENDBRANCH   6   9
BRANCH   1  20
ATOM     18  O   LIG    1       -1.548   3.146   4.180  0.00  0.00    -0.530 OA
ATOM     19  C   LIG    1       -1.465   4.309   3.836  0.00  0.00    +0.560 C 
ATOM     20  N   LIG    1       -1.400   4.621   2.526  0.00  0.00    -0.720 N 
ATOM     21  H   LIG    1       -1.334   5.549   2.252  0.00  0.00    +0.400 HD
BRANCH  19  22
ATOM     22  C   LIG    1       -1.437   5.380   4.853  0.00  0.00    -0.150 A 
ATOM     23  C   LIG    1       -1.336   6.716   4.460  0.00  0.00    +0.080 A 
ATOM     24  C   LIG    1       -1.314   7.712   5.413  0.00  0.00    -0.020 A 
ATOM     25  C   LIG    1       -1.382   7.388   6.760  0.00  0.00    +0.130 A 
ATOM     26  C   LIG    1       -1.476   6.062   7.155  0.00  0.00    -0.010 A 
ATOM     27  F   LIG    1       -1.355   8.367   7.690  0.00  0.00    -0.130 F 
ATOM     28  C   LIG    1       -1.504   5.059   6.210  0.00  0.00    +0.120 A 
ENDBRANCH  19  22
ENDBRANCH   1  20
TORSDOF 3
