REMARK  Name = ZINCqH0000001PIP.0
REMARK                            x       y       z     vdW  Elec       q    Type
REMARK                         _______ _______ _______ _____ _____    ______ ____
ROOT
ATOM      1  C   LIG    1       -4.205   2.359  -0.447  0.00  0.00    +0.570 C 
ATOM      2  N   LIG    1       -3.503   3.431  -0.865  0.00  0.00    -0.720 N 
ATOM      3  H   LIG    1       -3.608   3.755  -1.773  0.00  0.00    +0.400 HD
ATOM      4  O   LIG    1       -4.073   1.954   0.692  0.00  0.00    -0.520 OA
ENDROOT
BRANCH   2   5
ATOM      5  C   LIG    1       -2.583   4.108   0.052  0.00  0.00    +0.300 C 
ATOM      6  C   LIG    1       -2.408   5.564  -0.386  0.00  0.00    +0.020 C 
ATOM      7  C   LIG    1       -1.232   6.164   0.396  0.00  0.00    +0.260 C 
ATOM      8  O   LIG    1       -0.040   5.477   0.015  0.00  0.00    -0.310 OA
ATOM      9  C   LIG    1       -0.061   4.118   0.020  0.00  0.00    +0.130 A 
ATOM     10  C   LIG    1        1.151   3.436   0.007  0.00  0.00    +0.020 A 
ATOM     11  C   LIG    1        1.173   2.056   0.002  0.00  0.00    +0.030 A 
ATOM     12  C   LIG    1       -0.016   1.347   0.009  0.00  0.00    +0.060 A 
ATOM     13  C   LIG    1       -1.223   2.023   0.019  0.00  0.00    +0.040 A 
ATOM     14  F   LIG    1        0.002  -0.004   0.002  0.00  0.00    -0.140 F 
ATOM     15  C   LIG    1       -1.248   3.407   0.031  0.00  0.00    -0.150 A 
ENDBRANCH   2   5
BRANCH   1  22
ATOM     16  C   LIG    1       -7.648  -1.168  -1.879  0.00  0.00    +0.080 A 
ATOM     17  N   LIG    1       -8.147  -1.184  -3.079  0.00  0.00    -0.300 NA
ATOM     18  O   LIG    1       -7.721  -0.304  -3.790  0.00  0.00    +0.090 OA
ATOM     19  C   LIG    1       -6.828   0.487  -3.172  0.00  0.00    +0.240 A 
ATOM     20  N   LIG    1       -6.113   1.543  -3.524  0.00  0.00    -0.460 NA
ATOM     21  C   LIG    1       -5.292   2.135  -2.684  0.00  0.00    +0.380 A 
ATOM     22  C   LIG    1       -5.133   1.677  -1.371  0.00  0.00    -0.210 A 
ATOM     23  C   LIG    1       -5.862   0.559  -0.950  0.00  0.00    +0.230 A 
ATOM     24  C   LIG    1       -6.720  -0.033  -1.863  0.00  0.00    -0.220 A 
BRANCH  16  26
ATOM     25  C   LIG    1       -9.448  -2.039  -0.412  0.00  0.00    +0.040 C 
ATOM     26  C   LIG    1       -7.956  -2.113  -0.746  0.00  0.00    +0.080 C 
ATOM     27  C   LIG    1       -7.598  -3.541  -1.162  0.00  0.00    +0.040 C 
ENDBRANCH  16  26
ENDBRANCH   1  22
TORSDOF 3
