REMARK  Name = ZINCkj00000vqo0k.0
REMARK                            x       y       z     vdW  Elec       q    Type
REMARK                         _______ _______ _______ _____ _____    ______ ____
ROOT
ATOM      1  C   LIG    1        5.935  -0.587   0.439  0.00  0.00    +0.180 A 
ATOM      2  N   LIG    1        6.218  -1.842   0.255  0.00  0.00    -0.330 NA
ATOM      3  O   LIG    1        7.222  -2.140   0.868  0.00  0.00    +0.100 OA
ATOM      4  C   LIG    1        7.683  -1.073   1.528  0.00  0.00    +0.110 A 
ATOM      5  N   LIG    1        6.870  -0.079   1.261  0.00  0.00    -0.440 NA
ENDROOT
BRANCH   4   6
ATOM      6  C   LIG    1        8.904  -1.023   2.410  0.00  0.00    +0.230 C 
ATOM      7  C   LIG    1        9.963  -0.073   1.806  0.00  0.00    +0.080 C 
ATOM      8  C   LIG    1       11.294  -0.814   2.089  0.00  0.00    +0.300 C 
ATOM      9  N   LIG    1       10.937  -2.242   1.889  0.00  0.00    -0.510 N 
ATOM     10  H   LIG    1       10.927  -2.465   0.905  0.00  0.00    +0.440 HD
ATOM     11  H   LIG    1       11.593  -2.836   2.374  0.00  0.00    +0.440 HD
ATOM     12  C   LIG    1        9.583  -2.403   2.462  0.00  0.00    +0.320 C 
BRANCH   6  13
ATOM     13  O   LIG    1        8.546  -0.596   3.726  0.00  0.00    -0.520 OA
ATOM     14  H   LIG    1        8.133   0.278   3.758  0.00  0.00    +0.410 HD
ENDBRANCH   6  13
ENDBRANCH   4   6
BRANCH   1  16
ATOM     15  C   LIG    1        5.046   0.447  -1.632  0.00  0.00    +0.070 C 
ATOM     16  C   LIG    1        4.769   0.160  -0.155  0.00  0.00    +0.280 C 
BRANCH  16  17
ATOM     17  O   LIG    1        3.586  -0.632  -0.037  0.00  0.00    -0.300 OA
BRANCH  17  18
ATOM     18  C   LIG    1        2.399   0.030  -0.023  0.00  0.00    +0.120 A 
ATOM     19  C   LIG    1        2.365   1.401  -0.235  0.00  0.00    -0.080 A 
ATOM     20  C   LIG    1        1.158   2.072  -0.221  0.00  0.00    +0.050 A 
ATOM     21  C   LIG    1       -0.017   1.378   0.006  0.00  0.00    -0.020 A 
ATOM     22  C   LIG    1        0.014   0.012   0.217  0.00  0.00    +0.050 A 
ATOM     23  C   LIG    1        1.219  -0.663   0.203  0.00  0.00    -0.020 A 
ENDBRANCH  17  18
ENDBRANCH  16  17
ENDBRANCH   1  16
TORSDOF 5
