REMARK  Name = ZINCrD000000D8L4.1
REMARK                            x       y       z     vdW  Elec       q    Type
REMARK                         _______ _______ _______ _____ _____    ______ ____
ROOT
ATOM      1  N   LIG    1        0.780  -4.608  -0.248  0.00  0.00    -0.630 NA
ATOM      2  H   LIG    1        0.094  -4.218   0.381  0.00  0.00    +0.360 HD
ENDROOT
BRANCH   1   3
ATOM      3  C   LIG    1        0.496  -6.022  -0.526  0.00  0.00    +0.080 C 
ATOM      4  C   LIG    1       -0.784  -6.615   0.067  0.00  0.00    +0.060 C 
ATOM      5  C   LIG    1        0.578  -7.003   0.645  0.00  0.00    +0.010 C 
BRANCH   3   6
ATOM      6  C   LIG    1        0.930  -6.519  -1.881  0.00  0.00    -0.010 A 
ATOM      7  C   LIG    1        0.785  -7.854  -2.207  0.00  0.00    +0.010 A 
ATOM      8  C   LIG    1        1.180  -8.309  -3.452  0.00  0.00    +0.070 A 
ATOM      9  C   LIG    1        1.728  -7.429  -4.367  0.00  0.00    -0.190 A 
ATOM     10  C   LIG    1        1.879  -6.095  -4.038  0.00  0.00    +0.070 A 
ATOM     11  C   LIG    1        1.480  -5.640  -2.796  0.00  0.00    +0.050 A 
BRANCH   9  12
ATOM     12  C   LIG    1        2.163  -7.926  -5.722  0.00  0.00    +0.510 C 
ATOM     13  F   LIG    1        2.029  -6.897  -6.660  0.00  0.00    -0.180 F 
ATOM     14  F   LIG    1        1.362  -9.009  -6.100  0.00  0.00    -0.180 F 
ATOM     15  F   LIG    1        3.500  -8.333  -5.663  0.00  0.00    -0.180 F 
ENDBRANCH   9  12
ENDBRANCH   3   6
ENDBRANCH   1   3
BRANCH   1  16
ATOM     16  C   LIG    1        2.139  -4.439   0.283  0.00  0.00    +0.290 C 
BRANCH  16  21
ATOM     17  O   LIG    1        4.763  -1.364  -0.937  0.00  0.00    -0.930 OA
ATOM     18  S   LIG    1        4.284  -1.149   0.384  0.00  0.00    +2.670 S 
ATOM     19  N   LIG    1        3.672  -2.607   0.924  0.00  0.00    -1.060 N 
ATOM     20  H   LIG    1        4.160  -3.167   1.549  0.00  0.00    +0.440 HD
ATOM     21  C   LIG    1        2.439  -2.970   0.437  0.00  0.00    +0.440 C 
ATOM     22  N   LIG    1        1.528  -2.127   0.105  0.00  0.00    -0.520 NA
ATOM     23  C   LIG    1        1.610  -0.767   0.122  0.00  0.00    +0.200 A 
ATOM     24  C   LIG    1        0.459   0.016   0.002  0.00  0.00    +0.040 A 
ATOM     25  C   LIG    1        0.558   1.392   0.021  0.00  0.00    +0.080 A 
ATOM     26  C   LIG    1        1.788   2.009   0.158  0.00  0.00    +0.000 A 
ATOM     27  C   LIG    1        2.938   1.242   0.274  0.00  0.00    +0.140 A 
ATOM     28  O   LIG    1        5.079  -0.617   1.435  0.00  0.00    -0.930 OA
ATOM     29  C   LIG    1        2.847  -0.125   0.253  0.00  0.00    -0.710 A 
ENDBRANCH  16  21
ENDBRANCH   1  16
TORSDOF 5
