REMARK  Name = ZINCnE00000rhnlw.0
REMARK                            x       y       z     vdW  Elec       q    Type
REMARK                         _______ _______ _______ _____ _____    ______ ____
ROOT
ATOM      1  C   LIG    1       -0.819  -1.982  -0.067  0.00  0.00    +0.280 A 
ATOM      2  N   LIG    1       -1.105  -0.723   0.007  0.00  0.00    -0.370 NA
ATOM      3  C   LIG    1       -0.066   0.102   0.185  0.00  0.00    +0.160 A 
ATOM      4  C   LIG    1        1.149  -0.524   0.257  0.00  0.00    -0.120 A 
ATOM      5  S   LIG    1        0.918  -2.211   0.097  0.00  0.00    +0.100 S 
ENDROOT
BRANCH   1   8
ATOM      6  C   LIG    1       -4.023  -3.801  -0.785  0.00  0.00    +0.110 C 
ATOM      7  C   LIG    1       -3.042  -2.705  -0.458  0.00  0.00    +0.500 C 
ATOM      8  N   LIG    1       -1.744  -3.002  -0.249  0.00  0.00    -0.480 N 
ATOM      9  O   LIG    1       -3.421  -1.556  -0.382  0.00  0.00    -0.440 OA
BRANCH   8  10
ATOM     10  C   LIG    1       -1.328  -4.340  -0.216  0.00  0.00    +0.140 A 
ATOM     11  C   LIG    1       -0.441  -4.816  -1.172  0.00  0.00    +0.030 A 
ATOM     12  C   LIG    1       -0.032  -6.135  -1.138  0.00  0.00    +0.050 A 
ATOM     13  C   LIG    1       -0.506  -6.981  -0.153  0.00  0.00    +0.030 A 
ATOM     14  C   LIG    1       -1.391  -6.510   0.801  0.00  0.00    -0.020 A 
ATOM     15 CL   LIG    1       -1.984  -7.577   2.036  0.00  0.00    -0.060 Cl
ATOM     16  C   LIG    1       -1.798  -5.190   0.775  0.00  0.00    +0.040 A 
ENDBRANCH   8  10
ENDBRANCH   1   8
BRANCH   3  17
ATOM     17  C   LIG    1       -0.211   1.505   0.286  0.00  0.00    +0.100 C 
ATOM     18  C   LIG    1       -1.143   2.044   1.158  0.00  0.00    -0.070 C 
BRANCH  18  19
ATOM     19  C   LIG    1       -1.869   1.173   2.084  0.00  0.00    +0.530 C 
ATOM     20  O   LIG    1       -2.756   1.635   2.791  0.00  0.00    -0.680 OA
ATOM     21  O   LIG    1       -1.588  -0.017   2.152  0.00  0.00    -0.650 OA
ENDBRANCH  18  19
BRANCH  18  22
ATOM     22  C   LIG    1       -1.396   3.454   1.154  0.00  0.00    +0.280 C 
ATOM     23  N   LIG    1       -1.596   4.572   1.151  0.00  0.00    -0.450 NA
ENDBRANCH  18  22
ENDBRANCH   3  17
TORSDOF 5
