REMARK  Name = ZINCrD000000Aiz3.0
REMARK                            x       y       z     vdW  Elec       q    Type
REMARK                         _______ _______ _______ _____ _____    ______ ____
ROOT
ATOM      1  C   LIG    1       -3.231   2.486   0.919  0.00  0.00    +0.230 C 
ATOM      2  C   LIG    1       -3.034   0.971   0.828  0.00  0.00    +0.010 C 
ATOM      3  C   LIG    1       -1.644   0.675   0.255  0.00  0.00    +0.270 C 
ATOM      4  N   LIG    1       -1.495   1.384  -1.023  0.00  0.00    -0.610 N 
ATOM      5  C   LIG    1       -1.749   2.830  -1.062  0.00  0.00    +0.300 C 
ATOM      6  C   LIG    1       -1.132   0.720  -2.138  0.00  0.00    +0.570 C 
ATOM      7  O   LIG    1       -1.111   1.296  -3.209  0.00  0.00    -0.520 OA
ATOM      8  C   LIG    1       -3.139   3.103  -0.478  0.00  0.00    +0.030 C 
ENDROOT
BRANCH   6   9
ATOM      9  C   LIG    1       -0.759  -0.708  -2.060  0.00  0.00    -0.120 A 
ATOM     10  C   LIG    1       -1.085  -1.575  -3.104  0.00  0.00    +0.110 A 
ATOM     11  C   LIG    1       -0.735  -2.906  -3.027  0.00  0.00    +0.030 A 
ATOM     12  C   LIG    1       -0.061  -3.386  -1.916  0.00  0.00    +0.090 A 
ATOM     13  C   LIG    1        0.267  -2.528  -0.874  0.00  0.00    +0.060 A 
ATOM     14  F   LIG    1        0.925  -3.001   0.208  0.00  0.00    -0.120 F 
ATOM     15  F   LIG    1        0.279  -4.691  -1.845  0.00  0.00    -0.120 F 
ATOM     16  C   LIG    1       -0.074  -1.193  -0.943  0.00  0.00    +0.060 A 
ENDBRANCH   6   9
BRANCH   1  19
ATOM     17  O   LIG    1       -3.762   2.581   3.560  0.00  0.00    -0.540 OA
ATOM     18  C   LIG    1       -4.708   2.797   2.832  0.00  0.00    +0.510 C 
ATOM     19  N   LIG    1       -4.547   2.773   1.494  0.00  0.00    -0.730 N 
ATOM     20  H   LIG    1       -5.304   2.945   0.911  0.00  0.00    +0.400 HD
BRANCH  18  21
ATOM     21  C   LIG    1       -6.062   3.092   3.423  0.00  0.00    +0.060 C 
BRANCH  21  22
ATOM     22  C   LIG    1       -5.971   3.058   4.950  0.00  0.00    +0.100 C 
BRANCH  22  23
ATOM     23  C   LIG    1       -7.325   3.353   5.541  0.00  0.00    -0.090 A 
ATOM     24  C   LIG    1       -7.685   4.657   5.828  0.00  0.00    +0.000 A 
ATOM     25  C   LIG    1       -8.930   4.928   6.365  0.00  0.00    +0.000 A 
ATOM     26  C   LIG    1       -9.810   3.894   6.626  0.00  0.00    +0.000 A 
ATOM     27  C   LIG    1       -9.448   2.590   6.345  0.00  0.00    +0.000 A 
ATOM     28  C   LIG    1       -8.205   2.320   5.802  0.00  0.00    +0.000 A 
ENDBRANCH  22  23
ENDBRANCH  21  22
ENDBRANCH  18  21
ENDBRANCH   1  19
TORSDOF 5
