REMARK  Name = ZINCrH000004skxy.0
REMARK                            x       y       z     vdW  Elec       q    Type
REMARK                         _______ _______ _______ _____ _____    ______ ____
ROOT
ATOM      1  C   LIG    1        1.379   1.257   2.366  0.00  0.00    +0.520 C 
ATOM      2  N   LIG    1        2.132   1.171   3.480  0.00  0.00    -0.660 N 
ATOM      3  H   LIG    1        3.052   0.868   3.422  0.00  0.00    +0.420 HD
ATOM      4  O   LIG    1        0.203   1.542   2.449  0.00  0.00    -0.500 OA
ENDROOT
BRANCH   2   5
ATOM      5  C   LIG    1        1.586   1.520   4.723  0.00  0.00    +0.150 A 
ATOM      6  C   LIG    1        1.991   0.853   5.870  0.00  0.00    +0.010 A 
ATOM      7  C   LIG    1        1.454   1.196   7.097  0.00  0.00    +0.060 A 
ATOM      8  C   LIG    1        0.511   2.206   7.184  0.00  0.00    +0.020 A 
ATOM      9  O   LIG    1       -0.160   2.727   8.254  0.00  0.00    -0.300 OA
ATOM     10  C   LIG    1       -0.677   3.993   7.805  0.00  0.00    +0.260 C 
ATOM     11  O   LIG    1       -0.824   3.817   6.383  0.00  0.00    -0.300 OA
ATOM     12  C   LIG    1       -2.031   4.286   8.454  0.00  0.00    +0.110 C 
ATOM     13  C   LIG    1        0.316   5.117   8.107  0.00  0.00    +0.070 C 
ATOM     14  C   LIG    1        0.102   2.877   6.034  0.00  0.00    +0.060 A 
ATOM     15  C   LIG    1        0.644   2.537   4.807  0.00  0.00    +0.050 A 
ENDBRANCH   2   5
BRANCH   1  16
ATOM     16  C   LIG    1        1.999   0.999   1.016  0.00  0.00    +0.080 C 
BRANCH  16  17
ATOM     17  C   LIG    1        0.951   1.221  -0.077  0.00  0.00    +0.200 C 
BRANCH  17  22
ATOM     18  C   LIG    1       -3.361  -0.975  -1.175  0.00  0.00    +0.160 C 
ATOM     19  C   LIG    1       -2.102  -0.773  -0.373  0.00  0.00    +0.070 A 
ATOM     20  C   LIG    1       -1.796  -1.520   0.692  0.00  0.00    -0.070 A 
ATOM     21  S   LIG    1       -0.249  -0.958   1.322  0.00  0.00    +0.170 S 
ATOM     22  C   LIG    1       -0.172   0.231   0.096  0.00  0.00    -0.010 A 
ATOM     23  N   LIG    1       -1.212   0.154  -0.664  0.00  0.00    -0.430 NA
ENDBRANCH  17  22
BRANCH  17  24
ATOM     24  C   LIG    1        1.597   1.025  -1.450  0.00  0.00    +0.480 C 
ATOM     25  F   LIG    1        0.621   1.142  -2.445  0.00  0.00    -0.150 F 
ATOM     26  F   LIG    1        2.180  -0.245  -1.514  0.00  0.00    -0.170 F 
ATOM     27  F   LIG    1        2.582   2.000  -1.645  0.00  0.00    -0.170 F 
ENDBRANCH  17  24
BRANCH  17  28
ATOM     28  O   LIG    1        0.434   2.549   0.021  0.00  0.00    -0.520 OA
ATOM     29  H   LIG    1        0.009   2.744   0.868  0.00  0.00    +0.410 HD
ENDBRANCH  17  28
ENDBRANCH  16  17
ENDBRANCH   1  16
TORSDOF 6
