REMARK  Name = ZINCpe000000YC04.0
REMARK                            x       y       z     vdW  Elec       q    Type
REMARK                         _______ _______ _______ _____ _____    ______ ____
ROOT
ATOM      1  N   LIG    1       -0.721   1.571  -1.179  0.00  0.00    -0.710 N 
ATOM      2  H   LIG    1       -1.263   2.374  -1.126  0.00  0.00    +0.400 HD
ATOM      3  C   LIG    1       -0.620   0.902  -2.344  0.00  0.00    +0.520 C 
ATOM      4  O   LIG    1        0.057  -0.102  -2.411  0.00  0.00    -0.490 OA
ENDROOT
BRANCH   1   5
ATOM      5  C   LIG    1       -0.013   1.086   0.008  0.00  0.00    +0.290 C 
BRANCH   5   6
ATOM      6  C   LIG    1       -0.718   1.572   1.248  0.00  0.00    -0.100 A 
ATOM      7  C   LIG    1       -1.223   2.858   1.297  0.00  0.00    +0.010 A 
ATOM      8  C   LIG    1       -1.874   3.302   2.433  0.00  0.00    +0.020 A 
ATOM      9  C   LIG    1       -2.012   2.463   3.523  0.00  0.00    +0.020 A 
ATOM     10  C   LIG    1       -1.502   1.179   3.476  0.00  0.00    +0.020 A 
ATOM     11  C   LIG    1       -0.855   0.734   2.339  0.00  0.00    +0.020 A 
ENDBRANCH   5   6
BRANCH   5  15
ATOM     12  N   LIG    1        2.245   1.288   0.998  0.00  0.00    -0.850 N 
ATOM     13  H   LIG    1        3.155   1.623   0.992  0.00  0.00    +0.400 HD
ATOM     14  H   LIG    1        1.942   0.722   1.726  0.00  0.00    +0.400 HD
ATOM     15  C   LIG    1        1.401   1.607  -0.003  0.00  0.00    +0.510 C 
ATOM     16  O   LIG    1        1.780   2.315  -0.912  0.00  0.00    -0.530 OA
ENDBRANCH   5  15
ENDBRANCH   1   5
BRANCH   3  17
ATOM     17  C   LIG    1       -1.349   1.401  -3.565  0.00  0.00    +0.180 C 
BRANCH  17  18
ATOM     18  C   LIG    1       -1.073   0.481  -4.727  0.00  0.00    +0.120 A 
ATOM     19  N   LIG    1       -0.303  -0.554  -4.567  0.00  0.00    -0.160 NA
ATOM     20  N   LIG    1       -0.009  -1.441  -5.602  0.00  0.00    -0.540 N 
ATOM     21  H   LIG    1        0.572  -2.197  -5.425  0.00  0.00    +0.440 HD
ATOM     22  C   LIG    1       -0.512  -1.276  -6.843  0.00  0.00    +0.530 A 
ATOM     23  C   LIG    1       -1.391  -0.129  -7.102  0.00  0.00    -0.130 A 
ATOM     24  C   LIG    1       -1.946   0.106  -8.359  0.00  0.00    +0.090 A 
ATOM     25  C   LIG    1       -2.764   1.199  -8.547  0.00  0.00    +0.030 A 
ATOM     26  C   LIG    1       -3.039   2.067  -7.498  0.00  0.00    +0.050 A 
ATOM     27  C   LIG    1       -2.502   1.855  -6.248  0.00  0.00    +0.040 A 
ATOM     28  O   LIG    1       -0.242  -2.064  -7.732  0.00  0.00    -0.520 OA
ATOM     29  C   LIG    1       -1.676   0.750  -6.032  0.00  0.00    -0.050 A 
ENDBRANCH  17  18
ENDBRANCH   3  17
TORSDOF 5
