REMARK  Name = ZINCtV000002BkfV.0
REMARK                            x       y       z     vdW  Elec       q    Type
REMARK                         _______ _______ _______ _____ _____    ______ ____
ROOT
ATOM      1  C   LIG    1        1.154   3.171   0.007  0.00  0.00    +0.150 A 
ATOM      2  C   LIG    1       -0.030   3.873   0.022  0.00  0.00    -0.010 A 
ATOM      3  C   LIG    1       -1.249   3.176   0.031  0.00  0.00    +0.190 A 
ATOM      4  N   LIG    1       -2.414   3.835   0.045  0.00  0.00    -0.490 NA
ATOM      5  C   LIG    1       -3.570   3.199   0.053  0.00  0.00    +0.160 A 
ATOM      6  C   LIG    1       -3.638   1.802   0.047  0.00  0.00    -0.020 A 
ATOM      7  C   LIG    1       -2.469   1.060   0.032  0.00  0.00    +0.050 A 
ATOM      8  C   LIG    1       -1.234   1.761   0.017  0.00  0.00    -0.130 A 
ATOM      9  C   LIG    1       -0.013   1.076   0.008  0.00  0.00    +0.090 A 
ATOM     10  C   LIG    1        1.157   1.774   0.001  0.00  0.00    -0.050 A 
ENDROOT
BRANCH   7  11
ATOM     11  C   LIG    1       -2.505  -0.421   0.026  0.00  0.00    -0.060 A 
ATOM     12  C   LIG    1       -1.760  -1.136  -0.913  0.00  0.00    +0.030 A 
ATOM     13  C   LIG    1       -1.794  -2.515  -0.910  0.00  0.00    +0.010 A 
ATOM     14  C   LIG    1       -2.572  -3.189   0.014  0.00  0.00    +0.020 A 
ATOM     15  C   LIG    1       -3.317  -2.486   0.944  0.00  0.00    +0.010 A 
ATOM     16  C   LIG    1       -3.287  -1.107   0.955  0.00  0.00    +0.030 A 
ENDBRANCH   7  11
BRANCH   1  18
ATOM     17  C   LIG    1        3.529   3.061  -0.016  0.00  0.00    +0.240 C 
ATOM     18  O   LIG    1        2.334   3.845  -0.001  0.00  0.00    -0.310 OA
ENDBRANCH   1  18
BRANCH   5  19
ATOM     19  S   LIG    1       -5.064   4.132   0.073  0.00  0.00    -0.020 S 
BRANCH  19  20
ATOM     20  C   LIG    1       -4.387   5.811   0.075  0.00  0.00    +0.220 C 
BRANCH  20  21
ATOM     21  C   LIG    1       -5.516   6.808   0.091  0.00  0.00    +0.090 A 
ATOM     22  N   LIG    1       -6.049   7.275   1.156  0.00  0.00    -0.450 NA
ATOM     23  C   LIG    1       -7.050   8.165   1.020  0.00  0.00    +0.080 A 
ATOM     24  C   LIG    1       -7.801   8.832   2.009  0.00  0.00    +0.080 A 
ATOM     25  C   LIG    1       -8.788   9.702   1.655  0.00  0.00    +0.030 A 
ATOM     26  C   LIG    1       -9.073   9.948   0.320  0.00  0.00    +0.040 A 
ATOM     27  C   LIG    1       -8.355   9.311  -0.667  0.00  0.00    +0.060 A 
ATOM     28  C   LIG    1       -7.342   8.418  -0.325  0.00  0.00    -0.180 A 
ATOM     29  S   LIG    1       -6.249   7.451  -1.310  0.00  0.00    +0.130 S 
ENDBRANCH  20  21
ENDBRANCH  19  20
ENDBRANCH   5  19
TORSDOF 5
