REMARK  Name = ZINCb80000004h1t.0
REMARK                            x       y       z     vdW  Elec       q    Type
REMARK                         _______ _______ _______ _____ _____    ______ ____
ROOT
ATOM      1  C   LIG    1       -0.013   1.086   0.008  0.00  0.00    +0.200 C 
ENDROOT
BRANCH   1   5
ATOM      2  C   LIG    1       -0.927   1.718   3.671  0.00  0.00    +0.290 C 
ATOM      3  N   LIG    1       -0.242   1.246   2.466  0.00  0.00    -0.740 N 
ATOM      4  H   LIG    1        0.555   0.699   2.544  0.00  0.00    +0.400 HD
ATOM      5  C   LIG    1       -0.718   1.572   1.248  0.00  0.00    +0.510 C 
ATOM      6  O   LIG    1       -1.714   2.256   1.150  0.00  0.00    -0.510 OA
ENDBRANCH   1   5
BRANCH   1   7
ATOM      7  O   LIG    1       -0.704   1.559  -1.150  0.00  0.00    -0.350 OA
BRANCH   7   8
ATOM      8  C   LIG    1       -0.114   1.152  -2.386  0.00  0.00    +0.220 C 
BRANCH   8   9
ATOM      9  C   LIG    1       -0.932   1.713  -3.551  0.00  0.00    +0.040 C 
ATOM     10  C   LIG    1       -1.717   0.717  -4.406  0.00  0.00    +0.040 C 
ATOM     11  F   LIG    1       -1.504   2.972  -3.336  0.00  0.00    -0.170 F 
ATOM     12  C   LIG    1       -0.460   1.385  -4.968  0.00  0.00    +0.040 C 
ENDBRANCH   8   9
ENDBRANCH   7   8
ENDBRANCH   1   7
TORSDOF 4
