REMARK  Name = ZINCrg00000SjSHs.0
REMARK                            x       y       z     vdW  Elec       q    Type
REMARK                         _______ _______ _______ _____ _____    ______ ____
ROOT
ATOM      1  C   LIG    1        0.002  -0.004   0.002  0.00  0.00    +0.220 C 
ENDROOT
BRANCH   1   2
ATOM      2  C   LIG    1       -1.388  -0.527   0.259  0.00  0.00    +0.520 C 
ATOM      3  N   LIG    1       -1.612  -1.855   0.297  0.00  0.00    -0.620 N 
ATOM      4  C   LIG    1       -0.512  -2.806   0.083  0.00  0.00    +0.270 C 
ATOM      5  C   LIG    1       -0.452  -3.759   1.289  0.00  0.00    +0.270 C 
ATOM      6  N   LIG    1       -1.802  -4.283   1.539  0.00  0.00    -0.610 N 
ATOM      7  C   LIG    1       -2.904  -3.332   1.747  0.00  0.00    +0.280 C 
ATOM      8  C   LIG    1       -2.027  -5.611   1.575  0.00  0.00    +0.550 C 
ATOM      9  O   LIG    1       -3.145  -6.032   1.782  0.00  0.00    -0.530 OA
ATOM     10  C   LIG    1       -2.962  -2.379   0.547  0.00  0.00    +0.280 C 
ATOM     11  O   LIG    1       -2.305   0.248   0.432  0.00  0.00    -0.510 OA
BRANCH   8  12
ATOM     12  C   LIG    1       -0.887  -6.574   1.360  0.00  0.00    -0.070 C 
ATOM     13  C   LIG    1       -0.896  -7.401   0.073  0.00  0.00    +0.060 C 
ATOM     14  C   LIG    1       -1.206  -8.069   1.414  0.00  0.00    +0.070 C 
ENDBRANCH   8  12
ENDBRANCH   1   2
BRANCH   1  19
ATOM     15  C   LIG    1        1.290   3.531   0.155  0.00  0.00    +0.070 C 
ATOM     16  C   LIG    1        0.473   4.127  -0.995  0.00  0.00    +0.020 C 
ATOM     17  C   LIG    1       -0.927   3.507  -0.991  0.00  0.00    +0.040 C 
ATOM     18  C   LIG    1       -0.806   1.987  -1.113  0.00  0.00    +0.180 C 
ATOM     19  N   LIG    1       -0.018   1.465   0.010  0.00  0.00    -0.520 NA
ATOM     20  C   LIG    1        1.346   2.010   0.000  0.00  0.00    +0.190 C 
BRANCH  15  26
ATOM     21  C   LIG    1        5.281   5.056   2.534  0.00  0.00    +0.180 C 
ATOM     22  C   LIG    1        4.568   4.810   1.230  0.00  0.00    +0.320 A 
ATOM     23  N   LIG    1        5.185   5.091   0.099  0.00  0.00    -0.520 NA
ATOM     24  C   LIG    1        4.591   4.888  -1.066  0.00  0.00    +0.320 A 
ATOM     25  C   LIG    1        3.306   4.370  -1.086  0.00  0.00    -0.080 A 
ATOM     26  C   LIG    1        2.688   4.092   0.123  0.00  0.00    +0.190 A 
ATOM     27  N   LIG    1        3.345   4.321   1.249  0.00  0.00    -0.520 NA
ENDBRANCH  15  26
ENDBRANCH   1  19
TORSDOF 4
