REMARK  Name = ZINCpe000000SyRE.0
REMARK                            x       y       z     vdW  Elec       q    Type
REMARK                         _______ _______ _______ _____ _____    ______ ____
ROOT
ATOM      1  C   LIG    1       -1.330   1.944   0.019  0.00  0.00    +0.040 C 
ENDROOT
BRANCH   1  10
ATOM      2  C   LIG    1        3.904   5.297   1.350  0.00  0.00    +0.090 C 
ATOM      3  C   LIG    1        3.823   3.895   1.899  0.00  0.00    +0.510 C 
ATOM      4  N   LIG    1        2.646   3.238   1.897  0.00  0.00    -0.600 N 
ATOM      5  C   LIG    1        2.534   1.916   2.407  0.00  0.00    +0.250 C 
ATOM      6  C   LIG    1        2.921   0.792   1.392  0.00  0.00    +0.010 C 
ATOM      7  C   LIG    1        2.401   1.237  -0.008  0.00  0.00    +0.250 C 
ATOM      8  N   LIG    1        1.143   1.898   0.001  0.00  0.00    -0.600 N 
ATOM      9  C   LIG    1        1.162   3.384   0.009  0.00  0.00    +0.270 C 
ATOM     10  C   LIG    1       -0.014   1.209   0.009  0.00  0.00    +0.520 C 
ATOM     11  O   LIG    1        0.002  -0.004   0.002  0.00  0.00    -0.530 OA
ATOM     12  C   LIG    1        1.409   3.864   1.364  0.00  0.00    +0.270 C 
ATOM     13  O   LIG    1        4.817   3.359   2.341  0.00  0.00    -0.530 OA
ENDBRANCH   1  10
BRANCH   1  14
ATOM     14  C   LIG    1       -2.479   0.934   0.019  0.00  0.00    +0.330 C 
BRANCH  14  15
ATOM     15  N   LIG    1       -3.757   1.649   0.029  0.00  0.00    -0.550 N 
ATOM     16  C   LIG    1       -4.342   1.967   1.214  0.00  0.00    +0.570 A 
ATOM     17  N   LIG    1       -5.470   2.603   1.306  0.00  0.00    -0.520 NA
ATOM     18  C   LIG    1       -6.159   2.992   0.204  0.00  0.00    +0.150 A 
ATOM     19  C   LIG    1       -7.375   3.671   0.302  0.00  0.00    +0.030 A 
ATOM     20  C   LIG    1       -8.041   4.046  -0.844  0.00  0.00    +0.070 A 
ATOM     21  C   LIG    1       -7.519   3.757  -2.097  0.00  0.00    -0.010 A 
ATOM     22  C   LIG    1       -6.320   3.088  -2.220  0.00  0.00    +0.100 A 
ATOM     23  C   LIG    1       -5.630   2.700  -1.073  0.00  0.00    -0.200 A 
ATOM     24  C   LIG    1       -4.348   1.983  -1.142  0.00  0.00    +0.550 A 
ATOM     25  O   LIG    1       -3.838   1.701  -2.211  0.00  0.00    -0.510 OA
ENDBRANCH  14  15
ENDBRANCH   1  14
TORSDOF 3
