REMARK  Name = ZINCrg000000pKqa.0
REMARK                            x       y       z     vdW  Elec       q    Type
REMARK                         _______ _______ _______ _____ _____    ______ ____
ROOT
ATOM      1  C   LIG    1       -0.374  -0.061   0.109  0.00  0.00    +0.360 C 
ENDROOT
BRANCH   1   2
ATOM      2  N   LIG    1        0.956  -0.673   0.137  0.00  0.00    -0.530 N 
ATOM      3  C   LIG    1        1.581  -0.981  -1.030  0.00  0.00    +0.620 A 
ATOM      4  N   LIG    1        2.761  -1.520  -1.088  0.00  0.00    -0.520 NA
ATOM      5  C   LIG    1        3.458  -1.827   0.035  0.00  0.00    +0.210 A 
ATOM      6  C   LIG    1        4.724  -2.412  -0.027  0.00  0.00    +0.060 A 
ATOM      7  C   LIG    1        5.396  -2.707   1.138  0.00  0.00    +0.150 A 
ATOM      8  C   LIG    1        4.830  -2.431   2.376  0.00  0.00    -0.070 A 
ATOM      9  C   LIG    1        3.582  -1.855   2.462  0.00  0.00    +0.200 A 
ATOM     10  C   LIG    1        2.885  -1.548   1.295  0.00  0.00    -0.200 A 
ATOM     11  C   LIG    1        1.550  -0.932   1.326  0.00  0.00    +0.560 A 
ATOM     12  O   LIG    1        1.000  -0.666   2.378  0.00  0.00    -0.480 OA
BRANCH   8  13
ATOM     13  N   LIG    1        5.574  -2.759   3.612  0.00  0.00    +0.030 N 
ATOM     14  O   LIG    1        6.678  -3.269   3.542  0.00  0.00    -0.150 OA
ATOM     15  O   LIG    1        5.082  -2.520   4.700  0.00  0.00    -0.160 OA
ENDBRANCH   8  13
ENDBRANCH   1   2
BRANCH   1  18
ATOM     16  N   LIG    1       -1.337   2.217   0.049  0.00  0.00    -0.700 N 
ATOM     17  H   LIG    1       -2.217   1.811   0.041  0.00  0.00    +0.410 HD
ATOM     18  C   LIG    1       -0.236   1.439   0.083  0.00  0.00    +0.510 C 
ATOM     19  O   LIG    1        0.865   1.947   0.088  0.00  0.00    -0.520 OA
BRANCH  16  20
ATOM     20  C   LIG    1       -1.202   3.676   0.024  0.00  0.00    +0.290 C 
BRANCH  20  21
ATOM     21  C   LIG    1       -1.058   4.191   1.433  0.00  0.00    +0.440 C 
ATOM     22  O   LIG    1       -1.067   3.419   2.362  0.00  0.00    -0.490 OA
BRANCH  21  24
ATOM     23  C   LIG    1       -0.786   5.932   3.037  0.00  0.00    +0.270 C 
ATOM     24  O   LIG    1       -0.920   5.507   1.655  0.00  0.00    -0.360 OA
ENDBRANCH  21  24
ENDBRANCH  20  21
BRANCH  20  25
ATOM     25  C   LIG    1       -2.446   4.291  -0.619  0.00  0.00    +0.060 C 
BRANCH  25  26
ATOM     26  C   LIG    1       -2.547   3.834  -2.076  0.00  0.00    -0.020 C 
ATOM     27  C   LIG    1       -1.374   4.409  -2.873  0.00  0.00    +0.020 C 
ATOM     28  C   LIG    1       -3.864   4.329  -2.677  0.00  0.00    +0.030 C 
ENDBRANCH  25  26
ENDBRANCH  20  25
ENDBRANCH  16  20
ENDBRANCH   1  18
TORSDOF 8
