REMARK  Name = ZINCrH000004sRc9.0
REMARK                            x       y       z     vdW  Elec       q    Type
REMARK                         _______ _______ _______ _____ _____    ______ ____
ROOT
ATOM      1  C   LIG    1        0.002  -0.004   0.002  0.00  0.00    +0.530 C 
ATOM      2  N   LIG    1       -1.156  -0.694   0.009  0.00  0.00    -0.570 N 
ATOM      3  C   LIG    1       -1.166  -2.166  -0.005  0.00  0.00    +0.290 C 
ATOM      4  C   LIG    1       -1.368  -2.692   1.405  0.00  0.00    -0.010 C 
ATOM      5  C   LIG    1       -2.713  -2.298   2.002  0.00  0.00    +0.220 C 
ATOM      6  N   LIG    1       -2.776  -0.861   2.272  0.00  0.00    -0.490 N 
ATOM      7  C   LIG    1       -3.219  -0.150   1.137  0.00  0.00    +0.080 A 
ATOM      8  C   LIG    1       -4.460   0.465   1.149  0.00  0.00    +0.100 A 
ATOM      9  C   LIG    1       -4.865   1.215   0.059  0.00  0.00    +0.010 A 
ATOM     10  C   LIG    1       -4.034   1.351  -1.040  0.00  0.00    +0.110 A 
ATOM     11  C   LIG    1       -2.797   0.727  -1.061  0.00  0.00    -0.020 A 
ATOM     12  F   LIG    1       -4.430   2.095  -2.096  0.00  0.00    -0.130 F 
ATOM     13  C   LIG    1       -1.477  -0.355   2.736  0.00  0.00    +0.210 C 
ATOM     14  C   LIG    1       -2.393  -0.034   0.025  0.00  0.00    +0.130 A 
ATOM     15  O   LIG    1        1.061  -0.596  -0.011  0.00  0.00    -0.510 OA
ENDROOT
BRANCH   1  16
ATOM     16  C   LIG    1       -0.018   1.503   0.010  0.00  0.00    +0.170 C 
BRANCH  16  19
ATOM     17  C   LIG    1        1.686   2.155  -2.526  0.00  0.00    +0.200 C 
ATOM     18  C   LIG    1        2.128   2.304  -1.093  0.00  0.00    -0.010 A 
ATOM     19  C   LIG    1        1.395   2.024  -0.000  0.00  0.00    +0.010 A 
ATOM     20  N   LIG    1        2.144   2.297   1.079  0.00  0.00    -0.440 NA
ATOM     21  C   LIG    1        3.320   2.728   0.676  0.00  0.00    +0.260 A 
ATOM     22  O   LIG    1        3.330   2.744  -0.670  0.00  0.00    -0.180 OA
BRANCH  21  23
ATOM     23  C   LIG    1        4.433   3.131   1.548  0.00  0.00    +0.050 A 
ATOM     24  C   LIG    1        5.652   3.579   1.135  0.00  0.00    +0.010 A 
ATOM     25  C   LIG    1        6.399   3.850   2.297  0.00  0.00    -0.060 A 
ATOM     26  C   LIG    1        5.613   3.551   3.351  0.00  0.00    +0.210 A 
ATOM     27  O   LIG    1        4.427   3.117   2.896  0.00  0.00    -0.150 OA
ENDBRANCH  21  23
ENDBRANCH  16  19
ENDBRANCH   1  16
TORSDOF 3
