REMARK  Name = ZINCrD000000fRWd.0
REMARK                            x       y       z     vdW  Elec       q    Type
REMARK                         _______ _______ _______ _____ _____    ______ ____
ROOT
ATOM      1  N   LIG    1       -0.208  -7.537   0.325  0.00  0.00    -0.620 N 
ATOM      2  H   LIG    1       -1.116  -7.263   0.529  0.00  0.00    +0.430 HD
ATOM      3  C   LIG    1        0.770  -6.614   0.232  0.00  0.00    +0.520 C 
ATOM      4  O   LIG    1        1.905  -6.957  -0.023  0.00  0.00    -0.490 OA
ENDROOT
BRANCH   1   8
ATOM      5  C   LIG    1        0.999 -11.127  -0.286  0.00  0.00    -0.390 A 
ATOM      6  C   LIG    1       -0.358 -11.059  -0.015  0.00  0.00    +0.230 A 
ATOM      7  N   LIG    1       -0.790  -9.835   0.197  0.00  0.00    -0.510 NA
ATOM      8  C   LIG    1        0.082  -8.874   0.129  0.00  0.00    +0.250 A 
ATOM      9  S   LIG    1        1.635  -9.484  -0.243  0.00  0.00    +0.320 S 
BRANCH   6  10
ATOM     10  C   LIG    1       -1.237 -12.250   0.030  0.00  0.00    -0.040 A 
ATOM     11  C   LIG    1       -2.471 -12.234  -0.620  0.00  0.00    +0.040 A 
ATOM     12  C   LIG    1       -3.283 -13.349  -0.579  0.00  0.00    +0.000 A 
ATOM     13  C   LIG    1       -2.881 -14.476   0.115  0.00  0.00    +0.020 A 
ATOM     14  C   LIG    1       -1.661 -14.495   0.767  0.00  0.00    +0.000 A 
ATOM     15  C   LIG    1       -0.837 -13.389   0.729  0.00  0.00    +0.070 A 
ENDBRANCH   6  10
BRANCH   5  17
ATOM     16  C   LIG    1        3.235 -12.226  -0.681  0.00  0.00    +0.070 C 
ATOM     17  C   LIG    1        1.735 -12.294  -0.551  0.00  0.00    +0.420 C 
ATOM     18  O   LIG    1        1.162 -13.358  -0.676  0.00  0.00    -0.450 OA
ENDBRANCH   5  17
ENDBRANCH   1   8
BRANCH   3  19
ATOM     19  C   LIG    1        0.453  -5.157   0.446  0.00  0.00    +0.090 C 
BRANCH  19  20
ATOM     20  C   LIG    1        1.730  -4.329   0.285  0.00  0.00    +0.310 C 
BRANCH  20  21
ATOM     21  N   LIG    1        1.422  -2.911   0.493  0.00  0.00    -0.720 N 
ATOM     22  H   LIG    1        0.514  -2.637   0.697  0.00  0.00    +0.410 HD
ATOM     23  C   LIG    1        2.400  -1.989   0.400  0.00  0.00    +0.610 C 
ATOM     24  O   LIG    1        3.539  -2.333   0.144  0.00  0.00    -0.510 OA
BRANCH  23  25
ATOM     25  C   LIG    1        2.092  -0.570   0.608  0.00  0.00    -0.090 A 
ATOM     26  C   LIG    1        2.983   0.462   0.544  0.00  0.00    +0.050 A 
ATOM     27  C   LIG    1        2.261   1.637   0.807  0.00  0.00    -0.060 A 
ATOM     28  C   LIG    1        0.976   1.274   1.018  0.00  0.00    +0.210 A 
ATOM     29  O   LIG    1        0.878  -0.056   0.897  0.00  0.00    -0.170 OA
ENDBRANCH  23  25
ENDBRANCH  20  21
ENDBRANCH  19  20
ENDBRANCH   3  19
TORSDOF 7
