REMARK  Name = ZINCtV00000XPmbG.0
REMARK                            x       y       z     vdW  Elec       q    Type
REMARK                         _______ _______ _______ _____ _____    ______ ____
ROOT
ATOM      1  C   LIG    1       -0.433  -6.369  -0.028  0.00  0.00    +0.290 A 
ATOM      2  N   LIG    1       -0.314  -7.131   1.035  0.00  0.00    -0.310 NA
ATOM      3  N   LIG    1       -0.128  -8.446   0.578  0.00  0.00    -0.510 N 
ATOM      4  H   LIG    1       -0.009  -9.239   1.123  0.00  0.00    +0.440 HD
ATOM      5  C   LIG    1       -0.148  -8.388  -0.772  0.00  0.00    +0.540 A 
ATOM      6  N   LIG    1       -0.337  -7.136  -1.124  0.00  0.00    -0.570 NA
ENDROOT
BRANCH   1  10
ATOM      7  C   LIG    1       -1.044  -2.161   0.000  0.00  0.00    -0.080 A 
ATOM      8  C   LIG    1       -0.962  -2.837  -1.203  0.00  0.00    +0.030 A 
ATOM      9  C   LIG    1       -0.758  -4.202  -1.219  0.00  0.00    +0.060 A 
ATOM     10  C   LIG    1       -0.646  -4.901  -0.018  0.00  0.00    -0.000 A 
ATOM     11  C   LIG    1       -0.735  -4.215   1.192  0.00  0.00    +0.050 A 
ATOM     12  C   LIG    1       -0.933  -2.849   1.195  0.00  0.00    +0.030 A 
BRANCH   7  13
ATOM     13  C   LIG    1       -1.262  -0.670   0.011  0.00  0.00    +0.260 C 
BRANCH  13  14
ATOM     14  O   LIG    1        0.002  -0.004   0.002  0.00  0.00    -0.300 OA
BRANCH  14  19
ATOM     15 CL   LIG    1       -0.077   5.857   0.033  0.00  0.00    -0.070 Cl
ATOM     16  C   LIG    1       -0.054   4.122   0.024  0.00  0.00    -0.070 A 
ATOM     17  C   LIG    1        1.154   3.447   0.009  0.00  0.00    +0.070 A 
ATOM     18  C   LIG    1        1.175   2.066   0.002  0.00  0.00    +0.000 A 
ATOM     19  C   LIG    1       -0.016   1.355   0.009  0.00  0.00    +0.140 A 
ATOM     20  C   LIG    1       -1.226   2.033   0.019  0.00  0.00    -0.060 A 
ATOM     21  C   LIG    1       -1.243   3.414   0.031  0.00  0.00    +0.070 A 
ENDBRANCH  14  19
ENDBRANCH  13  14
ENDBRANCH   7  13
ENDBRANCH   1  10
BRANCH   5  22
ATOM     22  N   LIG    1       -0.000  -9.461  -1.633  0.00  0.00    -0.700 N 
ATOM     23  H   LIG    1       -0.029  -9.320  -2.592  0.00  0.00    +0.430 HD
BRANCH  22  24
ATOM     24  C   LIG    1        0.199 -10.809  -1.096  0.00  0.00    +0.320 C 
BRANCH  24  25
ATOM     25  C   LIG    1        0.331 -11.789  -2.233  0.00  0.00    -0.100 A 
ATOM     26  C   LIG    1       -0.793 -12.413  -2.741  0.00  0.00    +0.050 A 
ATOM     27  C   LIG    1       -0.673 -13.307  -3.788  0.00  0.00    +0.050 A 
ATOM     28  C   LIG    1        0.573 -13.586  -4.321  0.00  0.00    -0.080 A 
ATOM     29  C   LIG    1        1.698 -12.965  -3.809  0.00  0.00    +0.050 A 
ATOM     30 BR   LIG    1        0.739 -14.815  -5.748  0.00  0.00    -0.040 Br
ATOM     31  C   LIG    1        1.577 -12.066  -2.765  0.00  0.00    +0.050 A 
ENDBRANCH  24  25
ENDBRANCH  22  24
ENDBRANCH   5  22
TORSDOF 7
