REMARK  Name = ZINCvU00000005Gs.0
REMARK                            x       y       z     vdW  Elec       q    Type
REMARK                         _______ _______ _______ _____ _____    ______ ____
ROOT
ATOM      1  C   LIG    1       -0.210   1.218  -2.368  0.00  0.00    +0.520 C 
ATOM      2  O   LIG    1        0.783   0.521  -2.429  0.00  0.00    -0.490 OA
ENDROOT
BRANCH   1   3
ATOM      3  C   LIG    1       -0.872   1.672  -3.608  0.00  0.00    -0.070 A 
ATOM      4  C   LIG    1       -2.069   2.369  -3.573  0.00  0.00    +0.070 A 
ATOM      5  C   LIG    1       -2.664   2.782  -4.779  0.00  0.00    +0.230 A 
ATOM      6  N   LIG    1       -2.121   2.528  -5.953  0.00  0.00    -0.440 NA
ATOM      7  C   LIG    1       -0.971   1.863  -6.079  0.00  0.00    +0.130 A 
ATOM      8  C   LIG    1       -0.415   1.608  -7.345  0.00  0.00    +0.050 A 
ATOM      9  C   LIG    1        0.768   0.941  -7.441  0.00  0.00    +0.040 A 
ATOM     10  C   LIG    1        1.434   0.490  -6.304  0.00  0.00    +0.030 A 
ATOM     11  C   LIG    1        0.922   0.716  -5.060  0.00  0.00    +0.050 A 
ATOM     12  C   LIG    1       -0.286   1.407  -4.924  0.00  0.00    -0.060 A 
BRANCH   5  13
ATOM     13  C   LIG    1       -3.938   3.524  -4.728  0.00  0.00    -0.170 A 
ATOM     14  C   LIG    1       -4.616   3.984  -5.801  0.00  0.00    +0.070 A 
ATOM     15  C   LIG    1       -5.787   4.645  -5.502  0.00  0.00    +0.010 A 
ATOM     16  C   LIG    1       -6.068   4.740  -4.198  0.00  0.00    -0.030 A 
ATOM     17  S   LIG    1       -4.806   3.952  -3.259  0.00  0.00    +0.150 S 
ENDBRANCH   5  13
ENDBRANCH   1   3
BRANCH   1  18
ATOM     18  O   LIG    1       -0.707   1.578  -1.168  0.00  0.00    -0.330 OA
BRANCH  18  19
ATOM     19  C   LIG    1       -0.005   1.096   0.008  0.00  0.00    +0.240 C 
BRANCH  19  20
ATOM     20  C   LIG    1       -0.701   1.596   1.248  0.00  0.00    +0.400 C 
ATOM     21  O   LIG    1       -1.692   2.290   1.150  0.00  0.00    -0.410 OA
BRANCH  20  25
ATOM     22  C   LIG    1        0.805   0.573   5.073  0.00  0.00    +0.210 A 
ATOM     23  C   LIG    1        1.442   0.114   3.923  0.00  0.00    -0.110 A 
ATOM     24  C   LIG    1        0.958   0.438   2.689  0.00  0.00    +0.140 A 
ATOM     25  C   LIG    1       -0.182   1.244   2.571  0.00  0.00    -0.240 A 
ATOM     26  C   LIG    1       -0.829   1.708   3.731  0.00  0.00    +0.230 A 
ATOM     27  C   LIG    1       -0.329   1.368   4.976  0.00  0.00    -0.110 A 
BRANCH  22  29
ATOM     28  C   LIG    1        2.463  -0.581   6.323  0.00  0.00    +0.250 C 
ATOM     29  O   LIG    1        1.293   0.240   6.294  0.00  0.00    -0.310 OA
ENDBRANCH  22  29
BRANCH  26  30
ATOM     30  O   LIG    1       -1.936   2.485   3.630  0.00  0.00    -0.280 OA
ATOM     31  C   LIG    1       -2.538   2.918   4.851  0.00  0.00    +0.250 C 
ENDBRANCH  26  30
ENDBRANCH  20  25
ENDBRANCH  19  20
ENDBRANCH  18  19
ENDBRANCH   1  18
TORSDOF 8
