REMARK  Name = ZINCbu0000000GxN.0
REMARK                            x       y       z     vdW  Elec       q    Type
REMARK                         _______ _______ _______ _____ _____    ______ ____
ROOT
ATOM      1  C   LIG    1       -0.085   1.078   1.891  0.00  0.00    +0.000 C 
ATOM      2  C   LIG    1        0.729   0.361   0.812  0.00  0.00    +0.050 C 
ATOM      3  C   LIG    1        0.234   0.793  -0.570  0.00  0.00    +0.020 C 
ATOM      4  C   LIG    1        0.404   2.306  -0.723  0.00  0.00    +0.000 C 
ATOM      5  C   LIG    1       -0.409   3.022   0.356  0.00  0.00    +0.040 C 
ATOM      6  C   LIG    1       -0.091   2.737  -2.105  0.00  0.00    +0.040 C 
ATOM      7  C   LIG    1        0.085   2.591   1.738  0.00  0.00    +0.170 C 
ENDROOT
BRANCH   7   8
ATOM      8  N   LIG    1       -0.696   3.278   2.775  0.00  0.00    -0.640 N 
ATOM      9  H   LIG    1       -0.314   4.199   2.929  0.00  0.00    +0.430 HD
ATOM     10  H   LIG    1       -0.655   2.750   3.634  0.00  0.00    +0.430 HD
ATOM     11  H   LIG    1       -1.656   3.358   2.475  0.00  0.00    +0.430 HD
ENDBRANCH   7   8
BRANCH   1  13
ATOM     12  C   LIG    1       -1.712  -0.810   1.713  0.00  0.00    +0.040 C 
ATOM     13  C   LIG    1       -1.563   0.713   1.742  0.00  0.00    -0.020 C 
ATOM     14  C   LIG    1       -2.350   1.280   2.925  0.00  0.00    +0.020 C 
ENDBRANCH   1  13
TORSDOF 2
