REMARK  Name = ZINCrg00000fSaLu.0
REMARK                            x       y       z     vdW  Elec       q    Type
REMARK                         _______ _______ _______ _____ _____    ______ ____
ROOT
ATOM      1  N   LIG    1       -4.365   4.168   8.610  0.00  0.00    -0.720 N 
ATOM      2  H   LIG    1       -3.627   4.356   9.212  0.00  0.00    +0.400 HD
ATOM      3  C   LIG    1       -4.123   3.667   7.383  0.00  0.00    +0.530 C 
ATOM      4  O   LIG    1       -5.045   3.432   6.631  0.00  0.00    -0.530 OA
ENDROOT
BRANCH   3   5
ATOM      5  C   LIG    1       -2.706   3.396   6.945  0.00  0.00    -0.010 C 
ATOM      6  C   LIG    1       -1.916   4.715   6.780  0.00  0.00    +0.080 C 
ATOM      7  C   LIG    1       -1.027   4.466   5.582  0.00  0.00    +0.520 C 
ATOM      8  N   LIG    1       -1.473   3.403   4.889  0.00  0.00    -0.620 N 
ATOM      9  O   LIG    1       -0.056   5.129   5.287  0.00  0.00    -0.520 OA
ATOM     10  C   LIG    1       -2.671   2.826   5.510  0.00  0.00    +0.300 C 
BRANCH   8  11
ATOM     11  C   LIG    1       -0.840   2.885   3.674  0.00  0.00    +0.290 C 
BRANCH  11  12
ATOM     12  C   LIG    1       -1.451   3.568   2.449  0.00  0.00    +0.160 C 
BRANCH  12  13
ATOM     13  N   LIG    1       -0.817   3.048   1.230  0.00  0.00    -0.530 NA
ATOM     14  C   LIG    1       -0.731   1.580   1.266  0.00  0.00    +0.150 C 
ATOM     15  C   LIG    1       -0.013   1.086   0.008  0.00  0.00    +0.220 C 
ATOM     16  O   LIG    1       -0.706   1.560  -1.149  0.00  0.00    -0.390 OA
ATOM     17  C   LIG    1       -0.807   2.985  -1.216  0.00  0.00    +0.220 C 
ATOM     18  C   LIG    1       -1.534   3.499   0.029  0.00  0.00    +0.150 C 
ENDBRANCH  12  13
ENDBRANCH  11  12
ENDBRANCH   8  11
ENDBRANCH   3   5
BRANCH   1  20
ATOM     19  C   LIG    1       -6.172   5.815   8.545  0.00  0.00    +0.020 C 
ATOM     20  C   LIG    1       -5.742   4.431   9.036  0.00  0.00    +0.240 C 
BRANCH  20  21
ATOM     21  C   LIG    1       -5.821   4.384  10.563  0.00  0.00    +0.090 C 
BRANCH  21  22
ATOM     22  C   LIG    1       -5.517   2.987  11.039  0.00  0.00    -0.120 A 
ATOM     23  C   LIG    1       -6.548   2.103  11.292  0.00  0.00    +0.040 A 
ATOM     24  C   LIG    1       -6.269   0.819  11.723  0.00  0.00    +0.010 A 
ATOM     25  C   LIG    1       -4.958   0.422  11.912  0.00  0.00    +0.040 A 
ATOM     26  C   LIG    1       -3.925   1.307  11.665  0.00  0.00    -0.010 A 
ATOM     27  C   LIG    1       -4.204   2.590  11.227  0.00  0.00    +0.100 A 
ATOM     28  F   LIG    1       -3.195   3.455  10.985  0.00  0.00    -0.140 F 
ENDBRANCH  21  22
ENDBRANCH  20  21
ENDBRANCH   1  20
TORSDOF 7
