REMARK  Name = ZINCpk000000mRcK.0
REMARK                            x       y       z     vdW  Elec       q    Type
REMARK                         _______ _______ _______ _____ _____    ______ ____
ROOT
ATOM      1  C   LIG    1       -1.475   2.101   0.067  0.00  0.00    +0.100 C 
ENDROOT
BRANCH   1  10
ATOM      2  C   LIG    1        4.932   2.791   2.731  0.00  0.00    +0.100 C 
ATOM      3  C   LIG    1        3.794   3.537   2.083  0.00  0.00    +0.520 C 
ATOM      4  N   LIG    1        2.564   2.988   2.045  0.00  0.00    -0.600 N 
ATOM      5  C   LIG    1        2.325   1.669   2.517  0.00  0.00    +0.250 C 
ATOM      6  C   LIG    1        2.630   0.540   1.479  0.00  0.00    +0.000 C 
ATOM      7  C   LIG    1        2.178   1.065   0.083  0.00  0.00    +0.250 C 
ATOM      8  N   LIG    1        0.984   1.835   0.089  0.00  0.00    -0.600 N 
ATOM      9  C   LIG    1        1.134   3.312   0.137  0.00  0.00    +0.280 C 
ATOM     10  C   LIG    1       -0.230   1.252   0.059  0.00  0.00    +0.520 C 
ATOM     11  O   LIG    1       -0.321   0.043   0.020  0.00  0.00    -0.520 OA
ATOM     12  C   LIG    1        1.397   3.735   1.508  0.00  0.00    +0.270 C 
ATOM     13  O   LIG    1        3.985   4.631   1.596  0.00  0.00    -0.540 OA
ENDBRANCH   1  10
BRANCH   1  14
ATOM     14  C   LIG    1       -2.690   1.212   0.021  0.00  0.00    -0.090 A 
ATOM     15  C   LIG    1       -3.233   0.846  -1.197  0.00  0.00    +0.050 A 
ATOM     16  C   LIG    1       -4.344   0.027  -1.243  0.00  0.00    +0.000 A 
ATOM     17  C   LIG    1       -4.923  -0.421  -0.062  0.00  0.00    +0.170 A 
ATOM     18  C   LIG    1       -4.379  -0.048   1.160  0.00  0.00    -0.030 A 
ATOM     19  C   LIG    1       -3.265   0.767   1.198  0.00  0.00    +0.040 A 
BRANCH  17  20
ATOM     20  N   LIG    1       -6.052  -1.246  -0.105  0.00  0.00    -0.560 N 
ATOM     21  C   LIG    1       -6.808  -1.676   1.077  0.00  0.00    +0.260 C 
ATOM     22  C   LIG    1       -7.655  -2.880   0.609  0.00  0.00    +0.060 C 
ATOM     23  C   LIG    1       -7.789  -2.601  -0.906  0.00  0.00    +0.070 C 
ATOM     24  C   LIG    1       -6.588  -1.741  -1.234  0.00  0.00    +0.510 C 
ATOM     25  O   LIG    1       -6.168  -1.532  -2.352  0.00  0.00    -0.510 OA
ENDBRANCH  17  20
ENDBRANCH   1  14
TORSDOF 3
