REMARK  Name = ZINCqH0000008E7E.0
REMARK                            x       y       z     vdW  Elec       q    Type
REMARK                         _______ _______ _______ _____ _____    ______ ____
ROOT
ATOM      1  C   LIG    1       -2.464  -0.214   0.507  0.00  0.00    +0.510 C 
ATOM      2  N   LIG    1       -2.426   1.042   0.020  0.00  0.00    -0.640 N 
ATOM      3  H   LIG    1       -3.234   1.453  -0.326  0.00  0.00    +0.420 HD
ATOM      4  O   LIG    1       -1.477  -0.694   1.026  0.00  0.00    -0.500 OA
ENDROOT
BRANCH   2   5
ATOM      5  C   LIG    1       -1.223   1.753   0.012  0.00  0.00    +0.140 A 
ATOM      6  C   LIG    1       -0.021   1.083  -0.177  0.00  0.00    +0.030 A 
ATOM      7  C   LIG    1        1.166   1.790  -0.189  0.00  0.00    +0.030 A 
ATOM      8  C   LIG    1        1.159   3.160  -0.009  0.00  0.00    +0.020 A 
ATOM      9  C   LIG    1       -0.036   3.829   0.185  0.00  0.00    -0.070 A 
ATOM     10  C   LIG    1       -1.226   3.130   0.198  0.00  0.00    +0.010 A 
BRANCH   9  11
ATOM     11  C   LIG    1       -0.039   5.324   0.381  0.00  0.00    +0.220 C 
BRANCH  11  12
ATOM     12  O   LIG    1       -0.158   5.970  -0.888  0.00  0.00    -0.370 OA
BRANCH  12  13
ATOM     13  C   LIG    1       -0.171   7.397  -0.815  0.00  0.00    +0.150 C 
ATOM     14  C   LIG    1       -1.612   7.887  -0.664  0.00  0.00    -0.010 C 
ATOM     15  C   LIG    1       -1.626   9.415  -0.585  0.00  0.00    +0.010 C 
ATOM     16  C   LIG    1       -1.021   9.997  -1.864  0.00  0.00    +0.000 C 
ATOM     17  C   LIG    1        0.421   9.507  -2.015  0.00  0.00    +0.010 C 
ATOM     18  C   LIG    1        0.434   7.979  -2.094  0.00  0.00    +0.020 C 
ENDBRANCH  12  13
ENDBRANCH  11  12
ENDBRANCH   9  11
ENDBRANCH   2   5
BRANCH   1  21
ATOM     19  N   LIG    1       -3.758  -2.272   0.895  0.00  0.00    -0.690 N 
ATOM     20  H   LIG    1       -2.969  -2.655   1.310  0.00  0.00    +0.410 HD
ATOM     21  C   LIG    1       -3.720  -1.016   0.408  0.00  0.00    +0.510 C 
ATOM     22  O   LIG    1       -4.707  -0.536  -0.111  0.00  0.00    -0.510 OA
BRANCH  19  27
ATOM     23  C   LIG    1       -5.914  -6.546   1.742  0.00  0.00    +0.030 C 
ATOM     24  C   LIG    1       -5.366  -5.152   2.054  0.00  0.00    -0.020 C 
ATOM     25  C   LIG    1       -6.526  -4.165   2.337  0.00  0.00    +0.020 C 
ATOM     26  C   LIG    1       -5.887  -2.789   2.023  0.00  0.00    +0.000 C 
ATOM     27  C   LIG    1       -4.990  -3.059   0.798  0.00  0.00    +0.240 C 
ATOM     28  C   LIG    1       -4.659  -4.561   0.817  0.00  0.00    +0.020 C 
ENDBRANCH  19  27
ENDBRANCH   1  21
TORSDOF 6
