REMARK  Name = ZINCqH0000032GP3.0
REMARK                            x       y       z     vdW  Elec       q    Type
REMARK                         _______ _______ _______ _____ _____    ______ ____
ROOT
ATOM      1  C   LIG    1        7.011  -3.411  -1.089  0.00  0.00    +0.130 C 
ATOM      2  C   LIG    1        7.723  -2.106  -1.514  0.00  0.00    +0.090 C 
ATOM      3  C   LIG    1        6.625  -1.066  -1.515  0.00  0.00    +0.520 C 
ATOM      4  N   LIG    1        5.421  -1.664  -1.501  0.00  0.00    -0.620 N 
ATOM      5  O   LIG    1        6.804   0.134  -1.524  0.00  0.00    -0.520 OA
ATOM      6  C   LIG    1        5.552  -3.126  -1.509  0.00  0.00    +0.290 C 
ENDROOT
BRANCH   1  10
ATOM      7  C   LIG    1        8.402  -6.472  -2.348  0.00  0.00    +0.180 A 
ATOM      8  N   LIG    1        8.176  -5.793  -3.433  0.00  0.00    -0.370 NA
ATOM      9  O   LIG    1        7.690  -4.716  -3.161  0.00  0.00    +0.080 OA
ATOM     10  C   LIG    1        7.566  -4.597  -1.835  0.00  0.00    +0.180 A 
ATOM     11  N   LIG    1        8.012  -5.712  -1.309  0.00  0.00    -0.460 NA
BRANCH   7  12
ATOM     12  C   LIG    1        8.991  -7.857  -2.268  0.00  0.00    +0.170 C 
BRANCH  12  14
ATOM     13  C   LIG    1        7.076  -8.742  -3.623  0.00  0.00    +0.030 C 
ATOM     14  C   LIG    1        7.867  -8.893  -2.322  0.00  0.00    -0.060 C 
ATOM     15  C   LIG    1        6.929  -8.719  -1.109  0.00  0.00    +0.020 C 
ATOM     16  C   LIG    1        6.537 -10.167  -0.721  0.00  0.00    +0.010 C 
ATOM     17  C   LIG    1        7.852 -10.951  -0.955  0.00  0.00    +0.020 C 
ATOM     18  C   LIG    1        8.453 -10.313  -2.224  0.00  0.00    +0.030 C 
ENDBRANCH  12  14
ENDBRANCH   7  12
ENDBRANCH   1  10
BRANCH   4  19
ATOM     19  C   LIG    1        4.143  -0.949  -1.485  0.00  0.00    +0.300 C 
BRANCH  19  20
ATOM     20  C   LIG    1        3.711  -0.707  -0.037  0.00  0.00    +0.060 C 
BRANCH  20  21
ATOM     21  C   LIG    1        2.396   0.029  -0.021  0.00  0.00    -0.090 A 
ATOM     22  C   LIG    1        1.208  -0.679  -0.014  0.00  0.00    +0.000 A 
ATOM     23  C   LIG    1        0.002  -0.004   0.002  0.00  0.00    +0.000 A 
ATOM     24  C   LIG    1       -0.017   1.378   0.010  0.00  0.00    +0.000 A 
ATOM     25  C   LIG    1        1.171   2.086   0.002  0.00  0.00    +0.000 A 
ATOM     26  C   LIG    1        2.377   1.411  -0.014  0.00  0.00    +0.010 A 
ENDBRANCH  20  21
ENDBRANCH  19  20
ENDBRANCH   4  19
TORSDOF 6
