REMARK  Name = ZINCpe000000YeIH.0
REMARK                            x       y       z     vdW  Elec       q    Type
REMARK                         _______ _______ _______ _____ _____    ______ ____
ROOT
ATOM      1  N   LIG    1       -1.413  -1.997   0.023  0.00  0.00    -0.690 N 
ATOM      2  H   LIG    1       -0.571  -2.470  -0.077  0.00  0.00    +0.410 HD
ENDROOT
BRANCH   1   7
ATOM      3  C   LIG    1       -6.130  -4.940   0.438  0.00  0.00    +0.350 C 
ATOM      4  N   LIG    1       -4.908  -4.140   0.329  0.00  0.00    -0.560 N 
ATOM      5  C   LIG    1       -4.997  -2.798   0.247  0.00  0.00    +0.590 A 
ATOM      6  C   LIG    1       -3.808  -2.028   0.141  0.00  0.00    -0.320 A 
ATOM      7  C   LIG    1       -2.579  -2.696   0.124  0.00  0.00    +0.540 A 
ATOM      8  N   LIG    1       -2.565  -4.062   0.206  0.00  0.00    -0.540 N 
ATOM      9  C   LIG    1       -1.286  -4.777   0.184  0.00  0.00    +0.360 C 
ATOM     10  O   LIG    1       -6.085  -2.251   0.264  0.00  0.00    -0.510 OA
ATOM     11  C   LIG    1       -3.713  -4.755   0.310  0.00  0.00    +0.710 A 
ATOM     12  O   LIG    1       -3.669  -5.967   0.386  0.00  0.00    -0.520 OA
BRANCH   6  13
ATOM     13  C   LIG    1       -3.865  -0.600   0.053  0.00  0.00    +0.300 C 
ATOM     14  N   LIG    1       -3.911   0.533  -0.017  0.00  0.00    -0.440 NA
ENDBRANCH   6  13
ENDBRANCH   1   7
BRANCH   1  15
ATOM     15  C   LIG    1       -1.430  -0.533   0.065  0.00  0.00    +0.280 C 
BRANCH  15  16
ATOM     16  C   LIG    1        0.006  -0.006   0.060  0.00  0.00    +0.050 C 
BRANCH  16  17
ATOM     17  C   LIG    1       -0.012   1.524   0.104  0.00  0.00    +0.160 C 
BRANCH  17  18
ATOM     18  C   LIG    1        1.403   2.043   0.100  0.00  0.00    +0.280 A 
ATOM     19  N   LIG    1        2.325   1.701   0.951  0.00  0.00    -0.490 NA
ATOM     20  C   LIG    1        3.480   2.354   0.660  0.00  0.00    +0.050 A 
ATOM     21  C   LIG    1        4.754   2.360   1.234  0.00  0.00    +0.070 A 
ATOM     22  C   LIG    1        5.737   3.144   0.700  0.00  0.00    +0.000 A 
ATOM     23  C   LIG    1        5.485   3.937  -0.411  0.00  0.00    +0.030 A 
ATOM     24  C   LIG    1        4.235   3.946  -0.994  0.00  0.00    +0.010 A 
ATOM     25  C   LIG    1        3.224   3.157  -0.464  0.00  0.00    +0.050 A 
ATOM     26  N   LIG    1        1.903   2.934  -0.799  0.00  0.00    -0.600 N 
ATOM     27  H   LIG    1        1.420   3.339  -1.536  0.00  0.00    +0.420 HD
ENDBRANCH  17  18
ENDBRANCH  16  17
ENDBRANCH  15  16
ENDBRANCH   1  15
TORSDOF 6
