REMARK  Name = ZINCpe000000XyDw.0
REMARK                            x       y       z     vdW  Elec       q    Type
REMARK                         _______ _______ _______ _____ _____    ______ ____
ROOT
ATOM      1  C   LIG    1        4.276   2.957   0.561  0.00  0.00    +0.510 C 
ATOM      2  N   LIG    1        4.104   1.673   0.932  0.00  0.00    -0.720 N 
ATOM      3  H   LIG    1        4.333   1.393   1.832  0.00  0.00    +0.400 HD
ATOM      4  O   LIG    1        3.989   3.307  -0.564  0.00  0.00    -0.530 OA
ENDROOT
BRANCH   2   5
ATOM      5  C   LIG    1        3.569   0.700  -0.024  0.00  0.00    +0.320 C 
ATOM      6  C   LIG    1        4.003  -0.715   0.381  0.00  0.00    +0.030 C 
ATOM      7  C   LIG    1        3.254  -1.746  -0.464  0.00  0.00    +0.040 C 
ATOM      8  C   LIG    1        1.784  -1.802  -0.031  0.00  0.00    +0.130 C 
ATOM      9  C   LIG    1        1.244  -0.392  -0.013  0.00  0.00    +0.090 A 
ATOM     10  N   LIG    1        0.002  -0.004   0.002  0.00  0.00    -0.290 NA
ATOM     11  N   LIG    1       -0.017   1.399   0.010  0.00  0.00    -0.380 N 
ATOM     12  C   LIG    1        1.263   1.834  -0.000  0.00  0.00    +0.250 A 
ATOM     13  C   LIG    1       -1.214   2.244   0.020  0.00  0.00    +0.350 C 
ATOM     14  C   LIG    1        2.061   0.751  -0.013  0.00  0.00    -0.250 A 
ENDBRANCH   2   5
BRANCH   1  15
ATOM     15  C   LIG    1        4.826   3.958   1.544  0.00  0.00    +0.150 C 
BRANCH  15  18
ATOM     16  C   LIG    1        2.701   5.852   1.846  0.00  0.00    +0.160 C 
ATOM     17  C   LIG    1        3.916   6.206   1.028  0.00  0.00    +0.230 A 
ATOM     18  C   LIG    1        4.920   5.310   0.885  0.00  0.00    -0.260 A 
ATOM     19  C   LIG    1        6.056   5.647   0.122  0.00  0.00    +0.580 A 
ATOM     20  N   LIG    1        6.133   6.855  -0.469  0.00  0.00    -0.360 N 
ATOM     21  N   LIG    1        7.114   7.452  -1.270  0.00  0.00    -0.260 NA
ATOM     22  C   LIG    1        6.711   8.656  -1.592  0.00  0.00    +0.290 A 
ATOM     23  C   LIG    1        5.461   8.877  -1.012  0.00  0.00    -0.120 A 
ATOM     24  C   LIG    1        5.116   7.754  -0.321  0.00  0.00    +0.300 A 
ATOM     25  O   LIG    1        6.965   4.846  -0.006  0.00  0.00    -0.490 OA
ATOM     26  N   LIG    1        4.003   7.427   0.431  0.00  0.00    -0.600 N 
ATOM     27  H   LIG    1        3.283   8.069   0.534  0.00  0.00    +0.430 HD
ENDBRANCH  15  18
ENDBRANCH   1  15
TORSDOF 3
