REMARK  Name = ZINCvU0000000C08.0
REMARK                            x       y       z     vdW  Elec       q    Type
REMARK                         _______ _______ _______ _____ _____    ______ ____
ROOT
ATOM      1  C   LIG    1       12.365  -0.593   5.267  0.00  0.00    -0.030 A 
ATOM      2  C   LIG    1       13.471  -0.505   6.004  0.00  0.00    -0.010 A 
ATOM      3  S   LIG    1       14.902  -0.404   4.995  0.00  0.00    +0.200 S 
ATOM      4  C   LIG    1       13.953  -0.470   3.518  0.00  0.00    +0.100 A 
ATOM      5  N   LIG    1       14.325  -0.433   2.231  0.00  0.00    -0.490 NA
ATOM      6  C   LIG    1       13.437  -0.497   1.266  0.00  0.00    +0.540 A 
ATOM      7  N   LIG    1       12.143  -0.600   1.508  0.00  0.00    -0.530 NA
ATOM      8  C   LIG    1       11.679  -0.644   2.750  0.00  0.00    +0.210 A 
ATOM      9  C   LIG    1       12.597  -0.572   3.828  0.00  0.00    -0.160 A 
ENDROOT
BRANCH   1  14
ATOM     10  F   LIG    1        7.247  -1.000   7.511  0.00  0.00    -0.140 F 
ATOM     11  C   LIG    1        8.481  -0.902   6.970  0.00  0.00    +0.110 A 
ATOM     12  C   LIG    1        9.493  -1.745   7.400  0.00  0.00    -0.010 A 
ATOM     13  C   LIG    1       10.755  -1.649   6.850  0.00  0.00    +0.070 A 
ATOM     14  C   LIG    1       11.011  -0.701   5.861  0.00  0.00    -0.050 A 
ATOM     15  C   LIG    1        9.991   0.150   5.435  0.00  0.00    +0.080 A 
ATOM     16  C   LIG    1        8.731   0.042   5.987  0.00  0.00    -0.010 A 
ENDBRANCH   1  14
BRANCH   8  17
ATOM     17  S   LIG    1        9.949  -0.782   3.055  0.00  0.00    +0.010 S 
BRANCH  17  18
ATOM     18  C   LIG    1        9.332  -0.820   1.354  0.00  0.00    +0.060 C 
BRANCH  18  19
ATOM     19  C   LIG    1        7.807  -0.941   1.367  0.00  0.00    +0.050 C 
BRANCH  19  20
ATOM     20  C   LIG    1        7.286  -0.973  -0.071  0.00  0.00    +0.210 C 
BRANCH  20  21
ATOM     21  C   LIG    1        5.784  -1.091  -0.058  0.00  0.00    +0.190 A 
ATOM     22  N   LIG    1        4.925  -0.102  -0.045  0.00  0.00    -0.470 NA
ATOM     23  C   LIG    1        3.704  -0.681  -0.036  0.00  0.00    +0.210 A 
ATOM     24  N   LIG    1        3.890  -1.975  -0.039  0.00  0.00    -0.360 NA
ATOM     25  O   LIG    1        5.076  -2.226  -0.057  0.00  0.00    +0.090 OA
BRANCH  23  26
ATOM     26  C   LIG    1        2.395   0.021  -0.021  0.00  0.00    +0.020 A 
ATOM     27  C   LIG    1        1.196  -0.696  -0.013  0.00  0.00    +0.000 A 
ATOM     28  C   LIG    1        0.002  -0.004   0.002  0.00  0.00    +0.270 A 
ATOM     29  N   LIG    1       -0.016   1.315   0.009  0.00  0.00    -0.470 NA
ATOM     30  C   LIG    1        1.093   2.029   0.003  0.00  0.00    +0.270 A 
ATOM     31  C   LIG    1        2.330   1.416  -0.013  0.00  0.00    +0.020 A 
ENDBRANCH  23  26
ENDBRANCH  20  21
ENDBRANCH  19  20
ENDBRANCH  18  19
ENDBRANCH  17  18
ENDBRANCH   8  17
TORSDOF 7
