REMARK  Name = ZINCkj00000AyJxU.0
REMARK                            x       y       z     vdW  Elec       q    Type
REMARK                         _______ _______ _______ _____ _____    ______ ____
ROOT
ATOM      1  C   LIG    1       -2.329   4.171   4.436  0.00  0.00    +0.170 C 
ATOM      2  C   LIG    1       -2.268   2.929   3.518  0.00  0.00    +0.290 C 
ATOM      3  N   LIG    1       -0.929   2.345   3.766  0.00  0.00    -0.620 N 
ATOM      4  C   LIG    1       -0.727   2.494   5.227  0.00  0.00    +0.300 C 
ATOM      5  C   LIG    1       -0.087   1.798   2.867  0.00  0.00    +0.550 C 
ATOM      6  O   LIG    1        0.984   1.358   3.228  0.00  0.00    -0.500 OA
ATOM      7  C   LIG    1       -1.315   3.881   5.555  0.00  0.00    -0.090 C 
ATOM      8  C   LIG    1       -2.019   3.845   6.909  0.00  0.00    -0.010 C 
ATOM      9  C   LIG    1       -0.980   3.612   8.011  0.00  0.00    +0.230 C 
ATOM     10  O   LIG    1        0.018   4.633   7.944  0.00  0.00    -0.370 OA
ATOM     11  C   LIG    1        0.749   4.658   6.716  0.00  0.00    +0.220 C 
ATOM     12  C   LIG    1       -0.213   4.937   5.558  0.00  0.00    +0.030 C 
ENDROOT
BRANCH   5  13
ATOM     13  C   LIG    1       -0.477   1.732   1.413  0.00  0.00    -0.020 C 
ATOM     14  C   LIG    1       -0.210   3.038   0.642  0.00  0.00    +0.040 C 
ATOM     15  C   LIG    1        0.264   2.159  -0.528  0.00  0.00    +0.190 C 
ATOM     16  F   LIG    1        1.391   2.660  -1.187  0.00  0.00    -0.200 F 
ATOM     17  C   LIG    1        0.590   1.080   0.518  0.00  0.00    +0.060 C 
ENDBRANCH   5  13
BRANCH   1  19
ATOM     18  C   LIG    1       -3.783   5.636   5.658  0.00  0.00    +0.330 C 
ATOM     19  N   LIG    1       -3.679   4.330   4.993  0.00  0.00    -0.380 N 
ATOM     20  C   LIG    1       -4.668   4.252   3.910  0.00  0.00    +0.320 C 
ATOM     21  H   LIG    1       -3.854   3.597   5.663  0.00  0.00    +0.430 HD
ENDBRANCH   1  19
TORSDOF 2
