REMARK  Name = ZINCrg000000sFei.0
REMARK                            x       y       z     vdW  Elec       q    Type
REMARK                         _______ _______ _______ _____ _____    ______ ____
ROOT
ATOM      1  N   LIG    1       -8.322   0.111  -1.748  0.00  0.00    -1.000 NA
ATOM      2  C   LIG    1       -8.575   1.442  -2.318  0.00  0.00    +0.300 C 
ATOM      3  C   LIG    1       -7.295   1.919  -3.025  0.00  0.00    +0.260 C 
ATOM      4  N   LIG    1       -6.824   0.847  -3.913  0.00  0.00    -0.600 N 
ATOM      5  C   LIG    1       -6.576  -0.486  -3.344  0.00  0.00    +0.280 C 
ATOM      6  C   LIG    1       -6.622   1.081  -5.225  0.00  0.00    +0.550 C 
ATOM      7  O   LIG    1       -6.198   0.196  -5.942  0.00  0.00    -0.500 OA
ATOM      8  C   LIG    1       -7.850  -0.961  -2.636  0.00  0.00    +0.300 C 
ENDROOT
BRANCH   6   9
ATOM      9  C   LIG    1       -6.915   2.414  -5.791  0.00  0.00    -0.110 A 
ATOM     10  C   LIG    1       -6.718   3.562  -5.021  0.00  0.00    +0.050 A 
ATOM     11  C   LIG    1       -6.994   4.803  -5.555  0.00  0.00    +0.030 A 
ATOM     12  C   LIG    1       -7.467   4.913  -6.851  0.00  0.00    +0.050 A 
ATOM     13  C   LIG    1       -7.665   3.781  -7.620  0.00  0.00    +0.040 A 
ATOM     14  C   LIG    1       -7.387   2.532  -7.101  0.00  0.00    -0.050 A 
ATOM     15 BR   LIG    1       -7.651   0.985  -8.156  0.00  0.00    -0.020 Br
ENDBRANCH   6   9
BRANCH   1  16
ATOM     16  S   LIG    1       -8.570  -0.177  -0.137  0.00  0.00    +2.720 S 
ATOM     17  O   LIG    1       -9.501   0.800   0.307  0.00  0.00    -0.950 OA
ATOM     18  O   LIG    1       -8.790  -1.575  -0.008  0.00  0.00    -0.960 OA
BRANCH  16  22
ATOM     19  C   LIG    1       -3.796  -0.697   2.021  0.00  0.00    +0.350 C 
ATOM     20  N   LIG    1       -5.055  -0.086   1.588  0.00  0.00    -0.400 N 
ATOM     21  C   LIG    1       -6.057  -0.720   0.932  0.00  0.00    +0.330 A 
ATOM     22  C   LIG    1       -7.054   0.166   0.694  0.00  0.00    -0.750 A 
ATOM     23  C   LIG    1       -6.667   1.400   1.225  0.00  0.00    +0.110 A 
ATOM     24  C   LIG    1       -5.419   1.227   1.784  0.00  0.00    -0.060 A 
BRANCH  24  25
ATOM     25  C   LIG    1       -4.621   2.257   2.458  0.00  0.00    +0.590 C 
ATOM     26  O   LIG    1       -3.495   2.000   2.843  0.00  0.00    -0.550 OA
ATOM     27  N   LIG    1       -5.133   3.488   2.651  0.00  0.00    -0.840 N 
ATOM     28  H   LIG    1       -4.637   4.146   3.163  0.00  0.00    +0.410 HD
ATOM     29  H   LIG    1       -6.001   3.716   2.281  0.00  0.00    +0.410 HD
ENDBRANCH  24  25
ENDBRANCH  16  22
ENDBRANCH   1  16
TORSDOF 4
