REMARK  Name = ZINCvU0000000J1F.0
REMARK                            x       y       z     vdW  Elec       q    Type
REMARK                         _______ _______ _______ _____ _____    ______ ____
ROOT
ATOM      1  C   LIG    1       -0.064  -1.467  -5.950  0.00  0.00    -0.030 C 
ATOM      2  C   LIG    1        1.255  -2.238  -5.869  0.00  0.00    +0.030 C 
ENDROOT
BRANCH   1   3
ATOM      3  C   LIG    1       -0.217  -0.864  -7.347  0.00  0.00    +0.290 C 
BRANCH   3   5
ATOM      4  C   LIG    1       -0.483  -1.645  -9.640  0.00  0.00    +0.580 C 
ATOM      5  N   LIG    1       -0.337  -1.941  -8.333  0.00  0.00    -0.720 N 
ATOM      6  H   LIG    1       -0.312  -2.867  -8.046  0.00  0.00    +0.400 HD
ATOM      7  O   LIG    1       -0.515  -0.483 -10.001  0.00  0.00    -0.520 OA
BRANCH   4  10
ATOM      8  C   LIG    1       -3.079  -2.680 -10.308  0.00  0.00    +0.110 C 
ATOM      9  C   LIG    1       -1.845  -3.240 -10.967  0.00  0.00    -0.010 A 
ATOM     10  C   LIG    1       -0.604  -2.727 -10.631  0.00  0.00    -0.090 A 
ATOM     11  C   LIG    1        0.595  -3.288 -11.278  0.00  0.00    +0.110 A 
ATOM     12  N   LIG    1        1.873  -2.996 -11.143  0.00  0.00    -0.590 NA
ATOM     13  S   LIG    1        2.715  -3.910 -12.079  0.00  0.00    +0.810 S 
ATOM     14  N   LIG    1        1.582  -4.748 -12.736  0.00  0.00    -0.590 NA
ATOM     15  C   LIG    1        0.412  -4.360 -12.253  0.00  0.00    +0.070 A 
ATOM     16  C   LIG    1       -0.903  -4.808 -12.529  0.00  0.00    +0.110 A 
ATOM     17  C   LIG    1       -1.972  -4.257 -11.904  0.00  0.00    +0.050 A 
ENDBRANCH   4  10
ENDBRANCH   3   5
ENDBRANCH   1   3
BRANCH   1  18
ATOM     18  C   LIG    1       -0.064  -0.346  -4.908  0.00  0.00    +0.290 C 
BRANCH  18  19
ATOM     19  N   LIG    1       -0.037  -0.929  -3.564  0.00  0.00    -0.720 N 
ATOM     20  H   LIG    1       -0.022  -1.892  -3.453  0.00  0.00    +0.400 HD
ATOM     21  C   LIG    1       -0.032  -0.126  -2.481  0.00  0.00    +0.590 C 
ATOM     22  O   LIG    1       -0.050   1.082  -2.620  0.00  0.00    -0.510 OA
BRANCH  21  23
ATOM     23  C   LIG    1       -0.005  -0.711  -1.133  0.00  0.00    -0.240 A 
ATOM     24  C   LIG    1        0.002  -0.004   0.002  0.00  0.00    +0.010 A 
ATOM     25  C   LIG    1        0.024  -0.759   1.186  0.00  0.00    -0.080 A 
ATOM     26  C   LIG    1        0.030  -0.307   2.527  0.00  0.00    +0.110 A 
ATOM     27  C   LIG    1        0.053  -1.197   3.555  0.00  0.00    -0.090 A 
ATOM     28  C   LIG    1        0.068  -2.565   3.309  0.00  0.00    +0.090 A 
ATOM     29  C   LIG    1        0.062  -3.034   2.017  0.00  0.00    +0.060 A 
ATOM     30 BR   LIG    1        0.063  -0.567   5.338  0.00  0.00    -0.040 Br
ATOM     31  C   LIG    1        0.040  -2.138   0.944  0.00  0.00    -0.110 A 
ATOM     32  C   LIG    1       -0.018   1.503   0.010  0.00  0.00    +0.130 C 
ATOM     33  S   LIG    1        0.027  -2.432  -0.792  0.00  0.00    +0.130 S 
ENDBRANCH  21  23
ENDBRANCH  18  19
ENDBRANCH   1  18
TORSDOF 6
