REMARK  Name = ZINCpe000027pGZy.0
REMARK                            x       y       z     vdW  Elec       q    Type
REMARK                         _______ _______ _______ _____ _____    ______ ____
ROOT
ATOM      1  N   LIG    1       -0.005  -0.004  -0.228  0.00  0.00    -0.460 NA
ATOM      2  C   LIG    1        0.678  -0.500   1.007  0.00  0.00    +0.200 C 
ATOM      3  C   LIG    1        1.953  -1.135   0.352  0.00  0.00    -0.020 C 
ATOM      4  C   LIG    1        2.427  -0.135  -0.748  0.00  0.00    +0.050 C 
ATOM      5  C   LIG    1        1.348  -1.875  -0.870  0.00  0.00    +0.060 C 
ATOM      6  C   LIG    1        0.972  -0.431  -1.286  0.00  0.00    +0.020 C 
ENDROOT
BRANCH   6   7
ATOM      7  C   LIG    1        0.623  -0.129  -2.721  0.00  0.00    +0.550 C 
ATOM      8  N   LIG    1       -0.607  -0.416  -3.190  0.00  0.00    -0.580 N 
ATOM      9  O   LIG    1        1.449   0.373  -3.453  0.00  0.00    -0.530 OA
BRANCH   8  10
ATOM     10  C   LIG    1       -0.984  -0.021  -4.550  0.00  0.00    +0.370 C 
BRANCH  10  11
ATOM     11  C   LIG    1       -0.634  -1.128  -5.510  0.00  0.00    -0.120 A 
ATOM     12  C   LIG    1       -1.486  -2.107  -5.818  0.00  0.00    -0.040 A 
ATOM     13  S   LIG    1       -0.730  -3.208  -6.963  0.00  0.00    +0.090 S 
ATOM     14  C   LIG    1        0.743  -2.248  -6.960  0.00  0.00    -0.060 A 
ATOM     15  C   LIG    1        0.594  -1.202  -6.145  0.00  0.00    +0.020 A 
ENDBRANCH  10  11
ENDBRANCH   8  10
BRANCH   8  16
ATOM     16  C   LIG    1       -1.568  -1.125  -2.341  0.00  0.00    +0.290 C 
BRANCH  16  17
ATOM     17  C   LIG    1       -2.504  -0.113  -1.677  0.00  0.00    +0.190 C 
BRANCH  17  18
ATOM     18  O   LIG    1       -3.259   0.568  -2.681  0.00  0.00    -0.580 OA
ATOM     19  H   LIG    1       -3.875   1.226  -2.331  0.00  0.00    +0.380 HD
ENDBRANCH  17  18
ENDBRANCH  16  17
ENDBRANCH   8  16
ENDBRANCH   6   7
BRANCH   1  20
ATOM     20  C   LIG    1       -0.146   1.458  -0.201  0.00  0.00    +0.300 C 
BRANCH  20  26
ATOM     21  C   LIG    1        0.735   2.532   2.579  0.00  0.00    +0.370 C 
ATOM     22  N   LIG    1       -0.646   2.318   2.137  0.00  0.00    -0.380 N 
ATOM     23  N   LIG    1       -1.814   2.556   2.880  0.00  0.00    -0.310 NA
ATOM     24  C   LIG    1       -2.822   2.232   2.114  0.00  0.00    +0.420 A 
ATOM     25  N   LIG    1       -2.354   1.813   0.938  0.00  0.00    -0.520 NA
ATOM     26  C   LIG    1       -1.046   1.854   0.941  0.00  0.00    +0.280 A 
ENDBRANCH  20  26
ENDBRANCH   1  20
TORSDOF 8
