REMARK  Name = ZINCzw0000000grt.0
REMARK                            x       y       z     vdW  Elec       q    Type
REMARK                         _______ _______ _______ _____ _____    ______ ____
ROOT
ATOM      1  S   LIG    1        3.798   0.571   0.399  0.00  0.00    +2.700 S 
ATOM      2  O   LIG    1        3.550  -0.797   0.690  0.00  0.00    -0.950 OA
ATOM      3  O   LIG    1        4.797   1.337   1.057  0.00  0.00    -0.950 OA
ENDROOT
BRANCH   1   4
ATOM      4  C   LIG    1        2.274   1.418   0.652  0.00  0.00    -0.680 A 
ATOM      5  C   LIG    1        2.276   2.773   0.928  0.00  0.00    +0.150 A 
ATOM      6  C   LIG    1        1.083   3.441   1.129  0.00  0.00    -0.010 A 
ATOM      7  C   LIG    1       -0.119   2.751   1.053  0.00  0.00    +0.130 A 
ATOM      8  C   LIG    1       -0.119   1.389   0.769  0.00  0.00    +0.060 A 
ATOM      9  F   LIG    1       -1.286   0.714   0.689  0.00  0.00    -0.130 F 
ATOM     10  C   LIG    1        1.079   0.726   0.576  0.00  0.00    +0.130 A 
BRANCH   7  11
ATOM     11  N   LIG    1       -1.328   3.424   1.256  0.00  0.00    -0.470 N 
ATOM     12  C   LIG    1       -2.246   3.221   0.114  0.00  0.00    +0.200 C 
ATOM     13  C   LIG    1       -3.053   4.522  -0.054  0.00  0.00    +0.010 C 
ATOM     14  C   LIG    1       -2.513   5.476   1.037  0.00  0.00    +0.160 C 
ATOM     15  C   LIG    1       -1.111   4.891   1.345  0.00  0.00    +0.210 C 
BRANCH  14  16
ATOM     16  O   LIG    1       -2.405   6.809   0.534  0.00  0.00    -0.370 OA
BRANCH  16  17
ATOM     17  C   LIG    1       -3.571   7.607   0.749  0.00  0.00    +0.190 C 
BRANCH  17  18
ATOM     18  C   LIG    1       -3.344   9.007   0.174  0.00  0.00    +0.200 C 
BRANCH  18  19
ATOM     19  O   LIG    1       -3.201   8.921  -1.245  0.00  0.00    -0.570 OA
ATOM     20  H   LIG    1       -3.054   9.773  -1.678  0.00  0.00    +0.380 HD
ENDBRANCH  18  19
ENDBRANCH  17  18
ENDBRANCH  16  17
ENDBRANCH  14  16
ENDBRANCH   7  11
ENDBRANCH   1   4
BRANCH   1  21
ATOM     21  N   LIG    1        4.139   0.650  -1.220  0.00  0.00    -1.120 NA
ATOM     22  H   LIG    1        4.158  -0.161  -1.752  0.00  0.00    +0.420 HD
BRANCH  21  23
ATOM     23  C   LIG    1        4.413   1.945  -1.849  0.00  0.00    +0.330 C 
BRANCH  23  27
ATOM     24  C   LIG    1        6.200   1.319  -5.679  0.00  0.00    +0.120 A 
ATOM     25  C   LIG    1        4.821   1.405  -5.562  0.00  0.00    +0.000 A 
ATOM     26  C   LIG    1        4.245   1.607  -4.323  0.00  0.00    +0.080 A 
ATOM     27  C   LIG    1        5.043   1.724  -3.200  0.00  0.00    -0.120 A 
ATOM     28  C   LIG    1        6.418   1.644  -3.314  0.00  0.00    +0.080 A 
ATOM     29  C   LIG    1        6.998   1.436  -4.551  0.00  0.00    -0.070 A 
BRANCH  24  30
ATOM     30  O   LIG    1        6.769   1.121  -6.898  0.00  0.00    -0.330 OA
BRANCH  30  31
ATOM     31  C   LIG    1        8.195   1.042  -6.943  0.00  0.00    +0.230 C 
BRANCH  31  32
ATOM     32  C   LIG    1        8.647   0.818  -8.388  0.00  0.00    +0.280 C 
BRANCH  32  33
ATOM     33  N   LIG    1        8.297   1.992  -9.198  0.00  0.00    -0.390 N 
ATOM     34  H   LIG    1        7.309   2.179  -9.110  0.00  0.00    +0.430 HD
BRANCH  33  36
ATOM     35  C   LIG    1       10.556   2.850  -8.800  0.00  0.00    +0.080 C 
ATOM     36  C   LIG    1        9.059   3.157  -8.728  0.00  0.00    +0.240 C 
ENDBRANCH  33  36
BRANCH  33  37
ATOM     37  C   LIG    1        8.623   1.730 -10.606  0.00  0.00    +0.240 C 
ATOM     38  C   LIG    1        8.129   2.893 -11.469  0.00  0.00    +0.080 C 
ENDBRANCH  33  37
ENDBRANCH  32  33
ENDBRANCH  31  32
ENDBRANCH  30  31
ENDBRANCH  24  30
ENDBRANCH  23  27
ENDBRANCH  21  23
ENDBRANCH   1  21
TORSDOF 15
