REMARK  Name = ZINCpe00000MIuB1.0
REMARK                            x       y       z     vdW  Elec       q    Type
REMARK                         _______ _______ _______ _____ _____    ______ ____
ROOT
ATOM      1  C   LIG    1       -1.320   1.970   0.047  0.00  0.00    +0.350 C 
ENDROOT
BRANCH   1  11
ATOM      2  O   LIG    1       -4.990  -1.674   3.866  0.00  0.00    -0.550 OA
ATOM      3  C   LIG    1       -4.364  -1.033   3.044  0.00  0.00    +0.710 A 
ATOM      4  N   LIG    1       -3.378  -0.219   3.459  0.00  0.00    -0.650 N 
ATOM      5  H   LIG    1       -3.181  -0.154   4.406  0.00  0.00    +0.440 HD
ATOM      6  C   LIG    1       -2.659   0.510   2.581  0.00  0.00    +0.590 A 
ATOM      7  C   LIG    1       -2.948   0.415   1.201  0.00  0.00    -0.110 A 
ATOM      8  C   LIG    1       -3.971  -0.432   0.787  0.00  0.00    +0.140 A 
ATOM      9  C   LIG    1       -4.042  -0.335  -0.609  0.00  0.00    -0.050 A 
ATOM     10  C   LIG    1       -3.098   0.545  -1.013  0.00  0.00    +0.280 A 
ATOM     11  N   LIG    1       -2.421   1.004   0.072  0.00  0.00    -0.390 N 
ATOM     12  O   LIG    1       -1.769   1.242   2.974  0.00  0.00    -0.520 OA
ATOM     13  N   LIG    1       -4.675  -1.156   1.739  0.00  0.00    -0.620 N 
ATOM     14  H   LIG    1       -5.391  -1.750   1.465  0.00  0.00    +0.440 HD
ENDBRANCH   1  11
BRANCH   1  15
ATOM     15  C   LIG    1       -0.006   1.233   0.040  0.00  0.00    +0.500 C 
ATOM     16  N   LIG    1        1.153   1.922   0.013  0.00  0.00    -0.610 N 
ATOM     17  C   LIG    1        1.147   3.390  -0.005  0.00  0.00    +0.260 C 
ATOM     18  C   LIG    1        1.946   3.872  -1.222  0.00  0.00    +0.030 C 
ATOM     19  C   LIG    1        3.322   3.208  -1.213  0.00  0.00    -0.080 C 
ATOM     20  C   LIG    1        3.248   1.682  -1.216  0.00  0.00    +0.010 C 
ATOM     21  C   LIG    1        4.268   3.772  -0.146  0.00  0.00    +0.030 C 
ATOM     22  C   LIG    1        5.385   3.672  -1.199  0.00  0.00    +0.000 C 
ATOM     23  C   LIG    1        4.281   3.776  -2.266  0.00  0.00    +0.030 C 
ATOM     24  C   LIG    1        2.440   1.215   0.006  0.00  0.00    +0.300 C 
ATOM     25  O   LIG    1        0.010   0.021   0.055  0.00  0.00    -0.520 OA
BRANCH  20  26
ATOM     26  C   LIG    1        4.662   1.101  -1.145  0.00  0.00    +0.180 C 
BRANCH  26  27
ATOM     27  O   LIG    1        4.593  -0.326  -1.174  0.00  0.00    -0.570 OA
ATOM     28  H   LIG    1        5.455  -0.762  -1.131  0.00  0.00    +0.380 HD
ENDBRANCH  26  27
ENDBRANCH  20  26
ENDBRANCH   1  15
TORSDOF 4
