REMARK  Name = ZINCqH00000511uw.0
REMARK                            x       y       z     vdW  Elec       q    Type
REMARK                         _______ _______ _______ _____ _____    ______ ____
ROOT
ATOM      1  C   LIG    1       -4.289   1.386   0.106  0.00  0.00    +0.220 C 
ENDROOT
BRANCH   1   2
ATOM      2  N   LIG    1       -2.845   1.638   0.020  0.00  0.00    -0.520 NA
ATOM      3  C   LIG    1       -2.277   1.038  -1.194  0.00  0.00    +0.170 C 
ATOM      4  C   LIG    1       -0.807   1.442  -1.325  0.00  0.00    +0.050 C 
ATOM      5  C   LIG    1       -0.039   0.964  -0.090  0.00  0.00    +0.030 C 
ATOM      6  C   LIG    1       -0.678   1.565   1.165  0.00  0.00    +0.040 C 
ATOM      7  C   LIG    1       -2.154   1.157   1.223  0.00  0.00    +0.180 C 
BRANCH   5   8
ATOM      8  C   LIG    1        1.397   1.410  -0.186  0.00  0.00    -0.080 A 
ATOM      9  C   LIG    1        1.698   2.756  -0.274  0.00  0.00    +0.030 A 
ATOM     10  C   LIG    1        3.014   3.168  -0.356  0.00  0.00    -0.010 A 
ATOM     11  C   LIG    1        4.034   2.228  -0.363  0.00  0.00    +0.100 A 
ATOM     12  C   LIG    1        3.730   0.877  -0.280  0.00  0.00    -0.010 A 
ATOM     13  C   LIG    1        2.412   0.471  -0.192  0.00  0.00    +0.020 A 
BRANCH  11  14
ATOM     14  O   LIG    1        5.329   2.630  -0.451  0.00  0.00    -0.500 OA
ATOM     15  H   LIG    1        5.658   2.703  -1.357  0.00  0.00    +0.390 HD
ENDBRANCH  11  14
ENDBRANCH   5   8
ENDBRANCH   1   2
BRANCH   1  18
ATOM     16  N   LIG    1       -6.316   1.938  -1.200  0.00  0.00    -0.670 N 
ATOM     17  H   LIG    1       -6.829   1.401  -0.576  0.00  0.00    +0.420 HD
ATOM     18  C   LIG    1       -4.994   2.117  -1.007  0.00  0.00    +0.520 C 
ATOM     19  O   LIG    1       -4.372   2.867  -1.729  0.00  0.00    -0.480 OA
BRANCH  16  26
ATOM     20  C   LIG    1       -8.086   1.927  -2.858  0.00  0.00    -0.060 A 
ATOM     21  C   LIG    1       -8.708   2.524  -3.956  0.00  0.00    +0.120 A 
ATOM     22  C   LIG    1       -8.202   3.693  -4.482  0.00  0.00    +0.020 A 
ATOM     23  C   LIG    1       -7.076   4.281  -3.926  0.00  0.00    +0.010 A 
ATOM     24  C   LIG    1       -6.453   3.704  -2.835  0.00  0.00    +0.040 A 
ATOM     25 CL   LIG    1       -6.449   5.753  -4.599  0.00  0.00    -0.050 Cl
ATOM     26  C   LIG    1       -6.946   2.524  -2.297  0.00  0.00    +0.210 A 
BRANCH  20  28
ATOM     27  N   LIG    1       -9.021  -0.251  -1.869  0.00  0.00    -0.400 NA
ATOM     28  C   LIG    1       -8.607   0.713  -2.307  0.00  0.00    +0.250 C 
ENDBRANCH  20  28
ENDBRANCH  16  26
ENDBRANCH   1  18
TORSDOF 6
