REMARK  Name = ZINCfA000000bk0U.1
REMARK                            x       y       z     vdW  Elec       q    Type
REMARK                         _______ _______ _______ _____ _____    ______ ____
ROOT
ATOM      1  N   LIG    1       -0.528   0.772   2.414  0.00  0.00    -0.690 NA
ATOM      2  H   LIG    1       -1.125   0.038   2.628  0.00  0.00    +0.420 HD
ENDROOT
BRANCH   1   3
ATOM      3  C   LIG    1        0.575   1.029   3.221  0.00  0.00    +0.450 C 
ATOM      4  C   LIG    1        1.430   2.080   2.905  0.00  0.00    -0.030 C 
ATOM      5  C   LIG    1        2.521   2.327   3.719  0.00  0.00    +0.220 C 
ATOM      6  C   LIG    1        2.726   1.506   4.820  0.00  0.00    +0.010 C 
ATOM      7  C   LIG    1        1.840   0.477   5.070  0.00  0.00    +0.190 C 
ATOM      8  C   LIG    1        2.058  -0.418   6.263  0.00  0.00    +0.180 C 
ATOM      9  N   LIG    1        0.805   0.268   4.279  0.00  0.00    -0.510 NA
ATOM     10  H   LIG    1        0.198  -0.462   4.478  0.00  0.00    +0.440 HD
ENDBRANCH   1   3
BRANCH   1  14
ATOM     11  C   LIG    1       -2.243   1.875  -0.703  0.00  0.00    +0.040 C 
ATOM     12  C   LIG    1       -0.809   1.622  -1.200  0.00  0.00    +0.050 C 
ATOM     13  C   LIG    1       -0.013   1.086   0.008  0.00  0.00    +0.020 C 
ATOM     14  C   LIG    1       -0.789   1.611   1.242  0.00  0.00    +0.250 C 
ATOM     15  C   LIG    1       -2.268   1.485   0.789  0.00  0.00    +0.070 C 
BRANCH  11  17
ATOM     16  C   LIG    1       -3.311   1.535  -3.312  0.00  0.00    +0.150 C 
ATOM     17  S   LIG    1       -3.414   0.850  -1.635  0.00  0.00    -0.250 S 
ENDBRANCH  11  17
ENDBRANCH   1  14
TORSDOF 3
