REMARK  Name = ZINCrH000004r4gv.0
REMARK                            x       y       z     vdW  Elec       q    Type
REMARK                         _______ _______ _______ _____ _____    ______ ____
ROOT
ATOM      1  C   LIG    1       -3.843  -1.968  -2.151  0.00  0.00    +0.580 C 
ATOM      2  N   LIG    1       -2.838  -2.089  -1.261  0.00  0.00    -0.590 N 
ATOM      3  C   LIG    1       -1.810  -1.045  -1.134  0.00  0.00    +0.280 C 
ATOM      4  C   LIG    1       -1.680  -0.672   0.348  0.00  0.00    +0.200 C 
ATOM      5  O   LIG    1       -1.478  -1.860   1.117  0.00  0.00    -0.360 OA
ATOM      6  C   LIG    1       -2.563  -2.788   1.057  0.00  0.00    +0.100 C 
ATOM      7  C   LIG    1       -2.263  -3.985   1.962  0.00  0.00    +0.080 C 
ATOM      8  C   LIG    1       -3.848  -2.102   1.526  0.00  0.00    +0.020 C 
ATOM      9  C   LIG    1       -2.738  -3.269  -0.388  0.00  0.00    +0.280 C 
ATOM     10  O   LIG    1       -4.696  -2.831  -2.225  0.00  0.00    -0.520 OA
ENDROOT
BRANCH   1  15
ATOM     11  C   LIG    1       -3.902   2.624  -5.495  0.00  0.00    +0.150 C 
ATOM     12  C   LIG    1       -3.938   1.394  -4.625  0.00  0.00    +0.090 A 
ATOM     13  C   LIG    1       -5.065   0.588  -4.611  0.00  0.00    +0.040 A 
ATOM     14  C   LIG    1       -5.055  -0.536  -3.796  0.00  0.00    +0.110 A 
ATOM     15  C   LIG    1       -3.908  -0.784  -3.039  0.00  0.00    +0.020 A 
ATOM     16  N   LIG    1       -2.878   0.051  -3.115  0.00  0.00    -0.200 NA
ATOM     17  N   LIG    1       -2.894   1.084  -3.875  0.00  0.00    -0.240 NA
ENDBRANCH   1  15
BRANCH   4  18
ATOM     18  C   LIG    1       -0.506   0.254   0.533  0.00  0.00    -0.080 A 
ATOM     19  C   LIG    1        0.777  -0.259   0.584  0.00  0.00    +0.080 A 
ATOM     20  C   LIG    1        1.855   0.591   0.754  0.00  0.00    +0.020 A 
ATOM     21  C   LIG    1        1.649   1.952   0.872  0.00  0.00    +0.080 A 
ATOM     22  C   LIG    1        0.366   2.465   0.822  0.00  0.00    -0.180 A 
ATOM     23  C   LIG    1       -0.711   1.616   0.651  0.00  0.00    +0.080 A 
BRANCH  22  24
ATOM     24  C   LIG    1        0.142   3.950   0.951  0.00  0.00    +0.510 C 
ATOM     25  F   LIG    1       -1.001   4.313   0.231  0.00  0.00    -0.180 F 
ATOM     26  F   LIG    1        1.251   4.635   0.443  0.00  0.00    -0.180 F 
ATOM     27  F   LIG    1       -0.032   4.279   2.300  0.00  0.00    -0.180 F 
ENDBRANCH  22  24
ENDBRANCH   4  18
TORSDOF 3
