REMARK  Name = ZINCpk00000KfKlT.1
REMARK                            x       y       z     vdW  Elec       q    Type
REMARK                         _______ _______ _______ _____ _____    ______ ____
ROOT
ATOM      1  C   LIG    1       -0.145   1.005  -2.408  0.00  0.00    +0.200 C 
ENDROOT
BRANCH   1   5
ATOM      2  C   LIG    1       -0.617   2.882   1.405  0.00  0.00    +0.230 C 
ATOM      3  C   LIG    1       -0.622   1.353   1.311  0.00  0.00    +0.010 C 
ATOM      4  C   LIG    1        0.049   0.925   0.004  0.00  0.00    +0.180 C 
ATOM      5  N   LIG    1       -0.677   1.506  -1.133  0.00  0.00    -0.530 NA
ATOM      6  C   LIG    1       -0.645   2.973  -1.090  0.00  0.00    +0.180 C 
ATOM      7  C   LIG    1       -1.336   3.462   0.184  0.00  0.00    +0.030 C 
BRANCH   2  10
ATOM      8  O   LIG    1        0.538   3.071   3.833  0.00  0.00    -0.540 OA
ATOM      9  C   LIG    1       -0.639   3.361   3.794  0.00  0.00    +0.540 C 
ATOM     10  N   LIG    1       -1.310   3.300   2.626  0.00  0.00    -0.720 N 
ATOM     11  H   LIG    1       -2.251   3.532   2.595  0.00  0.00    +0.400 HD
BRANCH   9  12
ATOM     12  C   LIG    1       -1.352   3.791   5.050  0.00  0.00    -0.080 C 
ATOM     13  C   LIG    1       -0.962   5.140   5.657  0.00  0.00    +0.060 C 
ATOM     14  C   LIG    1       -0.535   3.841   6.343  0.00  0.00    +0.060 C 
ENDBRANCH   9  12
ENDBRANCH   2  10
ENDBRANCH   1   5
BRANCH   1  15
ATOM     15  C   LIG    1        1.184   1.697  -2.713  0.00  0.00    +0.220 C 
BRANCH  15  16
ATOM     16  C   LIG    1        1.655   1.296  -4.088  0.00  0.00    -0.110 A 
ATOM     17  C   LIG    1        2.285   0.080  -4.274  0.00  0.00    +0.020 A 
ATOM     18  C   LIG    1        2.718  -0.291  -5.533  0.00  0.00    +0.030 A 
ATOM     19  C   LIG    1        2.523   0.557  -6.613  0.00  0.00    +0.050 A 
ATOM     20  O   LIG    1        2.962   0.182  -7.845  0.00  0.00    -0.310 OA
ATOM     21  C   LIG    1        2.418   0.889  -8.965  0.00  0.00    +0.220 C 
ATOM     22  C   LIG    1        2.458   2.390  -8.652  0.00  0.00    +0.220 C 
ATOM     23  O   LIG    1        1.679   2.623  -7.473  0.00  0.00    -0.310 OA
ATOM     24  C   LIG    1        1.888   1.779  -6.426  0.00  0.00    +0.050 A 
ATOM     25  C   LIG    1        1.452   2.143  -5.161  0.00  0.00    +0.040 A 
ENDBRANCH  15  16
BRANCH  15  26
ATOM     26  O   LIG    1        2.159   1.307  -1.744  0.00  0.00    -0.550 OA
ATOM     27  H   LIG    1        2.331   0.356  -1.720  0.00  0.00    +0.370 HD
ENDBRANCH  15  26
ENDBRANCH   1  15
TORSDOF 6
