REMARK  Name = ZINCvU00000007vF.0
REMARK                            x       y       z     vdW  Elec       q    Type
REMARK                         _______ _______ _______ _____ _____    ______ ____
ROOT
ATOM      1  C   LIG    1        4.380  -1.257  -1.383  0.00  0.00    +0.150 A 
ATOM      2  N   LIG    1        5.674  -1.469  -1.473  0.00  0.00    -0.290 NA
ATOM      3  N   LIG    1        6.297  -0.352  -1.596  0.00  0.00    -0.260 NA
ATOM      4  C   LIG    1        5.439   0.641  -1.599  0.00  0.00    +0.220 A 
ATOM      5  N   LIG    1        4.186   0.093  -1.456  0.00  0.00    -0.450 N 
ENDROOT
BRANCH   4   6
ATOM      6  C   LIG    1        5.761   2.079  -1.726  0.00  0.00    -0.000 A 
ATOM      7  C   LIG    1        6.985   2.478  -2.264  0.00  0.00    +0.080 A 
ATOM      8  C   LIG    1        7.277   3.821  -2.386  0.00  0.00    +0.050 A 
ATOM      9  C   LIG    1        6.362   4.772  -1.966  0.00  0.00    -0.080 A 
ATOM     10  C   LIG    1        5.149   4.382  -1.426  0.00  0.00    +0.050 A 
ATOM     11 BR   LIG    1        6.773   6.610  -2.129  0.00  0.00    -0.040 Br
ATOM     12  C   LIG    1        4.843   3.042  -1.304  0.00  0.00    +0.030 A 
ENDBRANCH   4   6
BRANCH   1  13
ATOM     13  S   LIG    1        3.129  -2.484  -1.201  0.00  0.00    +0.090 S 
BRANCH  13  14
ATOM     14  C   LIG    1        4.153  -3.976  -1.185  0.00  0.00    +0.110 C 
BRANCH  14  16
ATOM     15  O   LIG    1        2.069  -5.057  -0.945  0.00  0.00    -0.500 OA
ATOM     16  C   LIG    1        3.271  -5.189  -1.034  0.00  0.00    +0.530 C 
ATOM     17  N   LIG    1        3.819  -6.420  -0.997  0.00  0.00    -0.660 N 
ATOM     18  H   LIG    1        4.783  -6.522  -0.982  0.00  0.00    +0.420 HD
BRANCH  17  19
ATOM     19  C   LIG    1        2.996  -7.552  -0.979  0.00  0.00    +0.140 A 
ATOM     20  C   LIG    1        3.456  -8.738  -0.423  0.00  0.00    -0.020 A 
ATOM     21  C   LIG    1        2.639  -9.852  -0.403  0.00  0.00    +0.030 A 
ATOM     22  C   LIG    1        1.369  -9.790  -0.946  0.00  0.00    -0.020 A 
ATOM     23  C   LIG    1        0.910  -8.611  -1.505  0.00  0.00    +0.030 A 
ATOM     24  C   LIG    1        1.719  -7.492  -1.523  0.00  0.00    +0.010 A 
ENDBRANCH  17  19
ENDBRANCH  14  16
ENDBRANCH  13  14
ENDBRANCH   1  13
BRANCH   5  25
ATOM     25  C   LIG    1        2.908   0.808  -1.402  0.00  0.00    +0.320 C 
BRANCH  25  26
ATOM     26  C   LIG    1        2.518   1.045   0.059  0.00  0.00    +0.070 C 
BRANCH  26  27
ATOM     27  C   LIG    1        1.204   1.780   0.115  0.00  0.00    -0.090 A 
ATOM     28  C   LIG    1        0.017   1.073   0.155  0.00  0.00    +0.020 A 
ATOM     29  C   LIG    1       -1.188   1.747   0.201  0.00  0.00    +0.010 A 
ATOM     30  C   LIG    1       -1.207   3.129   0.218  0.00  0.00    +0.000 A 
ATOM     31  C   LIG    1       -0.020   3.837   0.179  0.00  0.00    +0.010 A 
ATOM     32  C   LIG    1        1.185   3.162   0.128  0.00  0.00    +0.010 A 
ENDBRANCH  26  27
ENDBRANCH  25  26
ENDBRANCH   5  25
TORSDOF 8
