REMARK  Name = ZINCvU0000000Cuh.0
REMARK                            x       y       z     vdW  Elec       q    Type
REMARK                         _______ _______ _______ _____ _____    ______ ____
ROOT
ATOM      1  C   LIG    1       -0.070   5.323   0.031  0.00  0.00    +0.110 A 
ATOM      2  N   LIG    1       -1.141   6.064   0.040  0.00  0.00    -0.460 NA
ATOM      3  C   LIG    1       -0.966   7.366   0.049  0.00  0.00    +0.080 A 
ATOM      4  C   LIG    1        0.304   7.783   0.039  0.00  0.00    -0.070 A 
ATOM      5  S   LIG    1        1.351   6.365   0.022  0.00  0.00    +0.100 S 
ENDROOT
BRANCH   3   6
ATOM      6  C   LIG    1       -2.125   8.329   0.066  0.00  0.00    +0.080 C 
ATOM      7  C   LIG    1       -1.770   9.567  -0.760  0.00  0.00    +0.020 C 
ATOM      8  C   LIG    1       -2.963  10.528  -0.770  0.00  0.00    +0.280 C 
ATOM      9  N   LIG    1       -3.348  10.819   0.618  0.00  0.00    -0.600 N 
ATOM     10  C   LIG    1       -3.623   9.696   1.524  0.00  0.00    +0.310 C 
ATOM     11  C   LIG    1       -3.447  12.091   1.051  0.00  0.00    +0.650 C 
ATOM     12  O   LIG    1       -3.767  12.318   2.201  0.00  0.00    -0.570 OA
ATOM     13  C   LIG    1       -2.423   8.744   1.508  0.00  0.00    +0.030 C 
BRANCH  11  14
ATOM     14  O   LIG    1       -3.192  13.111   0.209  0.00  0.00    -0.360 OA
BRANCH  14  15
ATOM     15  C   LIG    1       -3.319  14.455   0.744  0.00  0.00    +0.140 C 
ATOM     16  C   LIG    1       -4.751  14.675   1.235  0.00  0.00    +0.040 C 
ATOM     17  C   LIG    1       -2.993  15.472  -0.351  0.00  0.00    +0.080 C 
ATOM     18  C   LIG    1       -2.346  14.632   1.912  0.00  0.00    +0.040 C 
ENDBRANCH  14  15
ENDBRANCH  11  14
ENDBRANCH   3   6
BRANCH   1  23
ATOM     19  C   LIG    1        1.178   1.781   0.000  0.00  0.00    -0.100 A 
ATOM     20  C   LIG    1       -0.013   1.076   0.008  0.00  0.00    +0.040 A 
ATOM     21  C   LIG    1       -1.222   1.748   0.017  0.00  0.00    +0.010 A 
ATOM     22  C   LIG    1       -1.247   3.127   0.031  0.00  0.00    +0.080 A 
ATOM     23  C   LIG    1       -0.050   3.845   0.023  0.00  0.00    -0.030 A 
ATOM     24  C   LIG    1        1.166   3.160   0.007  0.00  0.00    +0.050 A 
BRANCH  19  25
ATOM     25  C   LIG    1        2.490   1.040  -0.016  0.00  0.00    +0.250 C 
BRANCH  25  30
ATOM     26  C   LIG    1        3.126  -1.000  -4.575  0.00  0.00    +0.240 C 
ATOM     27  C   LIG    1        3.186  -0.071  -3.390  0.00  0.00    +0.160 A 
ATOM     28  N   LIG    1        3.809   1.072  -3.337  0.00  0.00    -0.290 NA
ATOM     29  N   LIG    1        3.642   1.596  -2.174  0.00  0.00    -0.280 NA
ATOM     30  C   LIG    1        2.914   0.801  -1.442  0.00  0.00    +0.170 A 
ATOM     31  O   LIG    1        2.605  -0.269  -2.195  0.00  0.00    -0.220 OA
ENDBRANCH  25  30
ENDBRANCH  19  25
ENDBRANCH   1  23
TORSDOF 6
