REMARK  Name = ZINCkj000005gK9B.1
REMARK                            x       y       z     vdW  Elec       q    Type
REMARK                         _______ _______ _______ _____ _____    ______ ____
ROOT
ATOM      1  C   LIG    1       -1.458   1.736   1.423  0.00  0.00    +0.250 C 
ATOM      2  C   LIG    1       -2.050   3.149   1.210  0.00  0.00    +0.210 C 
ATOM      3  N   LIG    1       -1.614   3.681  -0.024  0.00  0.00    -0.370 N 
ATOM      4  C   LIG    1       -0.174   3.906  -0.122  0.00  0.00    +0.250 C 
ATOM      5  C   LIG    1        0.496   2.643  -0.617  0.00  0.00    +0.080 C 
ATOM      6  C   LIG    1        0.965   1.806   0.587  0.00  0.00    +0.320 C 
ATOM      7  C   LIG    1       -2.299   4.963  -0.239  0.00  0.00    +0.320 C 
ATOM      8  H   LIG    1       -1.889   3.047  -0.759  0.00  0.00    +0.420 HD
ATOM      9  N   LIG    1       -0.035   1.834   1.673  0.00  0.00    -1.000 NA
ENDROOT
BRANCH   9  10
ATOM     10  S   LIG    1        0.489   1.982   3.237  0.00  0.00    +2.680 S 
ATOM     11  O   LIG    1        1.908   2.038   3.181  0.00  0.00    -0.930 OA
ATOM     12  O   LIG    1       -0.222   1.011   3.993  0.00  0.00    -0.910 OA
BRANCH  10  13
ATOM     13  C   LIG    1       -0.048   3.556   3.821  0.00  0.00    -0.730 A 
ATOM     14  C   LIG    1       -1.263   3.686   4.465  0.00  0.00    +0.370 A 
ATOM     15  N   LIG    1       -1.673   4.859   4.905  0.00  0.00    -0.450 NA
ATOM     16  C   LIG    1       -0.948   5.949   4.751  0.00  0.00    +0.330 A 
ATOM     17  C   LIG    1        0.280   5.898   4.114  0.00  0.00    +0.040 A 
ATOM     18  F   LIG    1        1.019   7.019   3.959  0.00  0.00    -0.110 F 
ATOM     19  C   LIG    1        0.747   4.678   3.643  0.00  0.00    +0.150 A 
ENDBRANCH  10  13
ENDBRANCH   9  10
BRANCH   1  21
ATOM     20  C   LIG    1       -1.672  -0.380   2.734  0.00  0.00    +0.050 C 
ATOM     21  C   LIG    1       -2.141   1.072   2.619  0.00  0.00    +0.030 C 
ENDBRANCH   1  21
TORSDOF 3
