REMARK  Name = ZINCkj000005gK9B.0
REMARK                            x       y       z     vdW  Elec       q    Type
REMARK                         _______ _______ _______ _____ _____    ______ ____
ROOT
ATOM      1  C   LIG    1        0.100   1.894  -2.542  0.00  0.00    +0.250 C 
ATOM      2  C   LIG    1       -0.808   2.098  -1.309  0.00  0.00    +0.240 C 
ATOM      3  N   LIG    1       -0.197   1.498  -0.094  0.00  0.00    -0.390 N 
ATOM      4  C   LIG    1        1.226   1.720  -0.088  0.00  0.00    +0.270 C 
ATOM      5  C   LIG    1        1.829   0.414  -0.588  0.00  0.00    +0.040 C 
ATOM      6  C   LIG    1        2.055   0.367  -2.037  0.00  0.00    +0.350 C 
ATOM      7  C   LIG    1       -0.790   2.115   1.100  0.00  0.00    +0.330 C 
ATOM      8  H   LIG    1       -0.380   0.506  -0.083  0.00  0.00    +0.420 HD
ATOM      9  N   LIG    1        0.716   0.603  -2.683  0.00  0.00    -1.000 NA
ENDROOT
BRANCH   9  10
ATOM     10  S   LIG    1       -0.033  -0.601  -3.538  0.00  0.00    +2.690 S 
ATOM     11  O   LIG    1        0.842  -1.721  -3.504  0.00  0.00    -0.930 OA
ATOM     12  O   LIG    1       -0.491  -0.010  -4.747  0.00  0.00    -0.920 OA
BRANCH  10  13
ATOM     13  C   LIG    1       -1.472  -1.066  -2.635  0.00  0.00    -0.730 A 
ATOM     14  C   LIG    1       -1.384  -1.976  -1.599  0.00  0.00    +0.360 A 
ATOM     15  N   LIG    1       -2.455  -2.325  -0.913  0.00  0.00    -0.460 NA
ATOM     16  C   LIG    1       -3.647  -1.835  -1.191  0.00  0.00    +0.330 A 
ATOM     17  C   LIG    1       -3.814  -0.923  -2.219  0.00  0.00    +0.040 A 
ATOM     18  F   LIG    1       -5.038  -0.424  -2.499  0.00  0.00    -0.110 F 
ATOM     19  C   LIG    1       -2.708  -0.527  -2.958  0.00  0.00    +0.150 A 
ENDBRANCH  10  13
ENDBRANCH   9  10
BRANCH   1  21
ATOM     20  C   LIG    1        0.189   2.298  -5.006  0.00  0.00    +0.050 C 
ATOM     21  C   LIG    1       -0.736   2.158  -3.795  0.00  0.00    +0.020 C 
ENDBRANCH   1  21
TORSDOF 3
