REMARK  Name = ZINCrD0000074sGV.0
REMARK                            x       y       z     vdW  Elec       q    Type
REMARK                         _______ _______ _______ _____ _____    ______ ____
ROOT
ATOM      1  C   LIG    1        3.995   4.382   2.387  0.00  0.00    +0.290 C 
ATOM      2  C   LIG    1        4.382   4.427   0.907  0.00  0.00    +0.030 C 
ENDROOT
BRANCH   1   3
ATOM      3  C   LIG    1        5.238   4.485   3.233  0.00  0.00    -0.130 A 
ATOM      4  C   LIG    1        6.024   3.368   3.445  0.00  0.00    +0.050 A 
ATOM      5  C   LIG    1        7.166   3.461   4.216  0.00  0.00    -0.070 A 
ATOM      6  C   LIG    1        7.519   4.675   4.787  0.00  0.00    +0.130 A 
ATOM      7  C   LIG    1        6.725   5.794   4.578  0.00  0.00    -0.010 A 
ATOM      8  C   LIG    1        5.587   5.696   3.802  0.00  0.00    +0.070 A 
BRANCH   6   9
ATOM      9  O   LIG    1        8.639   4.768   5.551  0.00  0.00    -0.310 OA
BRANCH   9  10
ATOM     10  C   LIG    1        9.407   3.576   5.723  0.00  0.00    +0.270 C 
BRANCH  10  11
ATOM     11  C   LIG    1       10.603   3.870   6.593  0.00  0.00    -0.150 A 
ATOM     12  C   LIG    1       11.801   4.274   6.025  0.00  0.00    +0.090 A 
ATOM     13  C   LIG    1       12.873   4.539   6.864  0.00  0.00    -0.030 A 
ATOM     14  C   LIG    1       12.715   4.382   8.228  0.00  0.00    +0.270 A 
ATOM     15  N   LIG    1       11.562   3.991   8.733  0.00  0.00    -0.490 NA
ATOM     16  C   LIG    1       10.520   3.736   7.966  0.00  0.00    +0.290 A 
ENDBRANCH  10  11
ENDBRANCH   9  10
ENDBRANCH   6   9
ENDBRANCH   1   3
BRANCH   1  18
ATOM     17  C   LIG    1        1.986   3.005   2.459  0.00  0.00    +0.500 C 
ATOM     18  N   LIG    1        3.312   3.119   2.675  0.00  0.00    -0.720 N 
ATOM     19  H   LIG    1        3.813   2.364   3.021  0.00  0.00    +0.400 HD
ATOM     20  O   LIG    1        1.359   3.949   2.025  0.00  0.00    -0.510 OA
BRANCH  17  21
ATOM     21  C   LIG    1        1.283   1.706   2.755  0.00  0.00    +0.370 C 
BRANCH  21  28
ATOM     22  C   LIG    1       -0.013   1.086   0.008  0.00  0.00    +0.150 C 
ATOM     23  C   LIG    1       -0.718   1.572   1.248  0.00  0.00    +0.090 A 
ATOM     24  C   LIG    1       -2.042   1.825   1.365  0.00  0.00    -0.120 A 
ATOM     25  C   LIG    1       -2.284   2.253   2.675  0.00  0.00    +0.080 A 
ATOM     26  N   LIG    1       -1.145   2.264   3.318  0.00  0.00    -0.290 NA
ATOM     27  C   LIG    1       -3.625   2.639   3.244  0.00  0.00    +0.160 C 
ATOM     28  N   LIG    1       -0.141   1.838   2.438  0.00  0.00    -0.360 N 
ENDBRANCH  21  28
ENDBRANCH  17  21
ENDBRANCH   1  18
TORSDOF 7
