REMARK  Name = ZINCrD00000fdqIh.0
REMARK                            x       y       z     vdW  Elec       q    Type
REMARK                         _______ _______ _______ _____ _____    ______ ____
ROOT
ATOM      1  C   LIG    1       -0.278  -8.794  -1.529  0.00  0.00    +0.570 C 
ATOM      2  N   LIG    1       -0.100  -8.005  -2.608  0.00  0.00    -0.610 N 
ATOM      3  C   LIG    1        0.091  -8.592  -3.941  0.00  0.00    +0.260 C 
ATOM      4  C   LIG    1        1.374  -8.020  -4.552  0.00  0.00    +0.020 C 
ATOM      5  C   LIG    1        1.302  -6.492  -4.542  0.00  0.00    +0.030 C 
ATOM      6  C   LIG    1        1.190  -5.994  -3.099  0.00  0.00    -0.030 C 
ATOM      7  C   LIG    1       -0.095  -6.542  -2.472  0.00  0.00    +0.280 C 
ATOM      8  O   LIG    1       -0.331  -8.303  -0.419  0.00  0.00    -0.530 OA
ENDROOT
BRANCH   1  15
ATOM      9  C   LIG    1        1.459 -10.565  -0.039  0.00  0.00    +0.100 C 
ATOM     10  C   LIG    1        0.425 -11.121  -0.983  0.00  0.00    -0.040 A 
ATOM     11  C   LIG    1        0.298 -12.486  -1.144  0.00  0.00    +0.010 A 
ATOM     12  C   LIG    1       -0.651 -12.998  -2.011  0.00  0.00    +0.040 A 
ATOM     13  C   LIG    1       -1.479 -12.147  -2.722  0.00  0.00    +0.000 A 
ATOM     14  C   LIG    1       -1.366 -10.781  -2.566  0.00  0.00    +0.040 A 
ATOM     15  C   LIG    1       -0.407 -10.257  -1.697  0.00  0.00    -0.130 A 
ENDBRANCH   1  15
BRANCH   6  16
ATOM     16  C   LIG    1        1.151  -4.464  -3.088  0.00  0.00    +0.270 C 
BRANCH  16  17
ATOM     17  N   LIG    1        1.165  -3.985  -1.704  0.00  0.00    -0.730 N 
ATOM     18  H   LIG    1        1.195  -4.620  -0.971  0.00  0.00    +0.400 HD
ATOM     19  C   LIG    1        1.136  -2.662  -1.448  0.00  0.00    +0.520 C 
ATOM     20  O   LIG    1        1.098  -1.868  -2.364  0.00  0.00    -0.530 OA
BRANCH  19  21
ATOM     21  C   LIG    1        1.150  -2.169  -0.024  0.00  0.00    +0.120 C 
BRANCH  21  22
ATOM     22  C   LIG    1        1.112  -0.663  -0.013  0.00  0.00    -0.040 A 
ATOM     23  C   LIG    1       -0.103  -0.003   0.014  0.00  0.00    +0.010 A 
ATOM     24  C   LIG    1       -0.139   1.379   0.023  0.00  0.00    +0.040 A 
ATOM     25  C   LIG    1        1.038   2.102   0.006  0.00  0.00    -0.010 A 
ATOM     26  C   LIG    1        2.255   1.442  -0.022  0.00  0.00    +0.100 A 
ATOM     27  F   LIG    1        3.407   2.148  -0.039  0.00  0.00    -0.140 F 
ATOM     28  C   LIG    1        2.291   0.058  -0.032  0.00  0.00    -0.010 A 
ENDBRANCH  21  22
ENDBRANCH  19  21
ENDBRANCH  16  17
ENDBRANCH   6  16
TORSDOF 5
