REMARK  Name = ZINCpk00000y6v1x.0
REMARK                            x       y       z     vdW  Elec       q    Type
REMARK                         _______ _______ _______ _____ _____    ______ ____
ROOT
ATOM      1  C   LIG    1       -0.180  -3.365  -5.967  0.00  0.00    +0.250 C 
ATOM      2  C   LIG    1       -1.050  -3.026  -7.184  0.00  0.00    +0.040 C 
ATOM      3  C   LIG    1       -0.834  -4.104  -8.248  0.00  0.00    +0.090 C 
ATOM      4  C   LIG    1       -0.954  -5.468  -7.631  0.00  0.00    +0.520 C 
ATOM      5  N   LIG    1       -0.877  -5.691  -6.319  0.00  0.00    -0.590 N 
ATOM      6  C   LIG    1       -0.962  -7.077  -5.852  0.00  0.00    +0.280 C 
ATOM      7  O   LIG    1       -1.132  -6.417  -8.366  0.00  0.00    -0.540 OA
ATOM      8  C   LIG    1       -0.713  -4.643  -5.319  0.00  0.00    +0.320 C 
ENDROOT
BRANCH   8   9
ATOM      9  C   LIG    1        0.257  -5.108  -4.264  0.00  0.00    +0.180 A 
ATOM     10  N   LIG    1        1.403  -5.690  -4.488  0.00  0.00    -0.460 NA
ATOM     11  C   LIG    1        1.997  -5.964  -3.316  0.00  0.00    +0.150 A 
ATOM     12  C   LIG    1        1.187  -5.535  -2.329  0.00  0.00    +0.140 A 
ATOM     13  N   LIG    1        0.086  -4.987  -2.930  0.00  0.00    -0.450 N 
ATOM     14  C   LIG    1       -1.065  -4.385  -2.252  0.00  0.00    +0.320 C 
ENDBRANCH   8   9
BRANCH   1  16
ATOM     15  C   LIG    1        0.595  -1.211  -5.132  0.00  0.00    +0.610 C 
ATOM     16  N   LIG    1       -0.236  -2.264  -5.002  0.00  0.00    -0.710 N 
ATOM     17  H   LIG    1       -0.871  -2.293  -4.269  0.00  0.00    +0.400 HD
ATOM     18  O   LIG    1        1.391  -1.174  -6.050  0.00  0.00    -0.520 OA
BRANCH  15  21
ATOM     19  C   LIG    1       -0.047   1.107  -2.471  0.00  0.00    +0.210 A 
ATOM     20  N   LIG    1       -0.291  -0.012  -3.086  0.00  0.00    -0.460 NA
ATOM     21  C   LIG    1        0.539  -0.103  -4.160  0.00  0.00    -0.080 A 
ATOM     22  C   LIG    1        1.312   1.017  -4.165  0.00  0.00    +0.250 A 
ATOM     23  O   LIG    1        0.935   1.757  -3.111  0.00  0.00    -0.190 OA
BRANCH  19  24
ATOM     24  C   LIG    1       -0.753   1.593  -1.232  0.00  0.00    +0.180 C 
BRANCH  24  26
ATOM     25  C   LIG    1       -0.729   1.579   1.267  0.00  0.00    +0.030 C 
ATOM     26  C   LIG    1       -0.013   1.086   0.008  0.00  0.00    +0.020 C 
ENDBRANCH  24  26
ENDBRANCH  19  24
ENDBRANCH  15  21
ENDBRANCH   1  16
TORSDOF 5
