REMARK  Name = ZINCrD00000hQ42x.0
REMARK                            x       y       z     vdW  Elec       q    Type
REMARK                         _______ _______ _______ _____ _____    ______ ____
ROOT
ATOM      1  N   LIG    1       -1.649  -1.310   0.609  0.00  0.00    -0.600 N 
ATOM      2  C   LIG    1       -1.322  -0.008   0.493  0.00  0.00    +0.520 C 
ATOM      3  O   LIG    1       -2.104   0.848   0.848  0.00  0.00    -0.500 OA
ENDROOT
BRANCH   2   4
ATOM      4  C   LIG    1        0.016   0.385  -0.078  0.00  0.00    +0.160 C 
ATOM      5  C   LIG    1        1.154  -0.019   0.885  0.00  0.00    +0.040 C 
ATOM      6  C   LIG    1        2.174   1.136   0.768  0.00  0.00    +0.040 C 
ATOM      7  C   LIG    1        1.531   2.102  -0.253  0.00  0.00    +0.150 C 
ATOM      8  O   LIG    1        0.116   1.822  -0.185  0.00  0.00    -0.310 OA
BRANCH   7   9
ATOM      9  C   LIG    1        1.802   3.532   0.136  0.00  0.00    +0.520 C 
ATOM     10  O   LIG    1        0.892   4.243   0.507  0.00  0.00    -0.510 OA
ATOM     11  N   LIG    1        3.056   4.022   0.070  0.00  0.00    -0.850 N 
ATOM     12  H   LIG    1        3.231   4.943   0.320  0.00  0.00    +0.410 HD
ATOM     13  H   LIG    1        3.784   3.454  -0.227  0.00  0.00    +0.400 HD
ENDBRANCH   7   9
ENDBRANCH   2   4
BRANCH   1  15
ATOM     14  C   LIG    1       -0.426  -3.296   1.345  0.00  0.00    +0.030 C 
ATOM     15  C   LIG    1       -0.704  -2.344   0.180  0.00  0.00    +0.220 C 
ATOM     16  C   LIG    1       -1.302  -3.129  -0.989  0.00  0.00    +0.020 C 
ENDBRANCH   1  15
BRANCH   1  17
ATOM     17  C   LIG    1       -2.950  -1.692   1.164  0.00  0.00    +0.380 C 
BRANCH  17  18
ATOM     18  C   LIG    1       -2.854  -1.762   2.666  0.00  0.00    -0.200 A 
ATOM     19  C   LIG    1       -3.002  -0.725   3.495  0.00  0.00    +0.040 A 
ATOM     20  C   LIG    1       -2.873  -1.025   4.836  0.00  0.00    +0.020 A 
ATOM     21  C   LIG    1       -2.616  -2.322   5.101  0.00  0.00    -0.150 A 
ATOM     22  S   LIG    1       -2.537  -3.223   3.593  0.00  0.00    +0.130 S 
BRANCH  21  23
ATOM     23  C   LIG    1       -2.435  -2.898   6.450  0.00  0.00    +0.020 A 
ATOM     24  C   LIG    1       -2.521  -2.080   7.578  0.00  0.00    +0.020 A 
ATOM     25  C   LIG    1       -2.355  -2.624   8.836  0.00  0.00    +0.060 A 
ATOM     26  C   LIG    1       -2.095  -3.974   8.980  0.00  0.00    -0.010 A 
ATOM     27  C   LIG    1       -2.004  -4.792   7.865  0.00  0.00    +0.110 A 
ATOM     28  F   LIG    1       -1.749  -6.110   8.014  0.00  0.00    -0.140 F 
ATOM     29  C   LIG    1       -2.172  -4.260   6.601  0.00  0.00    -0.020 A 
ENDBRANCH  21  23
ENDBRANCH  17  18
ENDBRANCH   1  17
TORSDOF 6
