REMARK  Name = ZINCtV000002I1BV.0
REMARK                            x       y       z     vdW  Elec       q    Type
REMARK                         _______ _______ _______ _____ _____    ______ ____
ROOT
ATOM      1  C   LIG    1        7.233   7.171  -1.908  0.00  0.00    +0.160 C 
ENDROOT
BRANCH   1   4
ATOM      2  C   LIG    1        5.215   6.067   0.911  0.00  0.00    +0.030 A 
ATOM      3  N   LIG    1        5.524   6.344  -0.310  0.00  0.00    -0.420 NA
ATOM      4  C   LIG    1        6.738   6.807  -0.532  0.00  0.00    +0.080 A 
ATOM      5  C   LIG    1        7.495   6.926   0.563  0.00  0.00    -0.070 A 
ATOM      6  S   LIG    1        6.535   6.402   1.945  0.00  0.00    +0.160 S 
BRANCH   2   7
ATOM      7  C   LIG    1        3.880   5.531   1.362  0.00  0.00    +0.320 C 
BRANCH   7   8
ATOM      8  O   LIG    1        3.906   4.102   1.332  0.00  0.00    -0.300 OA
BRANCH   8  13
ATOM      9  C   LIG    1       -0.798   1.427   2.896  0.00  0.00    +0.090 C 
ATOM     10  C   LIG    1        0.462   2.143   2.481  0.00  0.00    -0.120 A 
ATOM     11  C   LIG    1        1.573   1.417   2.094  0.00  0.00    +0.050 A 
ATOM     12  C   LIG    1        2.727   2.070   1.707  0.00  0.00    -0.010 A 
ATOM     13  C   LIG    1        2.772   3.457   1.712  0.00  0.00    +0.130 A 
ATOM     14  C   LIG    1        1.658   4.184   2.106  0.00  0.00    -0.080 A 
ATOM     15  C   LIG    1        0.506   3.525   2.492  0.00  0.00    +0.050 A 
ENDBRANCH   8  13
ENDBRANCH   7   8
ENDBRANCH   2   7
ENDBRANCH   1   4
BRANCH   1  16
ATOM     16  C   LIG    1        7.064   5.992  -2.831  0.00  0.00    +0.520 C 
ATOM     17  N   LIG    1        7.441   6.087  -4.122  0.00  0.00    -0.610 N 
ATOM     18  C   LIG    1        8.015   7.336  -4.627  0.00  0.00    +0.270 C 
ATOM     19  O   LIG    1        6.588   4.957  -2.413  0.00  0.00    -0.500 OA
BRANCH  17  20
ATOM     20  C   LIG    1        7.277   4.940  -5.019  0.00  0.00    +0.300 C 
ATOM     21  C   LIG    1        8.652   4.442  -5.467  0.00  0.00    +0.040 C 
BRANCH  20  22
ATOM     22  C   LIG    1        6.476   5.358  -6.226  0.00  0.00    -0.090 A 
ATOM     23  C   LIG    1        7.111   5.574  -7.434  0.00  0.00    +0.060 A 
ATOM     24  C   LIG    1        6.376   5.952  -8.543  0.00  0.00    +0.030 A 
ATOM     25  C   LIG    1        5.008   6.124  -8.441  0.00  0.00    -0.020 A 
ATOM     26  C   LIG    1        4.373   5.913  -7.229  0.00  0.00    +0.030 A 
ATOM     27 CL   LIG    1        4.086   6.604  -9.831  0.00  0.00    -0.050 Cl
ATOM     28  C   LIG    1        5.107   5.530  -6.122  0.00  0.00    -0.010 A 
ATOM     29 CL   LIG    1        4.312   5.264  -4.602  0.00  0.00    -0.030 Cl
ENDBRANCH  20  22
ENDBRANCH  17  20
ENDBRANCH   1  16
TORSDOF 7
