REMARK  Name = ZINCvU0000000J69.0
REMARK                            x       y       z     vdW  Elec       q    Type
REMARK                         _______ _______ _______ _____ _____    ______ ____
ROOT
ATOM      1  N   LIG    1       -3.377   4.785  -1.122  0.00  0.00    -0.630 N 
ATOM      2  C   LIG    1       -2.307   5.054  -1.896  0.00  0.00    +0.580 C 
ATOM      3  O   LIG    1       -1.191   5.047  -1.413  0.00  0.00    -0.490 OA
ENDROOT
BRANCH   1   4
ATOM      4  C   LIG    1       -4.429   3.891  -1.613  0.00  0.00    +0.280 C 
ATOM      5  C   LIG    1       -5.386   4.662  -2.539  0.00  0.00    +0.060 C 
ATOM      6  C   LIG    1       -6.263   3.647  -3.300  0.00  0.00    -0.290 C 
ATOM      7  S   LIG    1       -5.247   2.129  -3.409  0.00  0.00    +2.380 S 
ATOM      8  O   LIG    1       -4.867   1.914  -4.761  0.00  0.00    -0.920 OA
ATOM      9  O   LIG    1       -5.876   1.088  -2.674  0.00  0.00    -0.920 OA
ATOM     10  C   LIG    1       -3.807   2.755  -2.464  0.00  0.00    -0.330 C 
ENDBRANCH   1   4
BRANCH   2  11
ATOM     11  C   LIG    1       -2.490   5.356  -3.331  0.00  0.00    -0.150 A 
ATOM     12  C   LIG    1       -3.472   4.693  -4.068  0.00  0.00    +0.010 A 
ATOM     13  C   LIG    1       -3.640   4.984  -5.406  0.00  0.00    +0.010 A 
ATOM     14  C   LIG    1       -2.831   5.923  -6.020  0.00  0.00    -0.040 A 
ATOM     15  C   LIG    1       -1.852   6.580  -5.297  0.00  0.00    +0.010 A 
ATOM     16  C   LIG    1       -1.676   6.303  -3.957  0.00  0.00    +0.070 A 
BRANCH  14  17
ATOM     17  C   LIG    1       -3.017   6.231  -7.484  0.00  0.00    -0.040 C 
ATOM     18  C   LIG    1       -3.360   7.712  -7.653  0.00  0.00    +0.040 C 
ATOM     19  C   LIG    1       -4.155   5.376  -8.044  0.00  0.00    +0.030 C 
ATOM     20  C   LIG    1       -1.724   5.917  -8.239  0.00  0.00    +0.040 C 
ENDBRANCH  14  17
ENDBRANCH   2  11
BRANCH   1  21
ATOM     21  C   LIG    1       -3.489   5.386   0.209  0.00  0.00    +0.350 C 
BRANCH  21  25
ATOM     22  C   LIG    1       -1.659   2.818   3.090  0.00  0.00    -0.060 A 
ATOM     23  C   LIG    1       -3.000   2.674   2.789  0.00  0.00    +0.000 A 
ATOM     24  C   LIG    1       -3.591   3.502   1.853  0.00  0.00    +0.010 A 
ATOM     25  C   LIG    1       -2.843   4.480   1.226  0.00  0.00    -0.120 A 
ATOM     26  C   LIG    1       -1.502   4.624   1.526  0.00  0.00    +0.040 A 
ATOM     27  C   LIG    1       -0.909   3.793   2.459  0.00  0.00    +0.010 A 
BRANCH  22  29
ATOM     28  C   LIG    1       -1.134   0.459   3.644  0.00  0.00    +0.040 C 
ATOM     29  C   LIG    1       -1.013   1.912   4.107  0.00  0.00    -0.030 C 
ATOM     30  C   LIG    1       -1.715   2.078   5.456  0.00  0.00    +0.040 C 
ATOM     31  C   LIG    1        0.465   2.280   4.252  0.00  0.00    +0.030 C 
ENDBRANCH  22  29
ENDBRANCH  21  25
ENDBRANCH   1  21
TORSDOF 6
