REMARK  Name = ZINCrD0000071snV.0
REMARK                            x       y       z     vdW  Elec       q    Type
REMARK                         _______ _______ _______ _____ _____    ______ ____
ROOT
ATOM      1  C   LIG    1        1.205  -2.196  -0.033  0.00  0.00    +0.530 C 
ATOM      2  O   LIG    1        2.254  -2.808  -0.056  0.00  0.00    -0.500 OA
ENDROOT
BRANCH   1   8
ATOM      3  N   LIG    1        1.367   3.364   0.005  0.00  0.00    -0.380 N 
ATOM      4  N   LIG    1        2.749   3.573  -0.017  0.00  0.00    -0.230 NA
ATOM      5  C   LIG    1        3.375   2.431  -0.035  0.00  0.00    +0.310 A 
ATOM      6  C   LIG    1        2.366   1.375  -0.026  0.00  0.00    -0.240 A 
ATOM      7  C   LIG    1        2.420  -0.019  -0.037  0.00  0.00    +0.240 A 
ATOM      8  C   LIG    1        1.212  -0.720  -0.022  0.00  0.00    -0.230 A 
ATOM      9  C   LIG    1        0.007  -0.005   0.004  0.00  0.00    +0.410 A 
ATOM     10  N   LIG    1       -0.008   1.307   0.013  0.00  0.00    -0.510 NA
ATOM     11  C   LIG    1        1.112   2.022  -0.001  0.00  0.00    +0.340 A 
BRANCH   3  13
ATOM     12  C   LIG    1        0.538   5.278   1.282  0.00  0.00    +0.050 C 
ATOM     13  C   LIG    1        0.351   4.419   0.030  0.00  0.00    +0.270 C 
ATOM     14  C   LIG    1        0.495   5.296  -1.216  0.00  0.00    +0.050 C 
ENDBRANCH   3  13
ENDBRANCH   1   8
BRANCH   1  15
ATOM     15  O   LIG    1        0.035  -2.864  -0.019  0.00  0.00    -0.320 OA
BRANCH  15  16
ATOM     16  C   LIG    1        0.104  -4.314  -0.031  0.00  0.00    +0.200 C 
ATOM     17  C   LIG    1        0.104  -4.812  -1.478  0.00  0.00    +0.070 C 
BRANCH  16  18
ATOM     18  C   LIG    1       -1.089  -4.880   0.695  0.00  0.00    +0.520 C 
ATOM     19  N   LIG    1       -1.187  -6.209   0.898  0.00  0.00    -0.670 N 
ATOM     20  H   LIG    1       -0.524  -6.807   0.520  0.00  0.00    +0.420 HD
ATOM     21  O   LIG    1       -1.962  -4.139   1.096  0.00  0.00    -0.490 OA
BRANCH  19  22
ATOM     22  C   LIG    1       -2.244  -6.725   1.656  0.00  0.00    +0.170 A 
ATOM     23  C   LIG    1       -2.043  -7.835   2.465  0.00  0.00    -0.020 A 
ATOM     24  C   LIG    1       -3.086  -8.340   3.216  0.00  0.00    +0.070 A 
ATOM     25  C   LIG    1       -4.334  -7.748   3.155  0.00  0.00    -0.030 A 
ATOM     26  C   LIG    1       -4.541  -6.644   2.345  0.00  0.00    +0.120 A 
ATOM     27  F   LIG    1       -5.761  -6.067   2.287  0.00  0.00    -0.130 F 
ATOM     28  C   LIG    1       -3.498  -6.131   1.595  0.00  0.00    -0.010 A 
ENDBRANCH  19  22
ENDBRANCH  16  18
ENDBRANCH  15  16
ENDBRANCH   1  15
TORSDOF 6
