REMARK  Name = ZINC550000002rAm.0
REMARK                            x       y       z     vdW  Elec       q    Type
REMARK                         _______ _______ _______ _____ _____    ______ ____
ROOT
ATOM      1  C   LIG    1       -2.984   1.383  -2.316  0.00  0.00    +0.090 C 
ATOM      2  C   LIG    1       -2.207   0.938  -1.076  0.00  0.00    +0.180 C 
ENDROOT
BRANCH   2   3
ATOM      3  N   LIG    1       -2.125  -0.528  -1.048  0.00  0.00    -0.640 N 
ATOM      4  H   LIG    1       -3.056  -0.917  -1.019  0.00  0.00    +0.440 HD
ATOM      5  H   LIG    1       -1.613  -0.822  -0.230  0.00  0.00    +0.440 HD
ATOM      6  H   LIG    1       -1.651  -0.854  -1.877  0.00  0.00    +0.430 HD
ENDBRANCH   2   3
BRANCH   2   7
ATOM      7  C   LIG    1       -0.795   1.527  -1.120  0.00  0.00    +0.210 C 
BRANCH   7   8
ATOM      8  N   LIG    1       -0.012   1.005   0.008  0.00  0.00    -0.850 NA
ATOM      9  H   LIG    1        0.925   1.379   0.001  0.00  0.00    +0.380 HD
ATOM     10  H   LIG    1        0.002  -0.004   0.002  0.00  0.00    +0.330 HD
ENDBRANCH   7   8
ENDBRANCH   2   7
TORSDOF 3
