REMARK  Name = ZINC550000002rAm.2
REMARK                            x       y       z     vdW  Elec       q    Type
REMARK                         _______ _______ _______ _____ _____    ______ ____
ROOT
ATOM      1  C   LIG    1       -2.888   1.542   2.419  0.00  0.00    +0.140 C 
ATOM      2  C   LIG    1       -2.135   0.949   1.227  0.00  0.00    +0.180 C 
ENDROOT
BRANCH   2   3
ATOM      3  N   LIG    1       -2.808   1.335  -0.020  0.00  0.00    -0.650 N 
ATOM      4  H   LIG    1       -2.312   0.944  -0.806  0.00  0.00    +0.420 HD
ATOM      5  H   LIG    1       -2.822   2.341  -0.097  0.00  0.00    +0.450 HD
ATOM      6  H   LIG    1       -3.755   0.986  -0.013  0.00  0.00    +0.460 HD
ENDBRANCH   2   3
BRANCH   2   7
ATOM      7  C   LIG    1       -0.699   1.479   1.216  0.00  0.00    +0.310 C 
BRANCH   7   8
ATOM      8  N   LIG    1       -0.012   1.005   0.008  0.00  0.00    -0.650 N 
ATOM      9  H   LIG    1       -0.500   1.339  -0.810  0.00  0.00    +0.420 HD
ATOM     10  H   LIG    1        0.935   1.354   0.000  0.00  0.00    +0.460 HD
ATOM     11  H   LIG    1        0.002  -0.004   0.002  0.00  0.00    +0.450 HD
ENDBRANCH   7   8
ENDBRANCH   2   7
TORSDOF 3
