REMARK  Name = ZINC550000002rAm.1
REMARK                            x       y       z     vdW  Elec       q    Type
REMARK                         _______ _______ _______ _____ _____    ______ ____
ROOT
ATOM      1  C   LIG    1       -0.013   1.086   0.008  0.00  0.00    +0.040 C 
ATOM      2  C   LIG    1       -0.729   1.579   1.267  0.00  0.00    +0.170 C 
ENDROOT
BRANCH   2   3
ATOM      3  N   LIG    1       -0.018   1.093   2.457  0.00  0.00    -0.860 NA
ATOM      4  H   LIG    1        0.912   1.480   2.507  0.00  0.00    +0.350 HD
ATOM      5  H   LIG    1        0.009   0.084   2.475  0.00  0.00    +0.370 HD
ENDBRANCH   2   3
BRANCH   2   6
ATOM      6  C   LIG    1       -0.750   3.109   1.275  0.00  0.00    +0.270 C 
BRANCH   6   7
ATOM      7  N   LIG    1       -1.329   3.584   2.539  0.00  0.00    -0.630 N 
ATOM      8  H   LIG    1       -2.272   3.234   2.629  0.00  0.00    +0.440 HD
ATOM      9  H   LIG    1       -1.343   4.593   2.544  0.00  0.00    +0.440 HD
ATOM     10  H   LIG    1       -0.772   3.251   3.311  0.00  0.00    +0.440 HD
ENDBRANCH   6   7
ENDBRANCH   2   6
TORSDOF 3
