REMARK  Name = ZINCwl0000000o26.0
REMARK                            x       y       z     vdW  Elec       q    Type
REMARK                         _______ _______ _______ _____ _____    ______ ____
ROOT
ATOM      1  N   LIG    1        4.509   8.327  -0.172  0.00  0.00    -0.520 NA
ATOM      2  C   LIG    1        5.000   8.150   1.202  0.00  0.00    +0.200 C 
ATOM      3  C   LIG    1        6.485   8.517   1.261  0.00  0.00    +0.200 C 
ATOM      4  N   LIG    1        6.662   9.906   0.816  0.00  0.00    -0.480 N 
ATOM      5  C   LIG    1        6.170  10.083  -0.557  0.00  0.00    +0.200 C 
ATOM      6  C   LIG    1        4.686   9.716  -0.617  0.00  0.00    +0.200 C 
ENDROOT
BRANCH   4   7
ATOM      7  C   LIG    1        8.000  10.301   0.925  0.00  0.00    +0.090 A 
ATOM      8  C   LIG    1        8.982   9.361   1.196  0.00  0.00    +0.010 A 
ATOM      9  C   LIG    1       10.305   9.753   1.298  0.00  0.00    +0.020 A 
ATOM     10  C   LIG    1       10.649  11.082   1.141  0.00  0.00    +0.030 A 
ATOM     11  C   LIG    1        9.673  12.027   0.876  0.00  0.00    -0.050 A 
ATOM     12  C   LIG    1        8.348  11.641   0.767  0.00  0.00    +0.100 A 
BRANCH  12  13
ATOM     13  O   LIG    1        7.388  12.569   0.506  0.00  0.00    -0.320 OA
BRANCH  13  14
ATOM     14  C   LIG    1        7.828  13.904   0.250  0.00  0.00    +0.220 C 
BRANCH  14  15
ATOM     15  C   LIG    1        6.612  14.817   0.078  0.00  0.00    +0.290 C 
BRANCH  15  16
ATOM     16  N   LIG    1        5.845  14.394  -1.101  0.00  0.00    -0.390 N 
ATOM     17  C   LIG    1        6.647  14.613  -2.312  0.00  0.00    +0.320 C 
ATOM     18  C   LIG    1        4.606  15.178  -1.186  0.00  0.00    +0.320 C 
ATOM     19  H   LIG    1        5.618  13.414  -1.021  0.00  0.00    +0.430 HD
ENDBRANCH  15  16
ENDBRANCH  14  15
ENDBRANCH  13  14
ENDBRANCH  12  13
ENDBRANCH   4   7
BRANCH   1  20
ATOM     20  C   LIG    1        3.104   7.912  -0.286  0.00  0.00    +0.230 C 
BRANCH  20  23
ATOM     21  N   LIG    1        1.797   5.819  -0.117  0.00  0.00    -0.520 N 
ATOM     22  H   LIG    1        1.000   6.338  -0.304  0.00  0.00    +0.430 HD
ATOM     23  C   LIG    1        2.999   6.426  -0.060  0.00  0.00    +0.510 C 
ATOM     24  O   LIG    1        3.996   5.776   0.173  0.00  0.00    -0.520 OA
BRANCH  21  26
ATOM     25  C   LIG    1        0.498   3.830   0.036  0.00  0.00    +0.570 C 
ATOM     26  N   LIG    1        1.700   4.437   0.093  0.00  0.00    -0.520 N 
ATOM     27  H   LIG    1        2.497   3.917   0.280  0.00  0.00    +0.430 HD
ATOM     28  O   LIG    1       -0.502   4.481  -0.198  0.00  0.00    -0.530 OA
BRANCH  25  34
ATOM     29  C   LIG    1       -2.279  -0.305   0.344  0.00  0.00    +0.100 C 
ATOM     30  C   LIG    1       -0.938   0.379   0.407  0.00  0.00    -0.090 A 
ATOM     31  C   LIG    1        0.202  -0.359   0.673  0.00  0.00    +0.040 A 
ATOM     32  C   LIG    1        1.437   0.261   0.733  0.00  0.00    +0.010 A 
ATOM     33  C   LIG    1        1.540   1.621   0.527  0.00  0.00    +0.040 A 
ATOM     34  C   LIG    1        0.395   2.372   0.258  0.00  0.00    -0.130 A 
ATOM     35  C   LIG    1       -0.848   1.740   0.200  0.00  0.00    +0.090 A 
ENDBRANCH  25  34
ENDBRANCH  21  26
ENDBRANCH  20  23
ENDBRANCH   1  20
TORSDOF 9
