REMARK  Name = ZINCkj00000y67S9.1
REMARK                            x       y       z     vdW  Elec       q    Type
REMARK                         _______ _______ _______ _____ _____    ______ ____
ROOT
ATOM      1  N   LIG    1       -3.386   5.937   1.641  0.00  0.00    -0.690 N 
ATOM      2  H   LIG    1       -4.009   6.680   1.620  0.00  0.00    +0.420 HD
ENDROOT
BRANCH   1  11
ATOM      3  C   LIG    1       -3.212   4.114   4.034  0.00  0.00    +0.230 A 
ATOM      4  N   LIG    1       -3.274   3.896   5.325  0.00  0.00    -0.290 NA
ATOM      5  N   LIG    1       -2.635   4.958   5.982  0.00  0.00    -0.460 N 
ATOM      6  H   LIG    1       -2.532   5.057   6.942  0.00  0.00    +0.440 HD
ATOM      7  C   LIG    1       -2.189   5.812   5.046  0.00  0.00    +0.120 A 
ATOM      8  C   LIG    1       -1.437   7.103   5.249  0.00  0.00    +0.110 C 
ATOM      9  C   LIG    1       -0.793   7.503   3.915  0.00  0.00    +0.050 C 
ATOM     10  C   LIG    1       -1.844   7.448   2.803  0.00  0.00    +0.030 C 
ATOM     11  C   LIG    1       -2.215   5.987   2.519  0.00  0.00    +0.330 C 
ATOM     12  C   LIG    1       -2.534   5.314   3.831  0.00  0.00    -0.280 A 
ENDBRANCH   1  11
BRANCH   1  13
ATOM     13  C   LIG    1       -3.604   4.829   0.839  0.00  0.00    +0.460 A 
ATOM     14  C   LIG    1       -2.714   3.753   0.860  0.00  0.00    -0.160 A 
ATOM     15  C   LIG    1       -2.975   2.670   0.043  0.00  0.00    +0.200 A 
ATOM     16  N   LIG    1       -4.050   2.690  -0.733  0.00  0.00    -0.550 NA
ATOM     17  C   LIG    1       -4.874   3.719  -0.725  0.00  0.00    +0.570 A 
ATOM     18  N   LIG    1       -4.664   4.772   0.038  0.00  0.00    -0.570 NA
BRANCH  15  19
ATOM     19  C   LIG    1       -2.046   1.484   0.028  0.00  0.00    +0.080 C 
ATOM     20  C   LIG    1       -0.563   1.845   0.195  0.00  0.00    +0.310 C 
ATOM     21  N   LIG    1       -0.429   0.665   1.069  0.00  0.00    -0.530 N 
ATOM     22  H   LIG    1        0.183   0.817   1.857  0.00  0.00    +0.430 HD
ATOM     23  H   LIG    1       -0.220  -0.185   0.566  0.00  0.00    +0.450 HD
ATOM     24  C   LIG    1       -1.859   0.814   1.399  0.00  0.00    +0.310 C 
ENDBRANCH  15  19
ENDBRANCH   1  13
TORSDOF 3
