REMARK  Name = ZINCkj00000y67S9.0
REMARK                            x       y       z     vdW  Elec       q    Type
REMARK                         _______ _______ _______ _____ _____    ______ ____
ROOT
ATOM      1  C   LIG    1       -4.874   3.719  -0.725  0.00  0.00    +0.570 A 
ATOM      2  N   LIG    1       -4.664   4.772   0.038  0.00  0.00    -0.570 NA
ATOM      3  C   LIG    1       -3.604   4.829   0.839  0.00  0.00    +0.450 A 
ATOM      4  C   LIG    1       -2.714   3.753   0.860  0.00  0.00    -0.170 A 
ATOM      5  C   LIG    1       -2.975   2.670   0.043  0.00  0.00    +0.200 A 
ATOM      6  N   LIG    1       -4.050   2.690  -0.733  0.00  0.00    -0.550 NA
ENDROOT
BRANCH   5   7
ATOM      7  C   LIG    1       -2.046   1.484   0.028  0.00  0.00    +0.090 C 
ATOM      8  C   LIG    1       -0.563   1.845   0.195  0.00  0.00    +0.310 C 
ATOM      9  N   LIG    1       -0.429   0.665   1.069  0.00  0.00    -0.530 N 
ATOM     10  H   LIG    1        0.183   0.817   1.857  0.00  0.00    +0.430 HD
ATOM     11  H   LIG    1       -0.220  -0.185   0.566  0.00  0.00    +0.450 HD
ATOM     12  C   LIG    1       -1.859   0.814   1.399  0.00  0.00    +0.310 C 
ENDBRANCH   5   7
BRANCH   3  13
ATOM     13  N   LIG    1       -3.386   5.937   1.641  0.00  0.00    -0.690 N 
ATOM     14  H   LIG    1       -4.009   6.680   1.620  0.00  0.00    +0.420 HD
BRANCH  13  15
ATOM     15  C   LIG    1       -2.215   5.987   2.519  0.00  0.00    +0.320 C 
ATOM     16  C   LIG    1       -1.863   7.448   2.829  0.00  0.00    +0.030 C 
ATOM     17  C   LIG    1       -0.802   7.500   3.931  0.00  0.00    +0.050 C 
ATOM     18  C   LIG    1       -1.429   7.103   5.274  0.00  0.00    +0.130 C 
ATOM     19  C   LIG    1       -2.169   5.802   5.081  0.00  0.00    +0.100 A 
ATOM     20  N   LIG    1       -2.583   4.967   5.990  0.00  0.00    -0.270 NA
ATOM     21  N   LIG    1       -3.214   3.894   5.343  0.00  0.00    -0.480 N 
ATOM     22  H   LIG    1       -3.617   3.125   5.775  0.00  0.00    +0.440 HD
ATOM     23  C   LIG    1       -3.163   4.121   4.011  0.00  0.00    +0.240 A 
ATOM     24  C   LIG    1       -2.525   5.291   3.822  0.00  0.00    -0.260 A 
ENDBRANCH  13  15
ENDBRANCH   3  13
TORSDOF 3
