REMARK  Name = ZINCkj00000y7KzH.0
REMARK                            x       y       z     vdW  Elec       q    Type
REMARK                         _______ _______ _______ _____ _____    ______ ____
ROOT
ATOM      1  C   LIG    1       -2.243   1.875  -0.703  0.00  0.00    +0.170 C 
ATOM      2  C   LIG    1       -2.183   1.409   0.766  0.00  0.00    +0.010 C 
ATOM      3  C   LIG    1       -0.691   1.574   1.158  0.00  0.00    +0.060 C 
ATOM      4  C   LIG    1        0.048   1.146  -0.134  0.00  0.00    +0.030 C 
ATOM      5  C   LIG    1       -0.825   1.708  -1.276  0.00  0.00    +0.180 C 
ENDROOT
BRANCH   1   9
ATOM      6  C   LIG    1       -5.348   0.026  -1.199  0.00  0.00    +0.180 C 
ATOM      7  C   LIG    1       -4.288  -0.976  -0.669  0.00  0.00    +0.010 C 
ATOM      8  C   LIG    1       -2.962  -0.389  -1.195  0.00  0.00    +0.160 C 
ATOM      9  N   LIG    1       -3.191   1.044  -1.457  0.00  0.00    -0.540 NA
ATOM     10  C   LIG    1       -4.587   1.371  -1.095  0.00  0.00    +0.220 C 
BRANCH   6  11
ATOM     11  O   LIG    1       -6.510   0.030  -0.368  0.00  0.00    -0.560 OA
ATOM     12  H   LIG    1       -6.966  -0.822  -0.325  0.00  0.00    +0.390 HD
ENDBRANCH   6  11
ENDBRANCH   1   9
BRANCH   5  13
ATOM     13  N   LIG    1       -0.845   0.767  -2.404  0.00  0.00    -0.500 N 
ATOM     14  H   LIG    1       -1.499   1.091  -3.100  0.00  0.00    +0.440 HD
ATOM     15  H   LIG    1       -1.126  -0.145  -2.076  0.00  0.00    +0.420 HD
BRANCH  13  16
ATOM     16  C   LIG    1        0.497   0.683  -2.995  0.00  0.00    +0.270 C 
BRANCH  16  17
ATOM     17  C   LIG    1        0.476  -0.297  -4.170  0.00  0.00    +0.200 C 
BRANCH  17  18
ATOM     18  O   LIG    1       -0.361   0.220  -5.206  0.00  0.00    -0.400 OA
BRANCH  18  19
ATOM     19  C   LIG    1       -0.450  -0.624  -6.356  0.00  0.00    +0.190 C 
BRANCH  19  20
ATOM     20  C   LIG    1       -1.368   0.025  -7.394  0.00  0.00    -0.010 C 
ATOM     21  C   LIG    1       -2.858  -0.291  -7.183  0.00  0.00    +0.020 C 
ATOM     22  C   LIG    1       -2.964  -0.423  -8.713  0.00  0.00    +0.010 C 
ATOM     23  C   LIG    1       -1.465  -0.765  -8.710  0.00  0.00    +0.020 C 
ENDBRANCH  19  20
ENDBRANCH  18  19
ENDBRANCH  17  18
ENDBRANCH  16  17
ENDBRANCH  13  16
ENDBRANCH   5  13
TORSDOF 8
