REMARK  Name = ZINCpe00000MJLXf.0
REMARK                            x       y       z     vdW  Elec       q    Type
REMARK                         _______ _______ _______ _____ _____    ______ ____
ROOT
ATOM      1  C   LIG    1       -4.751   4.734  -1.104  0.00  0.00    +0.340 C 
ATOM      2  C   LIG    1       -4.474   5.238   0.328  0.00  0.00    +0.060 C 
ATOM      3  C   LIG    1       -3.193   4.459   0.726  0.00  0.00    +0.040 C 
ATOM      4  C   LIG    1       -3.431   3.094   0.032  0.00  0.00    +0.280 C 
ATOM      5  N   LIG    1       -4.088   3.429  -1.244  0.00  0.00    -0.590 N 
ATOM      6  C   LIG    1       -4.079   2.668  -2.356  0.00  0.00    +0.610 C 
ATOM      7  O   LIG    1       -4.657   3.046  -3.356  0.00  0.00    -0.520 OA
ENDROOT
BRANCH   6   8
ATOM      8  C   LIG    1       -3.364   1.373  -2.360  0.00  0.00    +0.020 A 
ATOM      9  N   LIG    1       -2.744   0.965  -1.276  0.00  0.00    -0.160 NA
ATOM     10  N   LIG    1       -2.105  -0.148  -1.230  0.00  0.00    -0.330 N 
ATOM     11  C   LIG    1       -2.042  -0.974  -2.292  0.00  0.00    +0.480 A 
ATOM     12  C   LIG    1       -2.687  -0.612  -3.496  0.00  0.00    -0.020 A 
ATOM     13  O   LIG    1       -1.431  -2.027  -2.215  0.00  0.00    -0.520 OA
ATOM     14  C   LIG    1       -3.356   0.576  -3.530  0.00  0.00    +0.130 A 
BRANCH  10  15
ATOM     15  C   LIG    1       -1.433  -0.534   0.013  0.00  0.00    +0.350 C 
BRANCH  15  16
ATOM     16  C   LIG    1        0.002  -0.004   0.002  0.00  0.00    +0.180 C 
BRANCH  16  17
ATOM     17  O   LIG    1       -0.017   1.425   0.010  0.00  0.00    -0.390 OA
ATOM     18  C   LIG    1        1.280   2.024   0.001  0.00  0.00    +0.210 C 
ENDBRANCH  16  17
ENDBRANCH  15  16
ENDBRANCH  10  15
ENDBRANCH   6   8
BRANCH   1  21
ATOM     19  C   LIG    1       -8.233   4.886  -1.940  0.00  0.00    +0.180 A 
ATOM     20  N   LIG    1       -7.029   5.396  -2.029  0.00  0.00    -0.470 NA
ATOM     21  C   LIG    1       -6.236   4.580  -1.312  0.00  0.00    +0.170 A 
ATOM     22  N   LIG    1       -6.986   3.637  -0.825  0.00  0.00    -0.370 NA
ATOM     23  O   LIG    1       -8.137   3.794  -1.174  0.00  0.00    +0.080 OA
BRANCH  19  25
ATOM     24  C   LIG    1       -9.665   4.811  -3.963  0.00  0.00    +0.060 C 
ATOM     25  C   LIG    1       -9.487   5.429  -2.575  0.00  0.00    +0.180 C 
ENDBRANCH  19  25
ENDBRANCH   1  21
TORSDOF 6
