REMARK  Name = ZINCqH0000031FFc.1
REMARK                            x       y       z     vdW  Elec       q    Type
REMARK                         _______ _______ _______ _____ _____    ______ ____
ROOT
ATOM      1  C   LIG    1       -2.894   3.283   5.061  0.00  0.00    +0.500 C 
ATOM      2  N   LIG    1       -2.538   2.133   4.454  0.00  0.00    -0.630 N 
ATOM      3  H   LIG    1       -2.759   1.281   4.862  0.00  0.00    +0.430 HD
ATOM      4  O   LIG    1       -2.618   4.348   4.551  0.00  0.00    -0.450 OA
ENDROOT
BRANCH   2   5
ATOM      5  C   LIG    1       -1.854   2.168   3.244  0.00  0.00    +0.220 A 
ATOM      6  N   LIG    1       -1.505   3.242   2.603  0.00  0.00    -0.270 NA
ATOM      7  N   LIG    1       -0.887   3.098   1.511  0.00  0.00    -0.220 NA
ATOM      8  C   LIG    1       -0.658   1.881   1.130  0.00  0.00    +0.020 A 
ATOM      9  S   LIG    1       -1.341   0.802   2.347  0.00  0.00    +0.100 S 
BRANCH   8  10
ATOM     10  C   LIG    1        0.057   1.463  -0.128  0.00  0.00    +0.090 C 
ATOM     11  C   LIG    1       -0.696   2.003  -1.346  0.00  0.00    +0.030 C 
ATOM     12  C   LIG    1        0.030   1.578  -2.624  0.00  0.00    +0.010 C 
ATOM     13  C   LIG    1        1.452   2.142  -2.614  0.00  0.00    +0.010 C 
ATOM     14  C   LIG    1        2.205   1.602  -1.396  0.00  0.00    +0.010 C 
ATOM     15  C   LIG    1        1.479   2.026  -0.118  0.00  0.00    +0.040 C 
ENDBRANCH   8  10
ENDBRANCH   2   5
BRANCH   1  16
ATOM     16  C   LIG    1       -3.635   3.245   6.373  0.00  0.00    +0.090 C 
BRANCH  16  17
ATOM     17  C   LIG    1       -3.915   4.674   6.841  0.00  0.00    +0.310 C 
BRANCH  17  18
ATOM     18  C   LIG    1       -4.546   4.639   8.210  0.00  0.00    -0.100 A 
ATOM     19  C   LIG    1       -5.869   4.263   8.352  0.00  0.00    +0.020 A 
ATOM     20  C   LIG    1       -6.446   4.226   9.607  0.00  0.00    +0.000 A 
ATOM     21  C   LIG    1       -5.703   4.575  10.720  0.00  0.00    +0.000 A 
ATOM     22  C   LIG    1       -4.382   4.956  10.577  0.00  0.00    +0.000 A 
ATOM     23  C   LIG    1       -3.803   4.989   9.322  0.00  0.00    +0.020 A 
ENDBRANCH  17  18
BRANCH  17  26
ATOM     24  C   LIG    1       -5.894   7.344   4.945  0.00  0.00    +0.100 C 
ATOM     25  C   LIG    1       -4.872   6.671   5.825  0.00  0.00    +0.520 C 
ATOM     26  N   LIG    1       -4.828   5.326   5.899  0.00  0.00    -0.720 N 
ATOM     27  H   LIG    1       -5.402   4.790   5.330  0.00  0.00    +0.400 HD
ATOM     28  O   LIG    1       -4.088   7.339   6.465  0.00  0.00    -0.540 OA
ENDBRANCH  17  26
ENDBRANCH  16  17
ENDBRANCH   1  16
TORSDOF 6
