REMARK  Name = ZINCrH000004t475.0
REMARK                            x       y       z     vdW  Elec       q    Type
REMARK                         _______ _______ _______ _____ _____    ______ ____
ROOT
ATOM      1  C   LIG    1        0.689   1.296  -1.280  0.00  0.00    +0.590 C 
ATOM      2  N   LIG    1        1.477   1.849  -0.337  0.00  0.00    -0.610 N 
ATOM      3  C   LIG    1        1.402   3.287  -0.034  0.00  0.00    +0.250 C 
ATOM      4  C   LIG    1        1.249   3.448   1.487  0.00  0.00    +0.220 C 
ATOM      5  O   LIG    1        2.287   2.715   2.144  0.00  0.00    -0.370 OA
ATOM      6  C   LIG    1        2.243   1.305   1.912  0.00  0.00    +0.220 C 
ATOM      7  C   LIG    1        2.442   1.032   0.417  0.00  0.00    +0.250 C 
ATOM      8  O   LIG    1        0.796   0.113  -1.546  0.00  0.00    -0.490 OA
ENDROOT
BRANCH   1  16
ATOM      9  C   LIG    1       -4.284   2.338  -4.356  0.00  0.00    +0.310 C 
ATOM     10  N   LIG    1       -3.201   3.195  -3.866  0.00  0.00    -0.460 N 
ATOM     11  C   LIG    1       -3.115   4.546  -4.040  0.00  0.00    +0.230 A 
ATOM     12  C   LIG    1       -1.987   4.998  -3.457  0.00  0.00    -0.070 A 
ATOM     13  C   LIG    1       -1.320   3.895  -2.885  0.00  0.00    +0.040 A 
ATOM     14  N   LIG    1       -0.217   3.489  -2.173  0.00  0.00    -0.550 N 
ATOM     15  H   LIG    1        0.495   4.065  -1.854  0.00  0.00    +0.420 HD
ATOM     16  C   LIG    1       -0.291   2.121  -1.990  0.00  0.00    -0.010 A 
ATOM     17  C   LIG    1       -1.442   1.665  -2.593  0.00  0.00    +0.060 A 
ATOM     18  C   LIG    1       -2.097   2.770  -3.152  0.00  0.00    -0.010 A 
ENDBRANCH   1  16
BRANCH   7  19
ATOM     19  C   LIG    1        2.205  -0.428   0.131  0.00  0.00    -0.020 A 
ATOM     20  C   LIG    1        1.074  -1.054   0.621  0.00  0.00    +0.020 A 
ATOM     21  C   LIG    1        0.854  -2.392   0.354  0.00  0.00    +0.070 A 
ATOM     22  C   LIG    1        1.769  -3.107  -0.395  0.00  0.00    -0.180 A 
ATOM     23  C   LIG    1        2.903  -2.483  -0.881  0.00  0.00    +0.070 A 
ATOM     24  C   LIG    1        3.121  -1.143  -0.618  0.00  0.00    +0.020 A 
BRANCH  22  25
ATOM     25  C   LIG    1        1.531  -4.567  -0.682  0.00  0.00    +0.510 C 
ATOM     26  F   LIG    1        2.110  -4.901  -1.911  0.00  0.00    -0.180 F 
ATOM     27  F   LIG    1        0.155  -4.814  -0.732  0.00  0.00    -0.180 F 
ATOM     28  F   LIG    1        2.108  -5.342   0.330  0.00  0.00    -0.180 F 
ENDBRANCH  22  25
ENDBRANCH   7  19
TORSDOF 3
