REMARK  Name = ZINC9p0000002Dpn.0
REMARK                            x       y       z     vdW  Elec       q    Type
REMARK                         _______ _______ _______ _____ _____    ______ ____
ROOT
ATOM      1  C   LIG    1       -0.443  -2.221  -1.061  0.00  0.00    +0.030 C 
ENDROOT
BRANCH   1   2
ATOM      2  C   LIG    1       -0.854  -2.926  -2.355  0.00  0.00    +0.260 C 
BRANCH   2   3
ATOM      3  N   LIG    1       -0.886  -4.378  -2.133  0.00  0.00    -0.640 N 
ATOM      4  H   LIG    1       -1.157  -4.843  -2.986  0.00  0.00    +0.440 HD
ATOM      5  H   LIG    1       -1.553  -4.592  -1.407  0.00  0.00    +0.440 HD
ATOM      6  H   LIG    1        0.030  -4.696  -1.853  0.00  0.00    +0.440 HD
ENDBRANCH   2   3
ENDBRANCH   1   2
BRANCH   1   7
ATOM      7  C   LIG    1       -0.409  -0.709  -1.292  0.00  0.00    +0.080 C 
BRANCH   7   8
ATOM      8  C   LIG    1        0.002  -0.004   0.002  0.00  0.00    +0.010 C 
ATOM      9  C   LIG    1       -0.019   1.526   0.010  0.00  0.00    +0.120 C 
ATOM     10  C   LIG    1        1.317   0.779  -0.006  0.00  0.00    -0.010 C 
ATOM     11 CL   LIG    1        2.292   0.784   1.510  0.00  0.00    -0.080 Cl
ATOM     12 CL   LIG    1        2.263   0.800  -1.541  0.00  0.00    -0.090 Cl
ENDBRANCH   7   8
ENDBRANCH   1   7
TORSDOF 4
