REMARK  Name = ZINCpe000027pH85.0
REMARK                            x       y       z     vdW  Elec       q    Type
REMARK                         _______ _______ _______ _____ _____    ______ ____
ROOT
ATOM      1  C   LIG    1       -0.221   1.438   3.804  0.00  0.00    +0.250 C 
ATOM      2  C   LIG    1       -1.742   1.495   3.963  0.00  0.00    +0.060 C 
ENDROOT
BRANCH   1   4
ATOM      3  C   LIG    1        0.618   1.011   6.052  0.00  0.00    +0.550 C 
ATOM      4  N   LIG    1        0.343   0.543   4.818  0.00  0.00    -0.710 N 
ATOM      5  H   LIG    1        0.518  -0.386   4.601  0.00  0.00    +0.410 HD
ATOM      6  O   LIG    1        0.399   2.177   6.324  0.00  0.00    -0.540 OA
BRANCH   3   8
ATOM      7  C   LIG    1        1.457   0.586   8.299  0.00  0.00    +0.140 C 
ATOM      8  C   LIG    1        1.181   0.117   7.064  0.00  0.00    -0.100 C 
BRANCH   7  12
ATOM      9  C   LIG    1        3.087  -2.006  11.235  0.00  0.00    +0.140 A 
ATOM     10  C   LIG    1        2.838  -0.674  11.547  0.00  0.00    -0.020 A 
ATOM     11  C   LIG    1        2.309   0.171  10.598  0.00  0.00    +0.090 A 
ATOM     12  C   LIG    1        2.022  -0.312   9.316  0.00  0.00    -0.120 A 
ATOM     13  C   LIG    1        2.270  -1.655   9.008  0.00  0.00    +0.070 A 
ATOM     14  C   LIG    1        2.805  -2.490   9.963  0.00  0.00    -0.080 A 
BRANCH   9  16
ATOM     15  C   LIG    1        3.840  -4.191  11.786  0.00  0.00    +0.240 C 
ATOM     16  O   LIG    1        3.609  -2.835  12.174  0.00  0.00    -0.310 OA
ENDBRANCH   9  16
ENDBRANCH   7  12
ENDBRANCH   3   8
ENDBRANCH   1   4
BRANCH   1  17
ATOM     17  C   LIG    1        0.122   0.921   2.431  0.00  0.00    +0.520 C 
ATOM     18  N   LIG    1       -0.295   1.588   1.337  0.00  0.00    -0.700 N 
ATOM     19  H   LIG    1       -0.816   2.400   1.433  0.00  0.00    +0.410 HD
ATOM     20  O   LIG    1        0.773  -0.095   2.311  0.00  0.00    -0.530 OA
BRANCH  18  21
ATOM     21  C   LIG    1        0.039   1.085   0.002  0.00  0.00    +0.240 C 
BRANCH  21  22
ATOM     22  C   LIG    1        1.406   1.580  -0.395  0.00  0.00    +0.510 C 
ATOM     23  O   LIG    1        1.828   2.623   0.059  0.00  0.00    -0.530 OA
ATOM     24  N   LIG    1        2.159   0.865  -1.253  0.00  0.00    -0.850 N 
ATOM     25  H   LIG    1        3.066   1.145  -1.452  0.00  0.00    +0.400 HD
ATOM     26  H   LIG    1        1.794   0.069  -1.672  0.00  0.00    +0.400 HD
ENDBRANCH  21  22
BRANCH  21  27
ATOM     27  C   LIG    1       -0.997   1.587  -1.006  0.00  0.00    -0.010 C 
ATOM     28  C   LIG    1       -2.396   1.162  -0.554  0.00  0.00    +0.040 C 
ATOM     29  C   LIG    1       -0.702   0.989  -2.383  0.00  0.00    +0.030 C 
ENDBRANCH  21  27
ENDBRANCH  18  21
ENDBRANCH   1  17
TORSDOF 8
