REMARK  Name = ZINCvU0000000B6i.0
REMARK                            x       y       z     vdW  Elec       q    Type
REMARK                         _______ _______ _______ _____ _____    ______ ____
ROOT
ATOM      1  C   LIG    1        1.916   3.194   0.138  0.00  0.00    +0.210 C 
ATOM      2  C   LIG    1        1.403   1.777   0.143  0.00  0.00    +0.150 A 
ATOM      3  N   LIG    1        2.123   0.698   0.174  0.00  0.00    -0.270 NA
ATOM      4  O   LIG    1        1.283  -0.438   0.168  0.00  0.00    -0.080 OA
ATOM      5  C   LIG    1       -0.006  -0.042   0.133  0.00  0.00    +0.310 A 
ATOM      6  N   LIG    1       -1.152  -0.702   0.114  0.00  0.00    -0.460 NA
ATOM      7  C   LIG    1       -2.320  -0.078   0.078  0.00  0.00    +0.250 A 
ATOM      8  C   LIG    1       -2.399   1.317   0.059  0.00  0.00    -0.010 A 
ATOM      9  C   LIG    1       -1.224   2.063   0.083  0.00  0.00    +0.010 A 
ATOM     10  C   LIG    1        0.000   1.365   0.115  0.00  0.00    -0.210 A 
ENDROOT
BRANCH   7  11
ATOM     11  C   LIG    1       -3.569  -0.876   0.059  0.00  0.00    -0.060 A 
ATOM     12  C   LIG    1       -4.802  -0.242  -0.084  0.00  0.00    +0.080 A 
ATOM     13  C   LIG    1       -5.962  -0.990  -0.101  0.00  0.00    +0.030 A 
ATOM     14  C   LIG    1       -5.902  -2.367   0.023  0.00  0.00    +0.100 A 
ATOM     15  C   LIG    1       -4.680  -3.001   0.164  0.00  0.00    -0.190 A 
ATOM     16  C   LIG    1       -3.514  -2.264   0.177  0.00  0.00    +0.130 A 
BRANCH  15  17
ATOM     17  C   LIG    1       -4.623  -4.501   0.298  0.00  0.00    +0.510 C 
ATOM     18  F   LIG    1       -4.029  -4.838   1.519  0.00  0.00    -0.170 F 
ATOM     19  F   LIG    1       -3.868  -5.035  -0.752  0.00  0.00    -0.170 F 
ATOM     20  F   LIG    1       -5.921  -5.023   0.251  0.00  0.00    -0.180 F 
ENDBRANCH  15  17
ENDBRANCH   7  11
BRANCH   9  21
ATOM     21  C   LIG    1       -1.259   3.542   0.064  0.00  0.00    +0.560 C 
ATOM     22  N   LIG    1       -1.958   4.188  -0.891  0.00  0.00    -0.600 N 
ATOM     23  C   LIG    1       -2.757   3.426  -1.854  0.00  0.00    +0.280 C 
ATOM     24  O   LIG    1       -0.656   4.175   0.908  0.00  0.00    -0.510 OA
BRANCH  22  25
ATOM     25  C   LIG    1       -1.920   5.650  -0.964  0.00  0.00    +0.250 C 
ATOM     26  C   LIG    1       -3.335   6.207  -0.793  0.00  0.00    +0.010 C 
ATOM     27  C   LIG    1       -3.294   7.734  -0.870  0.00  0.00    +0.020 C 
ATOM     28  C   LIG    1       -2.740   8.162  -2.230  0.00  0.00    +0.010 C 
ATOM     29  C   LIG    1       -1.325   7.606  -2.401  0.00  0.00    -0.020 C 
ATOM     30  C   LIG    1       -0.770   8.033  -3.761  0.00  0.00    +0.020 C 
ATOM     31  C   LIG    1       -1.365   6.078  -2.324  0.00  0.00    +0.020 C 
ENDBRANCH  22  25
ENDBRANCH   9  21
TORSDOF 4
