REMARK  Name = ZINCkj000005hzrh.0
REMARK                            x       y       z     vdW  Elec       q    Type
REMARK                         _______ _______ _______ _____ _____    ______ ____
ROOT
ATOM      1  S   LIG    1       -5.528   1.967   2.538  0.00  0.00    +2.690 S 
ATOM      2  O   LIG    1       -5.127   3.233   3.042  0.00  0.00    -0.950 OA
ATOM      3  O   LIG    1       -6.541   1.175   3.142  0.00  0.00    -0.940 OA
ENDROOT
BRANCH   1   4
ATOM      4  C   LIG    1       -6.034   2.234   0.871  0.00  0.00    -0.720 A 
ATOM      5  C   LIG    1       -6.910   1.352   0.266  0.00  0.00    +0.160 A 
ATOM      6  C   LIG    1       -7.309   1.559  -1.041  0.00  0.00    -0.080 A 
ATOM      7  C   LIG    1       -6.828   2.653  -1.746  0.00  0.00    +0.190 A 
ATOM      8  C   LIG    1       -5.949   3.537  -1.136  0.00  0.00    -0.130 A 
ATOM      9  C   LIG    1       -5.426   4.726  -1.899  0.00  0.00    +0.120 C 
ATOM     10  C   LIG    1       -5.559   3.329   0.172  0.00  0.00    +0.150 A 
BRANCH   7  11
ATOM     11  O   LIG    1       -7.218   2.859  -3.031  0.00  0.00    -0.300 OA
ATOM     12  C   LIG    1       -8.125   1.908  -3.594  0.00  0.00    +0.250 C 
ENDBRANCH   7  11
ENDBRANCH   1   4
BRANCH   1  17
ATOM     13  C   LIG    1       -2.078   1.051   1.227  0.00  0.00    +0.140 C 
ATOM     14  C   LIG    1       -2.059  -0.474   1.349  0.00  0.00    +0.040 C 
ATOM     15  C   LIG    1       -3.494  -1.008   1.326  0.00  0.00    +0.050 C 
ATOM     16  C   LIG    1       -4.265  -0.437   2.521  0.00  0.00    +0.310 C 
ATOM     17  N   LIG    1       -4.165   1.028   2.492  0.00  0.00    -0.990 NA
ATOM     18  C   LIG    1       -2.833   1.645   2.420  0.00  0.00    +0.310 C 
BRANCH  13  20
ATOM     19  C   LIG    1       -0.013   1.086   0.008  0.00  0.00    +0.330 C 
ATOM     20  N   LIG    1       -0.700   1.560   1.217  0.00  0.00    -0.510 N 
ATOM     21  H   LIG    1       -0.714   2.568   1.222  0.00  0.00    +0.430 HD
ATOM     22  H   LIG    1       -0.212   1.225   2.034  0.00  0.00    +0.430 HD
ENDBRANCH  13  20
ENDBRANCH   1  17
TORSDOF 4
