REMARK  Name = ZINCvU0000000HVK.0
REMARK                            x       y       z     vdW  Elec       q    Type
REMARK                         _______ _______ _______ _____ _____    ______ ____
ROOT
ATOM      1  N   LIG    1        2.267   8.620  -0.227  0.00  0.00    -0.620 NA
ATOM      2  C   LIG    1        2.195   9.940  -0.420  0.00  0.00    +0.520 C 
ATOM      3  N   LIG    1        1.007  10.454  -0.490  0.00  0.00    -0.630 NA
ATOM      4  C   LIG    1        0.649  11.710  -0.720  0.00  0.00    +0.480 A 
ATOM      5  C   LIG    1       -0.489  11.923  -1.526  0.00  0.00    +0.000 A 
ATOM      6  C   LIG    1       -0.886  13.195  -1.818  0.00  0.00    +0.140 A 
ATOM      7  C   LIG    1       -0.150  14.272  -1.313  0.00  0.00    -0.030 A 
ATOM      8  C   LIG    1        0.933  14.041  -0.536  0.00  0.00    +0.290 A 
ATOM      9  N   LIG    1        1.320  12.778  -0.223  0.00  0.00    -0.460 N 
ATOM     10  C   LIG    1        2.464  12.620   0.673  0.00  0.00    +0.350 C 
ATOM     11  C   LIG    1        3.612  11.954  -0.030  0.00  0.00    -0.100 A 
ATOM     12  C   LIG    1        4.811  12.623  -0.173  0.00  0.00    +0.030 A 
ATOM     13  C   LIG    1        5.880  12.013  -0.786  0.00  0.00    +0.030 A 
ATOM     14  C   LIG    1        5.755  10.725  -1.275  0.00  0.00    +0.030 A 
ATOM     15  C   LIG    1        4.561  10.050  -1.150  0.00  0.00    +0.050 A 
ATOM     16  C   LIG    1        3.469  10.664  -0.527  0.00  0.00    -0.110 A 
ENDROOT
BRANCH   1  18
ATOM     17  O   LIG    1        4.119   8.422   0.971  0.00  0.00    -0.530 OA
ATOM     18  C   LIG    1        3.447   8.046   0.025  0.00  0.00    +0.540 C 
BRANCH  18  19
ATOM     19  C   LIG    1        3.938   6.954  -0.844  0.00  0.00    -0.170 A 
ATOM     20  C   LIG    1        5.171   6.353  -0.582  0.00  0.00    +0.110 A 
ATOM     21  C   LIG    1        5.625   5.336  -1.393  0.00  0.00    -0.020 A 
ATOM     22  C   LIG    1        4.858   4.908  -2.469  0.00  0.00    +0.150 A 
ATOM     23  C   LIG    1        3.633   5.508  -2.736  0.00  0.00    -0.080 A 
ATOM     24  C   LIG    1        3.170   6.522  -1.926  0.00  0.00    +0.110 A 
BRANCH  22  25
ATOM     25  O   LIG    1        5.309   3.906  -3.266  0.00  0.00    -0.250 OA
BRANCH  25  26
ATOM     26  C   LIG    1        4.573   3.582  -4.362  0.00  0.00    +0.080 A 
ATOM     27  C   LIG    1        3.906   2.367  -4.417  0.00  0.00    +0.010 A 
ATOM     28  C   LIG    1        3.160   2.040  -5.532  0.00  0.00    +0.030 A 
ATOM     29  C   LIG    1        3.077   2.923  -6.593  0.00  0.00    +0.010 A 
ATOM     30  C   LIG    1        3.741   4.135  -6.541  0.00  0.00    +0.030 A 
ATOM     31  C   LIG    1        4.489   4.466  -5.428  0.00  0.00    -0.010 A 
ENDBRANCH  25  26
ENDBRANCH  22  25
ENDBRANCH  18  19
ENDBRANCH   1  18
TORSDOF 4
