REMARK  Name = ZINCpk00000ebo2g.0
REMARK                            x       y       z     vdW  Elec       q    Type
REMARK                         _______ _______ _______ _____ _____    ______ ____
ROOT
ATOM      1  C   LIG    1        0.344   0.422  -6.265  0.00  0.00    +0.340 C 
ENDROOT
BRANCH   1   4
ATOM      2  C   LIG    1       -1.899   1.630  -8.858  0.00  0.00    -0.230 A 
ATOM      3  C   LIG    1       -1.429   0.672  -8.008  0.00  0.00    +0.290 A 
ATOM      4  N   LIG    1       -0.401   1.170  -7.280  0.00  0.00    -0.450 N 
ATOM      5  C   LIG    1       -0.149   2.480  -7.635  0.00  0.00    +0.100 A 
ATOM      6  C   LIG    1        0.779   3.421  -7.204  0.00  0.00    +0.000 A 
ATOM      7  C   LIG    1        0.787   4.683  -7.759  0.00  0.00    +0.030 A 
ATOM      8  C   LIG    1       -0.124   5.026  -8.747  0.00  0.00    -0.010 A 
ATOM      9  C   LIG    1       -1.052   4.107  -9.187  0.00  0.00    +0.070 A 
ATOM     10  C   LIG    1       -1.071   2.829  -8.635  0.00  0.00    -0.060 A 
BRANCH   2  14
ATOM     11  N   LIG    1       -3.677   0.325  -9.903  0.00  0.00    -0.860 N 
ATOM     12  H   LIG    1       -4.409   0.234 -10.533  0.00  0.00    +0.410 HD
ATOM     13  H   LIG    1       -3.426  -0.423  -9.339  0.00  0.00    +0.400 HD
ATOM     14  C   LIG    1       -3.008   1.492  -9.812  0.00  0.00    +0.590 C 
ATOM     15  O   LIG    1       -3.323   2.430 -10.519  0.00  0.00    -0.540 OA
ENDBRANCH   2  14
ENDBRANCH   1   4
BRANCH   1  16
ATOM     16  C   LIG    1       -0.237   0.707  -4.904  0.00  0.00    +0.490 C 
ATOM     17  N   LIG    1        0.291   0.124  -3.810  0.00  0.00    -0.720 N 
ATOM     18  H   LIG    1        1.045  -0.479  -3.898  0.00  0.00    +0.410 HD
ATOM     19  O   LIG    1       -1.181   1.462  -4.794  0.00  0.00    -0.510 OA
BRANCH  17  20
ATOM     20  C   LIG    1       -0.274   0.402  -2.487  0.00  0.00    +0.260 C 
BRANCH  20  21
ATOM     21  C   LIG    1        0.503  -0.380  -1.426  0.00  0.00    +0.120 C 
ATOM     22  C   LIG    1       -0.229  -0.317  -0.066  0.00  0.00    +0.010 C 
ATOM     23  C   LIG    1       -0.568  -1.802   0.269  0.00  0.00    +0.000 C 
ATOM     24  C   LIG    1       -1.675  -2.190  -0.758  0.00  0.00    +0.010 C 
ATOM     25  C   LIG    1       -0.943  -2.253  -2.118  0.00  0.00    +0.010 C 
ATOM     26  C   LIG    1        0.675  -2.530  -0.355  0.00  0.00    +0.030 C 
ATOM     27  C   LIG    1        0.538  -1.897  -1.785  0.00  0.00    +0.020 C 
BRANCH  21  28
ATOM     28  O   LIG    1        1.831   0.133  -1.301  0.00  0.00    -0.550 OA
ATOM     29  H   LIG    1        1.870   1.073  -1.078  0.00  0.00    +0.380 HD
ENDBRANCH  21  28
ENDBRANCH  20  21
ENDBRANCH  17  20
ENDBRANCH   1  16
TORSDOF 6
