REMARK  Name = ZINCpe000000TAIu.0
REMARK                            x       y       z     vdW  Elec       q    Type
REMARK                         _______ _______ _______ _____ _____    ______ ____
ROOT
ATOM      1  N   LIG    1        0.789  -0.498   1.407  0.00  0.00    -0.520 NA
ATOM      2  C   LIG    1        0.078   0.194   0.325  0.00  0.00    +0.190 C 
ATOM      3  C   LIG    1        0.120   1.704   0.569  0.00  0.00    +0.040 C 
ATOM      4  C   LIG    1        1.579   2.167   0.625  0.00  0.00    +0.240 C 
ATOM      5  C   LIG    1        2.309   1.396   1.729  0.00  0.00    +0.030 C 
ATOM      6  C   LIG    1        2.203  -0.105   1.451  0.00  0.00    +0.180 C 
ENDROOT
BRANCH   4   7
ATOM      7  N   LIG    1        1.627   3.602   0.917  0.00  0.00    -0.720 N 
ATOM      8  H   LIG    1        0.891   4.026   1.386  0.00  0.00    +0.400 HD
ATOM      9  C   LIG    1        2.693   4.332   0.535  0.00  0.00    +0.600 C 
ATOM     10  O   LIG    1        3.616   3.800  -0.053  0.00  0.00    -0.520 OA
BRANCH   9  11
ATOM     11  C   LIG    1        2.741   5.769   0.827  0.00  0.00    -0.300 A 
ATOM     12  C   LIG    1        3.747   6.618   0.502  0.00  0.00    +0.150 A 
ATOM     13  N   LIG    1        3.546   7.857   0.877  0.00  0.00    -0.480 NA
ATOM     14  C   LIG    1        2.441   8.119   1.498  0.00  0.00    +0.260 A 
ATOM     15  C   LIG    1        4.989   6.175  -0.229  0.00  0.00    +0.170 C 
ATOM     16  S   LIG    1        1.498   6.702   1.657  0.00  0.00    +0.160 S 
ENDBRANCH   9  11
ENDBRANCH   4   7
BRANCH   1  17
ATOM     17  C   LIG    1        0.651  -1.955   1.280  0.00  0.00    +0.180 C 
ATOM     18  C   LIG    1        0.949  -2.372  -0.162  0.00  0.00    +0.030 C 
BRANCH  17  24
ATOM     19  N   LIG    1       -2.588  -5.309   2.449  0.00  0.00    -0.740 N 
ATOM     20  H   LIG    1       -1.890  -5.980   2.394  0.00  0.00    +0.400 HD
ATOM     21  C   LIG    1       -2.301  -4.015   2.205  0.00  0.00    +0.690 C 
ATOM     22  N   LIG    1       -1.043  -3.654   1.884  0.00  0.00    -0.690 N 
ATOM     23  H   LIG    1       -0.345  -4.324   1.829  0.00  0.00    +0.410 HD
ATOM     24  C   LIG    1       -0.756  -2.360   1.639  0.00  0.00    +0.520 C 
ATOM     25  O   LIG    1       -1.629  -1.521   1.708  0.00  0.00    -0.450 OA
ATOM     26  O   LIG    1       -3.176  -3.175   2.274  0.00  0.00    -0.530 OA
BRANCH  19  28
ATOM     27  C   LIG    1       -4.010  -7.215   3.024  0.00  0.00    +0.030 C 
ATOM     28  C   LIG    1       -3.956  -5.703   2.799  0.00  0.00    +0.270 C 
ENDBRANCH  19  28
ENDBRANCH  17  24
ENDBRANCH   1  17
TORSDOF 5
