REMARK  Name = ZINCrg00000SjSr6.0
REMARK                            x       y       z     vdW  Elec       q    Type
REMARK                         _______ _______ _______ _____ _____    ______ ____
ROOT
ATOM      1  C   LIG    1        1.226   2.000  -0.025  0.00  0.00    +0.230 C 
ENDROOT
BRANCH   1   2
ATOM      2  C   LIG    1        0.909   3.385   0.477  0.00  0.00    +0.530 C 
ATOM      3  N   LIG    1        1.909   4.221   0.822  0.00  0.00    -0.610 N 
ATOM      4  C   LIG    1        3.317   3.837   0.634  0.00  0.00    +0.240 C 
ATOM      5  C   LIG    1        4.028   4.976  -0.115  0.00  0.00    +0.220 C 
ATOM      6  O   LIG    1        3.793   6.207   0.571  0.00  0.00    -0.380 OA
ATOM      7  C   LIG    1        2.418   6.596   0.621  0.00  0.00    +0.220 C 
ATOM      8  C   LIG    1        1.624   5.543   1.403  0.00  0.00    +0.270 C 
ATOM      9  O   LIG    1       -0.244   3.748   0.570  0.00  0.00    -0.510 OA
ENDBRANCH   1   2
BRANCH   1  10
ATOM     10  C   LIG    1        1.574   2.063  -1.490  0.00  0.00    -0.120 A 
ATOM     11  C   LIG    1        0.582   2.285  -2.427  0.00  0.00    +0.040 A 
ATOM     12  C   LIG    1        0.902   2.346  -3.770  0.00  0.00    +0.010 A 
ATOM     13  C   LIG    1        2.212   2.178  -4.177  0.00  0.00    +0.030 A 
ATOM     14  C   LIG    1        3.203   1.950  -3.240  0.00  0.00    +0.010 A 
ATOM     15  C   LIG    1        2.884   1.893  -1.897  0.00  0.00    +0.030 A 
ENDBRANCH   1  10
BRANCH   1  16
ATOM     16  O   LIG    1        0.069   1.142   0.162  0.00  0.00    -0.320 OA
BRANCH  16  17
ATOM     17  C   LIG    1        0.305  -0.163   0.371  0.00  0.00    +0.440 C 
ATOM     18  O   LIG    1        1.440  -0.575   0.397  0.00  0.00    -0.490 OA
BRANCH  17  19
ATOM     19  C   LIG    1       -0.847  -1.114   0.572  0.00  0.00    +0.410 C 
BRANCH  19  21
ATOM     20  C   LIG    1       -0.118  -3.355  -0.368  0.00  0.00    +0.320 C 
ATOM     21  N   LIG    1       -0.330  -2.469   0.779  0.00  0.00    -0.570 N 
BRANCH  21  22
ATOM     22  C   LIG    1       -0.042  -2.912   2.058  0.00  0.00    +0.570 A 
ATOM     23  N   LIG    1       -0.234  -2.096   3.084  0.00  0.00    -0.570 NA
ATOM     24  C   LIG    1        0.026  -2.490   4.320  0.00  0.00    +0.360 A 
ATOM     25  C   LIG    1        0.515  -3.769   4.533  0.00  0.00    -0.140 A 
ATOM     26  C   LIG    1        0.710  -4.595   3.437  0.00  0.00    +0.360 A 
ATOM     27  N   LIG    1        0.425  -4.140   2.228  0.00  0.00    -0.560 NA
ENDBRANCH  21  22
ENDBRANCH  19  21
ENDBRANCH  17  19
ENDBRANCH  16  17
ENDBRANCH   1  16
TORSDOF 7
