REMARK  Name = ZINCkj000005j5mH.0
REMARK                            x       y       z     vdW  Elec       q    Type
REMARK                         _______ _______ _______ _____ _____    ______ ____
ROOT
ATOM      1  C   UNK A  0       -1.290   1.681   0.017  0.00  0.00    +0.270 C 
ATOM      2  C   UNK A  0       -1.680   2.047  -1.416  0.00  0.00    +0.020 C 
ENDROOT
BRANCH   1   3
ATOM      3  C   UNK A  0       -2.370   0.786   0.627  0.00  0.00    -0.020 C 
ATOM      4  C   UNK A  0       -1.980   0.418   2.062  0.00  0.00    +0.040 C 
ATOM      5  C   UNK A  0       -3.103  -0.412   2.689  0.00  0.00    +0.060 C 
ATOM      6  C   UNK A  0       -4.411   0.381   2.628  0.00  0.00    +0.250 C 
ATOM      7  N   UNK A  0       -4.743   0.678   1.230  0.00  0.00    -0.370 N 
ATOM      8  H   UNK A  0       -4.800  -0.184   0.708  0.00  0.00    +0.420 HD
ATOM      9  C   UNK A  0       -3.705   1.534   0.643  0.00  0.00    +0.260 C 
BRANCH   7  10
ATOM     10  C   UNK A  0       -6.037   1.371   1.172  0.00  0.00    +0.150 C 
ATOM     11  C   UNK A  0       -7.246   0.425   1.264  0.00  0.00    +0.050 C 
ATOM     12  C   UNK A  0       -7.915   1.305   0.193  0.00  0.00    +0.070 C 
ATOM     13  C   UNK A  0       -6.497   1.696  -0.259  0.00  0.00    +0.050 C 
ENDBRANCH   7  10
ENDBRANCH   1   3
BRANCH   1  17
ATOM     14  N   ALA A  1        2.323   0.998  -0.015  0.00  0.00    -0.730 N 
ATOM     15  H   ALA A  1        2.336   0.028  -0.020  0.00  0.00    +0.400 HD
ATOM     16  C   UNK A  0        1.147   1.655   0.000  0.00  0.00    +0.710 C 
ATOM     17  N   UNK A  0       -0.011   0.966   0.007  0.00  0.00    -0.750 N 
ATOM     18  H   UNK A  0        0.002  -0.004   0.002  0.00  0.00    +0.400 HD
ATOM     19  O   UNK A  0        1.130   2.871   0.007  0.00  0.00    -0.580 OA
BRANCH  14  21
ATOM     20  CB  ALA A  1        3.969   2.109   1.413  0.00  0.00    +0.040 C 
ATOM     21  CA  ALA A  1        3.582   1.747  -0.023  0.00  0.00    +0.260 C 
BRANCH  21  22
ATOM     22  C   ALA A  1        4.683   0.888  -0.647  0.00  0.00    +0.180 C 
BRANCH  22  23
ATOM     23  O   ALA A  1        4.926  -0.250   0.181  0.00  0.00    -0.570 OA
ATOM     24  H   ALA A  1        5.615  -0.841  -0.155  0.00  0.00    +0.390 HD
ENDBRANCH  22  23
ENDBRANCH  21  22
ENDBRANCH  14  21
ENDBRANCH   1  17
TORSDOF 6
