REMARK  Name = ZINCkj000005j5mH.1
REMARK                            x       y       z     vdW  Elec       q    Type
REMARK                         _______ _______ _______ _____ _____    ______ ____
ROOT
ATOM      1  C   UNK A  0       -0.019   1.526   0.010  0.00  0.00    +0.240 C 
ATOM      2  C   UNK A  0       -0.735   2.019   1.269  0.00  0.00    +0.030 C 
ENDROOT
BRANCH   1   3
ATOM      3  C   UNK A  0        0.002  -0.004   0.002  0.00  0.00    +0.000 C 
ATOM      4  C   UNK A  0        0.719  -0.499  -1.258  0.00  0.00    +0.050 C 
ATOM      5  C   UNK A  0        2.175  -0.027  -1.223  0.00  0.00    +0.050 C 
ATOM      6  C   UNK A  0        2.839  -0.534   0.059  0.00  0.00    +0.250 C 
ATOM      7  N   UNK A  0        2.124  -0.005   1.227  0.00  0.00    -0.380 N 
ATOM      8  H   UNK A  0        2.111   1.003   1.184  0.00  0.00    +0.420 HD
ATOM      9  C   UNK A  0        0.747  -0.512   1.239  0.00  0.00    +0.270 C 
BRANCH   7  10
ATOM     10  C   UNK A  0        2.810  -0.432   2.454  0.00  0.00    +0.150 C 
ATOM     11  C   UNK A  0        2.485   0.441   3.677  0.00  0.00    +0.050 C 
ATOM     12  C   UNK A  0        3.972   0.322   4.057  0.00  0.00    +0.070 C 
ATOM     13  C   UNK A  0        4.254   0.086   2.564  0.00  0.00    +0.050 C 
ENDBRANCH   7  10
ENDBRANCH   1   3
BRANCH   1  17
ATOM     14  N   ALA A  1       -1.115   3.686  -2.756  0.00  0.00    -0.730 N 
ATOM     15  H   ALA A  1       -1.774   3.123  -3.191  0.00  0.00    +0.400 HD
ATOM     16  C   UNK A  0       -0.463   3.239  -1.664  0.00  0.00    +0.710 C 
ATOM     17  N   UNK A  0       -0.727   2.011  -1.176  0.00  0.00    -0.740 N 
ATOM     18  H   UNK A  0       -1.387   1.448  -1.611  0.00  0.00    +0.400 HD
ATOM     19  O   UNK A  0        0.364   3.945  -1.119  0.00  0.00    -0.590 OA
BRANCH  14  21
ATOM     20  CB  ALA A  1        0.384   4.950  -4.218  0.00  0.00    +0.040 C 
ATOM     21  CA  ALA A  1       -0.827   5.021  -3.286  0.00  0.00    +0.260 C 
BRANCH  21  22
ATOM     22  C   ALA A  1       -2.041   5.533  -4.064  0.00  0.00    +0.180 C 
BRANCH  22  23
ATOM     23  O   ALA A  1       -2.253   4.709  -5.212  0.00  0.00    -0.570 OA
ATOM     24  H   ALA A  1       -3.008   4.976  -5.753  0.00  0.00    +0.390 HD
ENDBRANCH  22  23
ENDBRANCH  21  22
ENDBRANCH  14  21
ENDBRANCH   1  17
TORSDOF 6
