REMARK  Name = ZINCrD000006fiLw.0
REMARK                            x       y       z     vdW  Elec       q    Type
REMARK                         _______ _______ _______ _____ _____    ______ ____
ROOT
ATOM      1  N   LIG    1        3.577   1.370  -0.746  0.00  0.00    -0.660 N 
ATOM      2  H   LIG    1        3.769   2.284  -0.484  0.00  0.00    +0.420 HD
ATOM      3  C   LIG    1        2.320   0.894  -0.656  0.00  0.00    +0.510 C 
ATOM      4  O   LIG    1        2.058  -0.212  -1.081  0.00  0.00    -0.510 OA
ENDROOT
BRANCH   1   7
ATOM      5  C   LIG    1        6.744   0.287  -2.281  0.00  0.00    +0.140 A 
ATOM      6  C   LIG    1        5.726   1.107  -1.815  0.00  0.00    +0.030 A 
ATOM      7  C   LIG    1        4.606   0.546  -1.217  0.00  0.00    +0.160 A 
ATOM      8  C   LIG    1        4.510  -0.833  -1.081  0.00  0.00    +0.040 A 
ATOM      9  C   LIG    1        5.523  -1.648  -1.549  0.00  0.00    +0.040 A 
ATOM     10  C   LIG    1        6.640  -1.093  -2.146  0.00  0.00    +0.060 A 
ATOM     11  F   LIG    1        7.630  -1.893  -2.599  0.00  0.00    -0.140 F 
BRANCH   5  13
ATOM     12  C   LIG    1        8.354   2.032  -2.450  0.00  0.00    +0.550 C 
ATOM     13  N   LIG    1        7.875   0.849  -2.885  0.00  0.00    -0.670 N 
ATOM     14  H   LIG    1        8.313   0.388  -3.617  0.00  0.00    +0.420 HD
ATOM     15  O   LIG    1        7.756   2.651  -1.591  0.00  0.00    -0.520 OA
BRANCH  12  17
ATOM     16  C   LIG    1       10.072   3.740  -2.586  0.00  0.00    +0.160 C 
ATOM     17  C   LIG    1        9.599   2.573  -3.015  0.00  0.00    -0.090 C 
ENDBRANCH  12  17
ENDBRANCH   5  13
ENDBRANCH   1   7
BRANCH   3  18
ATOM     18  C   LIG    1        1.238   1.734  -0.028  0.00  0.00    +0.250 C 
ATOM     19  C   LIG    1        1.617   2.053   1.420  0.00  0.00    +0.060 C 
BRANCH  18  20
ATOM     20  N   LIG    1       -0.028   0.998  -0.051  0.00  0.00    -0.720 N 
ATOM     21  H   LIG    1       -0.025   0.029  -0.082  0.00  0.00    +0.410 HD
ATOM     22  C   LIG    1       -1.197   1.668  -0.034  0.00  0.00    +0.520 C 
ATOM     23  O   LIG    1       -1.201   2.880   0.005  0.00  0.00    -0.530 OA
BRANCH  22  24
ATOM     24  C   LIG    1       -2.500   0.911  -0.064  0.00  0.00    +0.060 C 
BRANCH  24  25
ATOM     25  C   LIG    1       -3.666   1.901  -0.037  0.00  0.00    +0.010 C 
ATOM     26  C   LIG    1       -3.666   2.653   1.295  0.00  0.00    +0.010 C 
ATOM     27  C   LIG    1       -4.832   3.643   1.322  0.00  0.00    +0.000 C 
ATOM     28  C   LIG    1       -6.150   2.883   1.166  0.00  0.00    +0.000 C 
ATOM     29  C   LIG    1       -6.151   2.131  -0.166  0.00  0.00    +0.000 C 
ATOM     30  C   LIG    1       -4.984   1.141  -0.193  0.00  0.00    +0.000 C 
ENDBRANCH  24  25
ENDBRANCH  22  24
ENDBRANCH  18  20
ENDBRANCH   3  18
TORSDOF 7
