REMARK  Name = ZINCtV000002sSMf.0
REMARK                            x       y       z     vdW  Elec       q    Type
REMARK                         _______ _______ _______ _____ _____    ______ ____
ROOT
ATOM      1  N   LIG    1        1.079   2.308   0.004  0.00  0.00    -0.410 N 
ATOM      2  C   LIG    1        0.574   3.579   0.015  0.00  0.00    +0.170 A 
ATOM      3  N   LIG    1       -0.737   3.477   0.026  0.00  0.00    -0.280 NA
ATOM      4  N   LIG    1       -1.084   2.240   0.019  0.00  0.00    -0.260 NA
ATOM      5  C   LIG    1       -0.018   1.474   0.010  0.00  0.00    +0.240 A 
ENDROOT
BRANCH   1  11
ATOM      6  C   LIG    1        3.111   1.740   1.184  0.00  0.00    -0.040 A 
ATOM      7  C   LIG    1        4.441   1.370   1.166  0.00  0.00    +0.040 A 
ATOM      8  C   LIG    1        5.095   1.192  -0.039  0.00  0.00    +0.050 A 
ATOM      9  C   LIG    1        4.419   1.383  -1.230  0.00  0.00    +0.030 A 
ATOM     10  C   LIG    1        3.086   1.747  -1.219  0.00  0.00    +0.030 A 
ATOM     11  C   LIG    1        2.429   1.933  -0.011  0.00  0.00    +0.090 A 
BRANCH   6  13
ATOM     12  C   LIG    1        2.430   0.627   3.292  0.00  0.00    +0.030 C 
ATOM     13  C   LIG    1        2.399   1.934   2.498  0.00  0.00    +0.010 C 
ATOM     14  C   LIG    1        3.098   3.034   3.299  0.00  0.00    +0.040 C 
ENDBRANCH   6  13
ENDBRANCH   1  11
BRANCH   5  15
ATOM     15  C   LIG    1        0.002  -0.004   0.002  0.00  0.00    -0.070 A 
ATOM     16  C   LIG    1       -1.149  -0.733   0.321  0.00  0.00    +0.120 A 
ATOM     17  C   LIG    1       -1.078  -2.115   0.298  0.00  0.00    -0.020 A 
ATOM     18  C   LIG    1        0.117  -2.726  -0.036  0.00  0.00    +0.270 A 
ATOM     19  N   LIG    1        1.187  -2.013  -0.332  0.00  0.00    -0.480 NA
ATOM     20  C   LIG    1        1.168  -0.696  -0.330  0.00  0.00    +0.280 A 
ENDBRANCH   5  15
BRANCH   2  21
ATOM     21  S   LIG    1        1.506   5.075   0.014  0.00  0.00    +0.030 S 
BRANCH  21  22
ATOM     22  C   LIG    1        0.159   6.284   0.032  0.00  0.00    +0.150 C 
BRANCH  22  23
ATOM     23  C   LIG    1        0.735   7.677   0.034  0.00  0.00    -0.070 A 
ATOM     24  C   LIG    1        1.004   8.312   1.232  0.00  0.00    +0.050 A 
ATOM     25  C   LIG    1        1.538   9.587   1.234  0.00  0.00    +0.050 A 
ATOM     26  C   LIG    1        1.792  10.232   0.037  0.00  0.00    -0.080 A 
ATOM     27  C   LIG    1        1.517   9.599  -1.161  0.00  0.00    +0.050 A 
ATOM     28 BR   LIG    1        2.514  11.980   0.040  0.00  0.00    -0.040 Br
ATOM     29  C   LIG    1        0.989   8.322  -1.162  0.00  0.00    +0.050 A 
ENDBRANCH  22  23
ENDBRANCH  21  22
ENDBRANCH   2  21
TORSDOF 6
