REMARK  Name = ZINCrH000004quLB.0
REMARK                            x       y       z     vdW  Elec       q    Type
REMARK                         _______ _______ _______ _____ _____    ______ ____
ROOT
ATOM      1  N   LIG    1       -1.782   1.932  -0.116  0.00  0.00    -0.710 N 
ATOM      2  H   LIG    1       -2.471   1.280   0.086  0.00  0.00    +0.410 HD
ATOM      3  C   LIG    1       -2.044   3.249   0.005  0.00  0.00    +0.570 C 
ATOM      4  O   LIG    1       -1.181   4.066  -0.247  0.00  0.00    -0.530 OA
ENDROOT
BRANCH   3   5
ATOM      5  C   LIG    1       -3.382   3.699   0.445  0.00  0.00    -0.110 A 
ATOM      6  C   LIG    1       -4.377   2.762   0.731  0.00  0.00    +0.030 A 
ATOM      7  C   LIG    1       -5.624   3.185   1.146  0.00  0.00    +0.050 A 
ATOM      8  C   LIG    1       -5.894   4.535   1.271  0.00  0.00    +0.030 A 
ATOM      9  C   LIG    1       -4.912   5.475   0.984  0.00  0.00    +0.140 A 
ATOM     10  C   LIG    1       -3.656   5.061   0.571  0.00  0.00    +0.070 A 
BRANCH   9  11
ATOM     11  N   LIG    1       -5.193   6.843   1.113  0.00  0.00    -0.400 N 
ATOM     12  C   LIG    1       -4.316   7.861   0.868  0.00  0.00    +0.150 A 
ATOM     13  C   LIG    1       -4.952   9.028   1.098  0.00  0.00    -0.050 A 
ATOM     14  C   LIG    1       -6.265   8.721   1.509  0.00  0.00    -0.050 A 
ATOM     15  C   LIG    1       -6.385   7.378   1.509  0.00  0.00    +0.150 A 
ENDBRANCH   9  11
ENDBRANCH   3   5
BRANCH   1  16
ATOM     16  C   LIG    1       -0.456   1.487  -0.551  0.00  0.00    +0.320 C 
BRANCH  16  19
ATOM     17  N   LIG    1        0.701  -0.657  -0.982  0.00  0.00    -0.670 N 
ATOM     18  H   LIG    1        1.474  -0.146  -1.270  0.00  0.00    +0.410 HD
ATOM     19  C   LIG    1       -0.425  -0.019  -0.604  0.00  0.00    +0.510 C 
ATOM     20  O   LIG    1       -1.412  -0.657  -0.307  0.00  0.00    -0.510 OA
BRANCH  17  25
ATOM     21  C   LIG    1        0.919  -6.325  -0.884  0.00  0.00    +0.090 C 
ATOM     22  C   LIG    1        0.862  -4.819  -0.910  0.00  0.00    -0.080 A 
ATOM     23  C   LIG    1        1.214  -4.135  -2.059  0.00  0.00    +0.010 A 
ATOM     24  C   LIG    1        1.161  -2.755  -2.086  0.00  0.00    -0.090 A 
ATOM     25  C   LIG    1        0.755  -2.055  -0.958  0.00  0.00    +0.120 A 
ATOM     26  C   LIG    1        0.407  -2.745   0.196  0.00  0.00    -0.060 A 
ATOM     27  C   LIG    1       -0.029  -1.989   1.425  0.00  0.00    +0.080 C 
ATOM     28  C   LIG    1        1.545  -2.010  -3.338  0.00  0.00    +0.080 C 
ATOM     29  C   LIG    1        0.456  -4.125   0.215  0.00  0.00    +0.010 A 
ENDBRANCH  17  25
ENDBRANCH  16  19
ENDBRANCH   1  16
TORSDOF 5
