REMARK  Name = ZINCvU00000008dI.0
REMARK                            x       y       z     vdW  Elec       q    Type
REMARK                         _______ _______ _______ _____ _____    ______ ____
ROOT
ATOM      1  O   LIG    1        0.191   0.592  -2.288  0.00  0.00    -0.490 OA
ATOM      2  C   LIG    1        1.354   0.413  -1.995  0.00  0.00    +0.510 C 
ATOM      3  N   LIG    1        1.871  -0.832  -2.016  0.00  0.00    -0.670 N 
ATOM      4  H   LIG    1        2.820  -0.966  -1.869  0.00  0.00    +0.410 HD
ENDROOT
BRANCH   3   5
ATOM      5  C   LIG    1        1.036  -1.933  -2.251  0.00  0.00    +0.120 A 
ATOM      6  C   LIG    1       -0.230  -1.978  -1.682  0.00  0.00    +0.040 A 
ATOM      7  C   LIG    1       -1.054  -3.060  -1.918  0.00  0.00    -0.020 A 
ATOM      8  C   LIG    1       -0.613  -4.109  -2.715  0.00  0.00    +0.100 A 
ATOM      9  C   LIG    1        0.655  -4.065  -3.280  0.00  0.00    +0.010 A 
ATOM     10  C   LIG    1        1.477  -2.980  -3.049  0.00  0.00    +0.020 A 
BRANCH   8  11
ATOM     11  N   LIG    1       -1.446  -5.208  -2.949  0.00  0.00    -0.490 N 
ATOM     12  C   LIG    1       -1.637  -5.427  -4.388  0.00  0.00    +0.180 C 
ATOM     13  C   LIG    1       -2.430  -6.717  -4.609  0.00  0.00    +0.020 C 
ATOM     14  C   LIG    1       -3.786  -6.604  -3.906  0.00  0.00    +0.010 C 
ATOM     15  C   LIG    1       -3.559  -6.328  -2.417  0.00  0.00    +0.020 C 
ATOM     16  C   LIG    1       -2.733  -5.049  -2.260  0.00  0.00    +0.180 C 
ENDBRANCH   8  11
ENDBRANCH   3   5
BRANCH   2  17
ATOM     17  C   LIG    1        2.224   1.583  -1.612  0.00  0.00    +0.270 C 
BRANCH  17  18
ATOM     18  O   LIG    1        1.442   2.805  -1.665  0.00  0.00    -0.320 OA
BRANCH  18  19
ATOM     19  C   LIG    1        2.076   3.953  -1.348  0.00  0.00    +0.520 C 
ATOM     20  O   LIG    1        3.252   3.932  -1.036  0.00  0.00    -0.510 OA
BRANCH  19  21
ATOM     21  C   LIG    1        1.349   5.226  -1.380  0.00  0.00    -0.130 C 
ATOM     22  C   LIG    1        1.998   6.400  -1.056  0.00  0.00    +0.240 C 
BRANCH  21  23
ATOM     23  C   LIG    1       -0.076   5.251  -1.758  0.00  0.00    -0.160 A 
ATOM     24  C   LIG    1       -0.559   5.021  -2.998  0.00  0.00    +0.050 A 
ATOM     25  C   LIG    1       -1.932   5.100  -3.106  0.00  0.00    +0.010 A 
ATOM     26  C   LIG    1       -2.573   5.392  -1.970  0.00  0.00    -0.030 A 
ATOM     27  S   LIG    1       -1.413   5.580  -0.662  0.00  0.00    +0.130 S 
ENDBRANCH  21  23
BRANCH  22  28
ATOM     28  C   LIG    1        1.368   7.642  -1.287  0.00  0.00    -0.240 A 
ATOM     29  C   LIG    1        1.853   8.866  -0.898  0.00  0.00    +0.080 A 
ATOM     30  C   LIG    1        1.034   9.910  -1.254  0.00  0.00    -0.020 A 
ATOM     31  C   LIG    1       -0.080   9.561  -1.909  0.00  0.00    -0.100 A 
ATOM     32  S   LIG    1       -0.160   7.871  -2.126  0.00  0.00    +0.260 S 
ENDBRANCH  22  28
ENDBRANCH  19  21
ENDBRANCH  18  19
ENDBRANCH  17  18
ENDBRANCH   2  17
TORSDOF 8
