REMARK  Name = ZINCpk00000FcngF.0
REMARK                            x       y       z     vdW  Elec       q    Type
REMARK                         _______ _______ _______ _____ _____    ______ ____
ROOT
ATOM      1  C   LIG    1       -2.440   3.593  -1.572  0.00  0.00    +0.580 C 
ATOM      2  N   LIG    1       -1.577   2.891  -0.810  0.00  0.00    -0.610 N 
ATOM      3  C   LIG    1       -1.195   3.216   0.576  0.00  0.00    +0.240 C 
ATOM      4  C   LIG    1       -0.728   1.869   1.188  0.00  0.00    +0.170 C 
ATOM      5  C   LIG    1       -0.012   1.212  -0.022  0.00  0.00    +0.080 C 
ATOM      6  C   LIG    1       -0.861   1.676  -1.224  0.00  0.00    +0.270 C 
ATOM      7  O   LIG    1       -2.940   4.613  -1.141  0.00  0.00    -0.510 OA
ENDROOT
BRANCH   6   8
ATOM      8  C   LIG    1        0.035   1.984  -2.396  0.00  0.00    -0.120 A 
ATOM      9  C   LIG    1        0.386   3.291  -2.673  0.00  0.00    +0.030 A 
ATOM     10  C   LIG    1        1.212   3.573  -3.747  0.00  0.00    +0.100 A 
ATOM     11  C   LIG    1        1.680   2.546  -4.550  0.00  0.00    +0.030 A 
ATOM     12  C   LIG    1        1.325   1.239  -4.275  0.00  0.00    +0.040 A 
ATOM     13  F   LIG    1        1.559   4.851  -4.016  0.00  0.00    -0.130 F 
ATOM     14  C   LIG    1        0.503   0.957  -3.199  0.00  0.00    +0.100 A 
ATOM     15  F   LIG    1        0.156  -0.322  -2.931  0.00  0.00    -0.120 F 
ENDBRANCH   6   8
BRANCH   1  19
ATOM     16  C   LIG    1       -3.356   2.179  -5.428  0.00  0.00    +0.100 A 
ATOM     17  C   LIG    1       -3.856   3.421  -5.045  0.00  0.00    +0.040 A 
ATOM     18  C   LIG    1       -3.567   3.905  -3.780  0.00  0.00    +0.140 A 
ATOM     19  C   LIG    1       -2.778   3.121  -2.933  0.00  0.00    -0.170 A 
ATOM     20  C   LIG    1       -2.308   1.887  -3.392  0.00  0.00    +0.290 A 
ATOM     21  N   LIG    1       -2.610   1.460  -4.598  0.00  0.00    -0.460 NA
BRANCH  16  25
ATOM     22  N   LIG    1       -3.182   0.451  -7.160  0.00  0.00    -0.830 N 
ATOM     23  H   LIG    1       -3.381   0.107  -8.045  0.00  0.00    +0.410 HD
ATOM     24  H   LIG    1       -2.637  -0.068  -6.549  0.00  0.00    +0.410 HD
ATOM     25  C   LIG    1       -3.661   1.652  -6.780  0.00  0.00    +0.580 C 
ATOM     26  O   LIG    1       -4.344   2.304  -7.546  0.00  0.00    -0.530 OA
ENDBRANCH  16  25
ENDBRANCH   1  19
BRANCH   4  27
ATOM     27  O   LIG    1        0.183   2.082   2.268  0.00  0.00    -0.550 OA
ATOM     28  H   LIG    1       -0.218   2.490   3.047  0.00  0.00    +0.390 HD
ENDBRANCH   4  27
TORSDOF 4
