REMARK  Name = ZINCrH000004uFd7.0
REMARK                            x       y       z     vdW  Elec       q    Type
REMARK                         _______ _______ _______ _____ _____    ______ ____
ROOT
ATOM      1  C   LIG    1       -2.191  -0.289   3.813  0.00  0.00    -0.010 C 
ATOM      2  C   LIG    1       -2.881   0.017   2.482  0.00  0.00    +0.060 C 
ATOM      3  C   LIG    1       -2.211  -0.792   1.366  0.00  0.00    +0.290 C 
ATOM      4  N   LIG    1       -0.769  -0.509   1.378  0.00  0.00    -0.990 NA
ATOM      5  C   LIG    1       -0.024  -0.689   2.631  0.00  0.00    +0.300 C 
ATOM      6  C   LIG    1       -0.719   0.124   3.734  0.00  0.00    +0.040 C 
ENDROOT
BRANCH   1   8
ATOM      7  O   LIG    1       -3.811   1.200   4.666  0.00  0.00    -0.530 OA
ATOM      8  C   LIG    1       -2.869   0.479   4.918  0.00  0.00    +0.520 C 
ATOM      9  N   LIG    1       -2.428   0.365   6.187  0.00  0.00    -0.730 N 
ATOM     10  H   LIG    1       -1.675  -0.212   6.388  0.00  0.00    +0.400 HD
BRANCH   9  11
ATOM     11  C   LIG    1       -3.087   1.112   7.261  0.00  0.00    +0.320 C 
BRANCH  11  12
ATOM     12  C   LIG    1       -2.408   0.811   8.572  0.00  0.00    -0.110 A 
ATOM     13  C   LIG    1       -2.849  -0.241   9.354  0.00  0.00    +0.020 A 
ATOM     14  C   LIG    1       -2.223  -0.520  10.554  0.00  0.00    +0.000 A 
ATOM     15  C   LIG    1       -1.162   0.259  10.978  0.00  0.00    +0.010 A 
ATOM     16  C   LIG    1       -0.724   1.313  10.199  0.00  0.00    +0.010 A 
ATOM     17  C   LIG    1       -1.347   1.589   8.996  0.00  0.00    +0.020 A 
ENDBRANCH  11  12
ENDBRANCH   9  11
ENDBRANCH   1   8
BRANCH   4  18
ATOM     18  S   LIG    1        0.002  -0.004   0.002  0.00  0.00    +2.690 S 
ATOM     19  O   LIG    1       -0.958   0.724  -0.752  0.00  0.00    -0.940 OA
ATOM     20  O   LIG    1        1.244   0.547   0.418  0.00  0.00    -0.930 OA
BRANCH  18  21
ATOM     21  C   LIG    1        0.386  -1.444  -0.939  0.00  0.00    -0.670 A 
ATOM     22  C   LIG    1       -0.228  -1.656  -2.158  0.00  0.00    +0.160 A 
ATOM     23  C   LIG    1        0.074  -2.787  -2.897  0.00  0.00    -0.050 A 
ATOM     24  C   LIG    1        0.991  -3.704  -2.415  0.00  0.00    +0.110 A 
ATOM     25  C   LIG    1        1.605  -3.491  -1.195  0.00  0.00    +0.050 A 
ATOM     26 CL   LIG    1       -0.697  -3.054  -4.429  0.00  0.00    -0.040 Cl
ATOM     27  C   LIG    1        1.307  -2.358  -0.459  0.00  0.00    +0.060 A 
ATOM     28 CL   LIG    1        2.084  -2.087   1.070  0.00  0.00    -0.030 Cl
ENDBRANCH  18  21
ENDBRANCH   4  18
TORSDOF 5
