REMARK  Name = ZINCkj000005m3nh.1
REMARK                            x       y       z     vdW  Elec       q    Type
REMARK                         _______ _______ _______ _____ _____    ______ ____
ROOT
ATOM      1  O   LIG    1       -0.578   5.032   2.137  0.00  0.00    -0.500 OA
ATOM      2  C   LIG    1       -0.469   3.827   2.219  0.00  0.00    +0.500 C 
ATOM      3  N   LIG    1       -0.853   3.044   1.191  0.00  0.00    -0.630 N 
ATOM      4  C   LIG    1       -0.730   1.580   1.268  0.00  0.00    +0.320 C 
ATOM      5  C   LIG    1       -0.013   1.086   0.008  0.00  0.00    +0.270 C 
ATOM      6  N   LIG    1       -0.723   1.572  -1.181  0.00  0.00    -0.500 N 
ATOM      7  C   LIG    1       -0.657   3.038  -1.238  0.00  0.00    +0.220 C 
ATOM      8  H   LIG    1       -1.689   1.283  -1.137  0.00  0.00    +0.430 HD
ATOM      9  H   LIG    1       -0.295   1.185  -2.009  0.00  0.00    +0.440 HD
ATOM     10  C   LIG    1       -1.407   3.629  -0.040  0.00  0.00    +0.340 C 
ENDROOT
BRANCH   7  11
ATOM     11  C   LIG    1       -1.294   3.520  -2.517  0.00  0.00    -0.150 A 
ATOM     12  C   LIG    1       -2.444   2.915  -2.987  0.00  0.00    +0.000 A 
ATOM     13  C   LIG    1       -3.030   3.360  -4.157  0.00  0.00    +0.040 A 
ATOM     14  C   LIG    1       -2.461   4.404  -4.862  0.00  0.00    +0.050 A 
ATOM     15  C   LIG    1       -1.308   5.006  -4.394  0.00  0.00    +0.040 A 
ATOM     16  C   LIG    1       -0.724   4.564  -3.221  0.00  0.00    +0.050 A 
ENDBRANCH   7  11
BRANCH   2  17
ATOM     17  C   LIG    1        0.095   3.205   3.470  0.00  0.00    +0.230 C 
BRANCH  17  18
ATOM     18  C   LIG    1       -0.986   2.366   4.155  0.00  0.00    -0.050 C 
ATOM     19  C   LIG    1       -1.941   3.191   5.034  0.00  0.00    +0.020 C 
ATOM     20  C   LIG    1       -1.883   2.033   6.045  0.00  0.00    +0.020 C 
ATOM     21  C   LIG    1       -0.510   1.685   5.448  0.00  0.00    +0.040 C 
ENDBRANCH  17  18
BRANCH  17  22
ATOM     22  O   LIG    1        0.533   4.235   4.358  0.00  0.00    -0.530 OA
ATOM     23  H   LIG    1       -0.169   4.842   4.633  0.00  0.00    +0.390 HD
ENDBRANCH  17  22
ENDBRANCH   2  17
TORSDOF 4
