REMARK  Name = ZINCqH0000000uf7.0
REMARK                            x       y       z     vdW  Elec       q    Type
REMARK                         _______ _______ _______ _____ _____    ______ ____
ROOT
ATOM      1  N   LIG    1        4.930  -4.047  -0.083  0.00  0.00    -0.660 N 
ATOM      2  H   LIG    1        4.100  -4.542  -0.002  0.00  0.00    +0.410 HD
ATOM      3  C   LIG    1        4.914  -2.700  -0.083  0.00  0.00    +0.560 C 
ATOM      4  O   LIG    1        5.960  -2.080  -0.083  0.00  0.00    -0.500 OA
ENDROOT
BRANCH   3   5
ATOM      5  C   LIG    1        3.626  -1.976  -0.083  0.00  0.00    -0.120 A 
ATOM      6  C   LIG    1        3.615  -0.592  -0.083  0.00  0.00    +0.160 A 
ATOM      7  C   LIG    1        2.388   0.091  -0.082  0.00  0.00    +0.070 A 
ATOM      8  N   LIG    1        2.344   1.428  -0.083  0.00  0.00    -0.420 NA
ATOM      9  C   LIG    1        1.183   2.042  -0.082  0.00  0.00    +0.110 A 
ATOM     10  C   LIG    1       -0.009   1.313  -0.082  0.00  0.00    +0.120 A 
ATOM     11  N   LIG    1        0.008  -0.001  -0.082  0.00  0.00    -0.430 NA
ATOM     12  C   LIG    1       -1.328   2.041  -0.088  0.00  0.00    +0.160 C 
ATOM     13  C   LIG    1        1.136   3.548  -0.082  0.00  0.00    +0.160 C 
ATOM     14  C   LIG    1        1.178  -0.650  -0.082  0.00  0.00    +0.100 A 
ATOM     15  C   LIG    1        1.223  -2.056  -0.083  0.00  0.00    +0.070 A 
ATOM     16  C   LIG    1        2.419  -2.698  -0.083  0.00  0.00    +0.060 A 
ENDBRANCH   3   5
BRANCH   1  21
ATOM     17  C   LIG    1        7.468  -6.701   0.172  0.00  0.00    +0.160 A 
ATOM     18  C   LIG    1        8.552  -6.083  -0.438  0.00  0.00    +0.010 A 
ATOM     19  C   LIG    1        8.431  -4.796  -0.927  0.00  0.00    +0.050 A 
ATOM     20  C   LIG    1        7.230  -4.122  -0.815  0.00  0.00    +0.010 A 
ATOM     21  C   LIG    1        6.144  -4.732  -0.201  0.00  0.00    +0.160 A 
ATOM     22  C   LIG    1        6.263  -6.024   0.291  0.00  0.00    -0.140 A 
ATOM     23  C   LIG    1        5.084  -6.692   0.953  0.00  0.00    +0.090 C 
BRANCH  17  26
ATOM     24  C   LIG    1        8.860  -9.778   1.834  0.00  0.00    +0.110 C 
ATOM     25  C   LIG    1        8.758  -8.413   1.205  0.00  0.00    +0.510 C 
ATOM     26  N   LIG    1        7.592  -8.004   0.667  0.00  0.00    -0.670 N 
ATOM     27  H   LIG    1        6.838  -8.613   0.622  0.00  0.00    +0.410 HD
ATOM     28  O   LIG    1        9.726  -7.681   1.182  0.00  0.00    -0.520 OA
ENDBRANCH  17  26
ENDBRANCH   1  21
TORSDOF 3
