REMARK  Name = ZINCrD00000c4DBp.0
REMARK                            x       y       z     vdW  Elec       q    Type
REMARK                         _______ _______ _______ _____ _____    ______ ____
ROOT
ATOM      1  C   LIG    1        4.254  -1.280  -0.878  0.00  0.00    +0.200 C 
ATOM      2  C   LIG    1        4.689  -1.979  -2.183  0.00  0.00    +0.040 C 
ATOM      3  C   LIG    1        6.058  -1.317  -2.492  0.00  0.00    +0.040 C 
ATOM      4  C   LIG    1        5.818   0.135  -2.009  0.00  0.00    +0.240 C 
ATOM      5  N   LIG    1        4.978  -0.002  -0.805  0.00  0.00    -0.600 N 
ATOM      6  C   LIG    1        4.889   0.895   0.197  0.00  0.00    +0.520 C 
ATOM      7  O   LIG    1        4.324   0.598   1.228  0.00  0.00    -0.510 OA
ENDROOT
BRANCH   6   8
ATOM      8  C   LIG    1        5.491   2.267   0.036  0.00  0.00    +0.110 C 
ATOM      9  C   LIG    1        6.770   2.160  -0.790  0.00  0.00    +0.030 C 
ATOM     10  C   LIG    1        7.666   1.056  -0.226  0.00  0.00    +0.110 C 
ATOM     11  S   LIG    1        8.160   1.507   1.463  0.00  0.00    -0.260 S 
ATOM     12  C   LIG    1        6.559   1.834   2.258  0.00  0.00    +0.130 C 
ATOM     13  C   LIG    1        5.787   2.851   1.414  0.00  0.00    +0.080 C 
BRANCH   8  14
ATOM     14  O   LIG    1        4.561   3.112  -0.644  0.00  0.00    -0.340 OA
BRANCH  14  15
ATOM     15  C   LIG    1        4.168   2.628  -1.930  0.00  0.00    +0.170 C 
ATOM     16  C   LIG    1        3.140   3.581  -2.542  0.00  0.00    +0.050 C 
ENDBRANCH  14  15
ENDBRANCH   8  14
ENDBRANCH   6   8
BRANCH   1  17
ATOM     17  C   LIG    1        2.746  -1.022  -0.903  0.00  0.00    +0.270 C 
BRANCH  17  19
ATOM     18  C   LIG    1        2.156   1.074   0.191  0.00  0.00    +0.530 C 
ATOM     19  N   LIG    1        2.362  -0.255   0.284  0.00  0.00    -0.600 N 
ATOM     20  C   LIG    1        2.201  -0.932   1.573  0.00  0.00    +0.280 C 
ATOM     21  O   LIG    1        2.240   1.626  -0.886  0.00  0.00    -0.530 OA
BRANCH  18  22
ATOM     22  C   LIG    1        1.822   1.873   1.424  0.00  0.00    +0.010 C 
BRANCH  22  23
ATOM     23  C   LIG    1        0.303   1.933   1.596  0.00  0.00    +0.020 C 
ATOM     24  C   LIG    1       -0.237   0.525   1.856  0.00  0.00    +0.010 C 
ENDBRANCH  22  23
BRANCH  22  25
ATOM     25  C   LIG    1        2.375   3.292   1.277  0.00  0.00    +0.090 C 
BRANCH  25  27
ATOM     26  C   LIG    1        3.116   4.638   3.174  0.00  0.00    +0.000 C 
ATOM     27  C   LIG    1        2.120   4.064   2.546  0.00  0.00    -0.040 C 
ENDBRANCH  25  27
ENDBRANCH  22  25
ENDBRANCH  18  22
ENDBRANCH  17  19
ENDBRANCH   1  17
TORSDOF 9
