REMARK  Name = ZINCc70000002wis.0
REMARK                            x       y       z     vdW  Elec       q    Type
REMARK                         _______ _______ _______ _____ _____    ______ ____
ROOT
ATOM      1  C   LIG    1       -1.281   2.821   2.943  0.00  0.00    +0.230 A 
ATOM      2  C   LIG    1       -2.062   1.678   2.938  0.00  0.00    +0.010 A 
ATOM      3  N   LIG    1       -1.672   0.940   1.860  0.00  0.00    -0.410 NA
ATOM      4  C   LIG    1       -0.718   1.572   1.248  0.00  0.00    +0.200 A 
ATOM      5  O   LIG    1       -0.458   2.726   1.883  0.00  0.00    -0.200 OA
ENDROOT
BRANCH   1   7
ATOM      6  C   LIG    1       -0.352   4.896   3.531  0.00  0.00    +0.240 C 
ATOM      7  N   LIG    1       -1.337   3.854   3.854  0.00  0.00    -0.430 N 
ATOM      8  C   LIG    1       -2.692   4.417   3.930  0.00  0.00    +0.260 C 
ENDBRANCH   1   7
BRANCH   2   9
ATOM      9  C   LIG    1       -3.085   1.338   3.881  0.00  0.00    +0.300 C 
ATOM     10  N   LIG    1       -3.896   1.068   4.629  0.00  0.00    -0.390 NA
ENDBRANCH   2   9
BRANCH   4  11
ATOM     11  C   LIG    1       -0.013   1.086   0.008  0.00  0.00    +0.360 C 
BRANCH  11  12
ATOM     12  O   LIG    1       -0.704   1.559  -1.150  0.00  0.00    -0.560 OA
ATOM     13  H   LIG    1       -0.304   1.284  -1.986  0.00  0.00    +0.400 HD
ENDBRANCH  11  12
ENDBRANCH   4  11
TORSDOF 4
