REMARK  Name = ZINCvU0000000EjU.0
REMARK                            x       y       z     vdW  Elec       q    Type
REMARK                         _______ _______ _______ _____ _____    ______ ____
ROOT
ATOM      1  C   LIG    1       -4.310  -1.263   6.139  0.00  0.00    -0.140 A 
ATOM      2  C   LIG    1       -5.543  -1.878   6.407  0.00  0.00    +0.070 A 
ATOM      3  C   LIG    1       -5.752  -3.184   5.901  0.00  0.00    -0.090 A 
ATOM      4  C   LIG    1       -6.954  -3.869   6.130  0.00  0.00    +0.050 A 
ATOM      5  C   LIG    1       -7.120  -5.125   5.628  0.00  0.00    +0.020 A 
ATOM      6  C   LIG    1       -6.111  -5.736   4.889  0.00  0.00    +0.050 A 
ATOM      7  C   LIG    1       -4.932  -5.098   4.648  0.00  0.00    +0.050 A 
ATOM      8  C   LIG    1       -4.724  -3.803   5.149  0.00  0.00    +0.150 A 
ATOM      9  N   LIG    1       -3.571  -3.158   4.924  0.00  0.00    -0.450 NA
ATOM     10  C   LIG    1       -3.350  -1.952   5.379  0.00  0.00    +0.200 A 
ENDROOT
BRANCH   2  11
ATOM     11  C   LIG    1       -6.585  -1.188   7.198  0.00  0.00    -0.080 A 
ATOM     12  C   LIG    1       -7.187  -0.029   6.705  0.00  0.00    +0.040 A 
ATOM     13  C   LIG    1       -8.162   0.607   7.445  0.00  0.00    +0.010 A 
ATOM     14  C   LIG    1       -8.536   0.104   8.679  0.00  0.00    +0.030 A 
ATOM     15  C   LIG    1       -7.940  -1.042   9.176  0.00  0.00    +0.010 A 
ATOM     16  C   LIG    1       -6.967  -1.690   8.443  0.00  0.00    +0.040 A 
ENDBRANCH   2  11
BRANCH   1  17
ATOM     17  C   LIG    1       -4.028   0.093   6.643  0.00  0.00    +0.520 C 
ATOM     18  O   LIG    1       -4.314   1.063   5.969  0.00  0.00    -0.480 OA
BRANCH  17  19
ATOM     19  O   LIG    1       -3.453   0.256   7.851  0.00  0.00    -0.350 OA
BRANCH  19  21
ATOM     20  C   LIG    1       -2.552   1.605   9.667  0.00  0.00    +0.070 C 
ATOM     21  C   LIG    1       -3.204   1.620   8.283  0.00  0.00    +0.200 C 
ENDBRANCH  19  21
ENDBRANCH  17  19
ENDBRANCH   1  17
BRANCH  10  22
ATOM     22  C   LIG    1       -2.030  -1.287   5.086  0.00  0.00    +0.170 C 
BRANCH  22  23
ATOM     23  S   LIG    1       -2.152  -0.361   3.536  0.00  0.00    +0.040 S 
BRANCH  23  24
ATOM     24  C   LIG    1       -0.518   0.294   3.442  0.00  0.00    +0.150 A 
ATOM     25  N   LIG    1        0.450   0.104   4.308  0.00  0.00    -0.290 NA
ATOM     26  N   LIG    1        1.506   0.728   3.925  0.00  0.00    -0.290 NA
ATOM     27  C   LIG    1        1.279   1.343   2.799  0.00  0.00    +0.390 A 
ATOM     28  N   LIG    1       -0.020   1.094   2.454  0.00  0.00    -0.460 N 
BRANCH  28  29
ATOM     29  C   LIG    1       -0.729   1.579   1.267  0.00  0.00    +0.240 C 
ATOM     30  C   LIG    1       -0.750   3.109   1.275  0.00  0.00    +0.060 C 
ATOM     31  C   LIG    1       -0.013   1.086   0.008  0.00  0.00    +0.060 C 
ENDBRANCH  28  29
ENDBRANCH  23  24
ENDBRANCH  22  23
ENDBRANCH  10  22
TORSDOF 8
