REMARK  Name = ZINCpe00000MJMGI.1
REMARK                            x       y       z     vdW  Elec       q    Type
REMARK                         _______ _______ _______ _____ _____    ______ ____
ROOT
ATOM      1  N   LIG    1       -0.288   1.272  -2.443  0.00  0.00    -0.730 N 
ATOM      2  H   LIG    1        0.507   0.726  -2.543  0.00  0.00    +0.400 HD
ATOM      3  C   LIG    1       -0.742   1.585  -1.213  0.00  0.00    +0.500 C 
ATOM      4  O   LIG    1       -1.736   2.268  -1.088  0.00  0.00    -0.520 OA
ENDROOT
BRANCH   1   5
ATOM      5  C   LIG    1       -0.997   1.758  -3.630  0.00  0.00    +0.330 C 
BRANCH   5   8
ATOM      6  C   LIG    1       -0.000  -0.385  -6.574  0.00  0.00    -0.120 A 
ATOM      7  C   LIG    1       -0.646   0.062  -5.437  0.00  0.00    +0.060 A 
ATOM      8  C   LIG    1       -0.292   1.272  -4.870  0.00  0.00    -0.120 A 
ATOM      9  C   LIG    1        0.706   2.038  -5.442  0.00  0.00    +0.070 A 
ATOM     10  C   LIG    1        1.357   1.591  -6.576  0.00  0.00    -0.020 A 
ATOM     11  C   LIG    1        1.003   0.380  -7.145  0.00  0.00    +0.130 A 
ATOM     12  F   LIG    1        1.635  -0.056  -8.257  0.00  0.00    -0.130 F 
BRANCH   6  13
ATOM     13  C   LIG    1       -0.387  -1.704  -7.191  0.00  0.00    +0.230 C 
BRANCH  13  15
ATOM     14  C   LIG    1       -1.367  -2.707  -9.165  0.00  0.00    +0.190 C 
ATOM     15  N   LIG    1       -1.174  -1.463  -8.408  0.00  0.00    -0.540 NA
ATOM     16  C   LIG    1       -2.463  -0.837  -8.086  0.00  0.00    +0.190 C 
ENDBRANCH  13  15
ENDBRANCH   6  13
ENDBRANCH   5   8
ENDBRANCH   1   5
BRANCH   3  17
ATOM     17  C   LIG    1       -0.013   1.086   0.008  0.00  0.00    +0.320 C 
BRANCH  17  18
ATOM     18  N   LIG    1       -0.698   1.558   1.213  0.00  0.00    -0.590 N 
ATOM     19  C   LIG    1       -1.764   0.741   1.816  0.00  0.00    +0.280 C 
ATOM     20  C   LIG    1       -3.110   1.420   1.554  0.00  0.00    +0.020 C 
ATOM     21  C   LIG    1       -3.415   2.448   2.628  0.00  0.00    +0.010 C 
ATOM     22  C   LIG    1       -2.481   3.644   2.615  0.00  0.00    +0.060 C 
ATOM     23  C   LIG    1       -1.060   3.227   3.000  0.00  0.00    +0.180 C 
ATOM     24  C   LIG    1       -0.349   2.723   1.760  0.00  0.00    +0.490 C 
ATOM     25  O   LIG    1        0.537   3.384   1.261  0.00  0.00    -0.530 OA
BRANCH  23  26
ATOM     26  O   LIG    1       -0.356   4.351   3.532  0.00  0.00    -0.540 OA
ATOM     27  H   LIG    1        0.553   4.156   3.797  0.00  0.00    +0.380 HD
ENDBRANCH  23  26
ENDBRANCH  17  18
ENDBRANCH   3  17
TORSDOF 7
