REMARK  Name = ZINCpe000000Ysb8.0
REMARK                            x       y       z     vdW  Elec       q    Type
REMARK                         _______ _______ _______ _____ _____    ______ ____
ROOT
ATOM      1  N   LIG    1        1.311   3.400   1.468  0.00  0.00    -0.460 N 
ATOM      2  C   LIG    1        1.947   2.929   0.230  0.00  0.00    +0.230 C 
ATOM      3  C   LIG    1        0.869   2.413  -0.730  0.00  0.00    +0.300 C 
ATOM      4  N   LIG    1       -0.140   3.468  -0.910  0.00  0.00    -0.610 N 
ATOM      5  C   LIG    1       -0.724   4.085   0.290  0.00  0.00    +0.320 C 
ATOM      6  C   LIG    1       -0.519   3.859  -2.143  0.00  0.00    +0.570 C 
ATOM      7  O   LIG    1       -1.403   4.682  -2.275  0.00  0.00    -0.520 OA
ATOM      8  C   LIG    1        0.416   4.535   1.210  0.00  0.00    +0.210 C 
ENDROOT
BRANCH   1  14
ATOM      9  C   LIG    1        2.882   5.379   6.990  0.00  0.00    +0.390 C 
ATOM     10  N   LIG    1        2.251   4.939   5.743  0.00  0.00    -0.380 N 
ATOM     11  N   LIG    1        0.875   4.892   5.471  0.00  0.00    +0.010 NA
ATOM     12  N   LIG    1        0.692   4.455   4.274  0.00  0.00    -0.180 NA
ATOM     13  C   LIG    1        1.874   4.203   3.687  0.00  0.00    -0.130 A 
ATOM     14  C   LIG    1        2.260   3.722   2.420  0.00  0.00    +0.470 A 
ATOM     15  N   LIG    1        3.555   3.592   2.159  0.00  0.00    -0.570 NA
ATOM     16  C   LIG    1        4.470   3.897   3.061  0.00  0.00    +0.600 A 
ATOM     17  N   LIG    1        4.160   4.344   4.258  0.00  0.00    -0.540 NA
ATOM     18  C   LIG    1        2.888   4.508   4.613  0.00  0.00    +0.320 A 
ENDBRANCH   1  14
BRANCH   6  19
ATOM     19  C   LIG    1        0.141   3.286  -3.336  0.00  0.00    -0.100 A 
ATOM     20  C   LIG    1        0.288   1.904  -3.459  0.00  0.00    +0.040 A 
ATOM     21  C   LIG    1        0.900   1.374  -4.577  0.00  0.00    +0.050 A 
ATOM     22  C   LIG    1        1.376   2.209  -5.570  0.00  0.00    +0.010 A 
ATOM     23  C   LIG    1        1.238   3.583  -5.453  0.00  0.00    +0.100 A 
ATOM     24  F   LIG    1        1.706   4.394  -6.428  0.00  0.00    -0.130 F 
ATOM     25  C   LIG    1        0.623   4.126  -4.341  0.00  0.00    +0.030 A 
ENDBRANCH   6  19
TORSDOF 2
