REMARK  Name = ZINCvU0000000HuU.0
REMARK                            x       y       z     vdW  Elec       q    Type
REMARK                         _______ _______ _______ _____ _____    ______ ____
ROOT
ATOM      1  N   LIG    1       -3.685   3.231   0.712  0.00  0.00    -0.590 N 
ATOM      2  C   LIG    1       -2.631   4.017   0.401  0.00  0.00    +0.560 C 
ATOM      3  C   LIG    1       -1.366   3.354   0.031  0.00  0.00    -0.170 A 
ATOM      4  C   LIG    1       -0.176   4.069  -0.074  0.00  0.00    +0.100 A 
ATOM      5  C   LIG    1        0.989   3.409  -0.406  0.00  0.00    +0.000 A 
ATOM      6  C   LIG    1        0.977   2.042  -0.635  0.00  0.00    +0.050 A 
ATOM      7  C   LIG    1       -0.199   1.324  -0.546  0.00  0.00    +0.030 A 
ATOM      8  C   LIG    1       -1.385   1.974  -0.231  0.00  0.00    +0.130 A 
ATOM      9  N   LIG    1       -2.584   1.281  -0.194  0.00  0.00    -0.490 N 
ATOM     10  C   LIG    1       -3.230   1.275  -1.513  0.00  0.00    +0.230 C 
ATOM     11  O   LIG    1       -2.727   5.230   0.413  0.00  0.00    -0.510 OA
ATOM     12  C   LIG    1       -3.496   1.785   0.834  0.00  0.00    +0.470 C 
ENDROOT
BRANCH  12  13
ATOM     13  C   LIG    1       -4.830   1.099   0.690  0.00  0.00    -0.180 C 
ATOM     14  C   LIG    1       -5.685   1.503  -0.244  0.00  0.00    +0.090 C 
ATOM     15  C   LIG    1       -6.999   0.831  -0.330  0.00  0.00    -0.130 A 
ATOM     16  C   LIG    1       -7.824   0.992  -1.437  0.00  0.00    +0.100 A 
ATOM     17  C   LIG    1       -9.039   0.333  -1.483  0.00  0.00    -0.120 A 
ATOM     18  C   LIG    1       -9.431  -0.482  -0.435  0.00  0.00    +0.090 A 
ATOM     19  C   LIG    1       -8.618  -0.644   0.672  0.00  0.00    +0.010 A 
ATOM     20 BR   LIG    1      -10.170   0.547  -2.983  0.00  0.00    -0.040 Br
ATOM     21  C   LIG    1       -7.404   0.015   0.735  0.00  0.00    +0.150 A 
ATOM     22  O   LIG    1       -6.599  -0.093   1.823  0.00  0.00    -0.300 OA
ATOM     23  C   LIG    1       -5.187  -0.045   1.601  0.00  0.00    +0.310 C 
ENDBRANCH  12  13
BRANCH   1  27
ATOM     24  C   LIG    1       -7.445   4.914   1.353  0.00  0.00    +0.130 A 
ATOM     25  C   LIG    1       -6.822   4.203   2.368  0.00  0.00    +0.010 A 
ATOM     26  C   LIG    1       -5.576   3.646   2.156  0.00  0.00    +0.060 A 
ATOM     27  C   LIG    1       -4.948   3.796   0.927  0.00  0.00    +0.110 A 
ATOM     28  C   LIG    1       -5.571   4.513  -0.087  0.00  0.00    +0.050 A 
ATOM     29  C   LIG    1       -6.818   5.065   0.125  0.00  0.00    -0.060 A 
BRANCH  24  31
ATOM     30  C   LIG    1       -9.254   6.182   0.473  0.00  0.00    +0.250 C 
ATOM     31  O   LIG    1       -8.671   5.464   1.562  0.00  0.00    -0.310 OA
ENDBRANCH  24  31
ENDBRANCH   1  27
TORSDOF 3
