REMARK  Name = ZINCpe00000gNaXd.0
REMARK                            x       y       z     vdW  Elec       q    Type
REMARK                         _______ _______ _______ _____ _____    ______ ____
ROOT
ATOM      1  O   LIG    1       -1.164   1.135   2.050  0.00  0.00    -0.480 OA
ATOM      2  C   LIG    1       -0.718   1.934   1.254  0.00  0.00    +0.520 C 
ATOM      3  N   LIG    1       -0.862   3.256   1.472  0.00  0.00    -0.670 N 
ATOM      4  H   LIG    1       -0.450   3.895   0.869  0.00  0.00    +0.420 HD
ENDROOT
BRANCH   3   5
ATOM      5  C   LIG    1       -1.607   3.707   2.567  0.00  0.00    +0.210 A 
ATOM      6  C   LIG    1       -1.594   2.995   3.759  0.00  0.00    +0.060 A 
ATOM      7  C   LIG    1       -2.325   3.446   4.840  0.00  0.00    +0.140 A 
ATOM      8  C   LIG    1       -3.080   4.599   4.734  0.00  0.00    -0.050 A 
ATOM      9  C   LIG    1       -3.100   5.309   3.547  0.00  0.00    +0.150 A 
ATOM     10  C   LIG    1       -2.366   4.867   2.463  0.00  0.00    -0.070 A 
ATOM     11 CL   LIG    1       -2.393   5.758   0.974  0.00  0.00    -0.030 Cl
BRANCH   8  12
ATOM     12  N   LIG    1       -3.868   5.076   5.893  0.00  0.00    +0.030 N 
ATOM     13  O   LIG    1       -3.850   4.452   6.939  0.00  0.00    -0.150 OA
ATOM     14  O   LIG    1       -4.533   6.092   5.801  0.00  0.00    -0.150 OA
ENDBRANCH   8  12
ENDBRANCH   3   5
BRANCH   2  15
ATOM     15  C   LIG    1       -0.002   1.447   0.020  0.00  0.00    +0.270 C 
BRANCH  15  16
ATOM     16  O   LIG    1        0.022  -0.004   0.015  0.00  0.00    -0.330 OA
BRANCH  16  17
ATOM     17  C   LIG    1        0.627  -0.601  -1.025  0.00  0.00    +0.460 C 
ATOM     18  O   LIG    1        1.121   0.069  -1.901  0.00  0.00    -0.490 OA
BRANCH  17  19
ATOM     19  C   LIG    1        0.691  -2.104  -1.098  0.00  0.00    +0.390 C 
BRANCH  19  20
ATOM     20  N   LIG    1        1.397  -2.504  -2.318  0.00  0.00    -0.570 N 
ATOM     21  C   LIG    1        0.770  -2.721  -3.480  0.00  0.00    +0.530 C 
ATOM     22  C   LIG    1        1.787  -3.113  -4.530  0.00  0.00    +0.110 C 
ATOM     23  C   LIG    1        3.124  -3.093  -3.762  0.00  0.00    +0.110 C 
ATOM     24  O   LIG    1       -0.424  -2.618  -3.663  0.00  0.00    -0.470 OA
ATOM     25  C   LIG    1        2.723  -2.688  -2.361  0.00  0.00    +0.530 C 
ATOM     26  O   LIG    1        3.481  -2.550  -1.425  0.00  0.00    -0.470 OA
ENDBRANCH  19  20
ENDBRANCH  17  19
ENDBRANCH  16  17
ENDBRANCH  15  16
ENDBRANCH   2  15
TORSDOF 7
