REMARK  Name = ZINCpe000015ogKu.0
REMARK                            x       y       z     vdW  Elec       q    Type
REMARK                         _______ _______ _______ _____ _____    ______ ____
ROOT
ATOM      1  C   LIG    1        0.688   6.215   2.300  0.00  0.00    -0.060 C 
ATOM      2  C   LIG    1       -0.167   6.273   1.023  0.00  0.00    +0.070 C 
ATOM      3  C   LIG    1        0.321   7.725   0.859  0.00  0.00    -0.080 C 
ATOM      4  C   LIG    1        0.531   7.743   2.382  0.00  0.00    +0.060 C 
ENDROOT
BRANCH   1   5
ATOM      5  C   LIG    1        0.028   5.478   3.436  0.00  0.00    -0.070 A 
ATOM      6  C   LIG    1       -0.468   6.179   4.519  0.00  0.00    +0.000 A 
ATOM      7  C   LIG    1       -1.079   5.503   5.559  0.00  0.00    +0.000 A 
ATOM      8  C   LIG    1       -1.183   4.125   5.521  0.00  0.00    +0.000 A 
ATOM      9  C   LIG    1       -0.682   3.424   4.440  0.00  0.00    +0.000 A 
ATOM     10  C   LIG    1       -0.077   4.100   3.398  0.00  0.00    +0.020 A 
ENDBRANCH   1   5
BRANCH   1  11
ATOM     11  C   LIG    1        2.128   5.760   2.053  0.00  0.00    +0.310 C 
BRANCH  11  19
ATOM     12  O   LIG    1        4.618   4.764   2.344  0.00  0.00    -0.550 OA
ATOM     13  C   LIG    1        4.066   5.100   3.374  0.00  0.00    +0.710 C 
ATOM     14  N   LIG    1        4.702   4.961   4.554  0.00  0.00    -0.630 N 
ATOM     15  C   LIG    1        4.154   5.325   5.874  0.00  0.00    +0.240 C 
ATOM     16  C   LIG    1        5.396   5.571   6.766  0.00  0.00    +0.040 C 
ATOM     17  C   LIG    1        6.371   4.479   6.250  0.00  0.00    +0.040 C 
ATOM     18  C   LIG    1        6.057   4.422   4.740  0.00  0.00    +0.240 C 
ATOM     19  N   LIG    1        2.819   5.609   3.336  0.00  0.00    -0.740 N 
ATOM     20  H   LIG    1        2.379   5.877   4.158  0.00  0.00    +0.390 HD
BRANCH  18  21
ATOM     21  C   LIG    1        6.112   2.973   4.252  0.00  0.00    +0.150 C 
BRANCH  21  22
ATOM     22  O   LIG    1        5.935   2.940   2.834  0.00  0.00    -0.530 OA
ATOM     23  H   LIG    1        5.959   2.051   2.455  0.00  0.00    +0.370 HD
ENDBRANCH  21  22
ENDBRANCH  18  21
ENDBRANCH  11  19
ENDBRANCH   1  11
BRANCH   3  24
ATOM     24  C   LIG    1        1.619   7.851   0.060  0.00  0.00    +0.190 C 
BRANCH  24  25
ATOM     25  O   LIG    1        1.312   7.999  -1.328  0.00  0.00    -0.540 OA
ATOM     26  H   LIG    1        2.090   8.084  -1.896  0.00  0.00    +0.370 HD
ENDBRANCH  24  25
ENDBRANCH   3  24
BRANCH   3  27
ATOM     27  C   LIG    1       -0.768   8.687   0.379  0.00  0.00    +0.180 C 
BRANCH  27  28
ATOM     28  O   LIG    1       -0.889   8.599  -1.042  0.00  0.00    -0.540 OA
ATOM     29  H   LIG    1       -1.562   9.183  -1.416  0.00  0.00    +0.370 HD
ENDBRANCH  27  28
ENDBRANCH   3  27
TORSDOF 9
