REMARK  Name = ZINCtV00001bB3Fw.0
REMARK                            x       y       z     vdW  Elec       q    Type
REMARK                         _______ _______ _______ _____ _____    ______ ____
ROOT
ATOM      1  C   LIG    1       -2.491   3.886  -0.182  0.00  0.00    +0.140 A 
ATOM      2  C   LIG    1       -2.467   5.263   0.071  0.00  0.00    -0.260 A 
ATOM      3  C   LIG    1       -1.183   5.913   0.337  0.00  0.00    +0.560 A 
ATOM      4  N   LIG    1       -0.039   5.207   0.339  0.00  0.00    -0.630 N 
ATOM      5  H   LIG    1        0.797   5.665   0.519  0.00  0.00    +0.420 HD
ATOM      6  C   LIG    1       -0.023   3.850   0.094  0.00  0.00    +0.200 A 
ATOM      7  C   LIG    1        1.181   3.151   0.104  0.00  0.00    -0.030 A 
ATOM      8  C   LIG    1        1.191   1.795  -0.141  0.00  0.00    +0.090 A 
ATOM      9  C   LIG    1        0.009   1.114  -0.400  0.00  0.00    -0.010 A 
ATOM     10  C   LIG    1       -1.184   1.780  -0.421  0.00  0.00    +0.100 A 
ATOM     11  O   LIG    1       -1.149   7.111   0.558  0.00  0.00    -0.520 OA
ATOM     12  C   LIG    1       -1.218   3.155  -0.170  0.00  0.00    -0.130 A 
ENDROOT
BRANCH   1  17
ATOM     13  C   LIG    1       -7.448   1.166  -1.243  0.00  0.00    +0.090 C 
ATOM     14  C   LIG    1       -6.150   1.878  -0.965  0.00  0.00    -0.070 A 
ATOM     15  C   LIG    1       -5.686   2.835  -1.851  0.00  0.00    +0.010 A 
ATOM     16  C   LIG    1       -4.498   3.491  -1.604  0.00  0.00    +0.060 A 
ATOM     17  C   LIG    1       -3.763   3.188  -0.455  0.00  0.00    -0.070 A 
ATOM     18  C   LIG    1       -4.235   2.216   0.432  0.00  0.00    +0.030 A 
ATOM     19  C   LIG    1       -5.427   1.573   0.175  0.00  0.00    +0.010 A 
ENDBRANCH   1  17
BRANCH   2  20
ATOM     20  C   LIG    1       -3.713   6.044   0.071  0.00  0.00    +0.440 C 
ATOM     21  O   LIG    1       -4.787   5.477  -0.027  0.00  0.00    -0.450 OA
BRANCH  20  22
ATOM     22  C   LIG    1       -3.662   7.503   0.190  0.00  0.00    -0.060 C 
ATOM     23  C   LIG    1       -4.806   8.210   0.306  0.00  0.00    +0.100 C 
BRANCH  23  24
ATOM     24  C   LIG    1       -4.755   9.675   0.425  0.00  0.00    -0.080 A 
ATOM     25  C   LIG    1       -3.524  10.339   0.423  0.00  0.00    +0.040 A 
ATOM     26  C   LIG    1       -3.485  11.713   0.531  0.00  0.00    +0.000 A 
ATOM     27  C   LIG    1       -4.660  12.435   0.651  0.00  0.00    +0.020 A 
ATOM     28  C   LIG    1       -5.883  11.785   0.658  0.00  0.00    +0.000 A 
ATOM     29  C   LIG    1       -5.938  10.412   0.547  0.00  0.00    -0.060 A 
ATOM     30  C   LIG    1       -7.270   9.707   0.556  0.00  0.00    +0.090 C 
ENDBRANCH  23  24
ENDBRANCH  20  22
ENDBRANCH   2  20
TORSDOF 4
