REMARK  Name = ZINCvU0000000Iqk.0
REMARK                            x       y       z     vdW  Elec       q    Type
REMARK                         _______ _______ _______ _____ _____    ______ ____
ROOT
ATOM      1  C   LIG    1       -2.093   5.479  -2.497  0.00  0.00    +0.100 A 
ATOM      2  C   LIG    1       -1.269   5.086  -3.471  0.00  0.00    -0.070 A 
ATOM      3  S   LIG    1        0.122   4.303  -2.726  0.00  0.00    +0.150 S 
ATOM      4  C   LIG    1       -0.539   4.581  -1.174  0.00  0.00    +0.280 A 
ATOM      5  N   LIG    1       -1.678   5.190  -1.278  0.00  0.00    -0.460 NA
ENDROOT
BRANCH   4   6
ATOM      6  N   LIG    1        0.056   4.202   0.025  0.00  0.00    -0.470 N 
ATOM      7  C   LIG    1       -0.504   4.559   1.197  0.00  0.00    +0.520 C 
ATOM      8  O   LIG    1       -1.574   5.130   1.209  0.00  0.00    -0.470 OA
ATOM      9  C   LIG    1        0.199   4.249   2.494  0.00  0.00    +0.110 C 
BRANCH   6  10
ATOM     10  C   LIG    1        1.239   3.449   0.013  0.00  0.00    +0.060 A 
ATOM     11  C   LIG    1        2.470   4.088   0.008  0.00  0.00    +0.080 A 
ATOM     12  C   LIG    1        3.635   3.343  -0.003  0.00  0.00    -0.010 A 
ATOM     13  C   LIG    1        3.576   1.962  -0.008  0.00  0.00    +0.080 A 
ATOM     14  C   LIG    1        2.353   1.318   0.002  0.00  0.00    -0.060 A 
ATOM     15  C   LIG    1        1.181   2.057   0.008  0.00  0.00    +0.150 A 
BRANCH  15  16
ATOM     16  O   LIG    1       -0.023   1.425   0.014  0.00  0.00    -0.310 OA
ATOM     17  C   LIG    1       -0.006  -0.004   0.007  0.00  0.00    +0.240 C 
ENDBRANCH  15  16
ENDBRANCH   6  10
ENDBRANCH   4   6
BRANCH   1  18
ATOM     18  C   LIG    1       -3.394   6.190  -2.768  0.00  0.00    +0.220 C 
BRANCH  18  19
ATOM     19  S   LIG    1       -4.720   4.972  -2.951  0.00  0.00    +0.010 S 
BRANCH  19  28
ATOM     20  N   LIG    1       -7.369   5.641  -3.471  0.00  0.00    -0.470 N 
ATOM     21  C   LIG    1       -8.133   6.782  -3.659  0.00  0.00    +0.060 A 
ATOM     22  C   LIG    1       -9.476   7.008  -3.916  0.00  0.00    +0.010 A 
ATOM     23  C   LIG    1       -9.941   8.299  -4.062  0.00  0.00    +0.030 A 
ATOM     24  C   LIG    1       -9.071   9.374  -3.955  0.00  0.00    +0.000 A 
ATOM     25  C   LIG    1       -7.733   9.168  -3.702  0.00  0.00    +0.060 A 
ATOM     26  C   LIG    1       -7.248   7.867  -3.550  0.00  0.00    +0.060 A 
ATOM     27  N   LIG    1       -6.014   7.355  -3.301  0.00  0.00    -0.490 NA
ATOM     28  C   LIG    1       -6.083   6.047  -3.251  0.00  0.00    +0.260 A 
BRANCH  20  29
ATOM     29  C   LIG    1       -7.852   4.258  -3.499  0.00  0.00    +0.340 C 
BRANCH  29  31
ATOM     30  C   LIG    1       -9.484   3.382  -1.909  0.00  0.00    +0.050 C 
ATOM     31  C   LIG    1       -8.276   3.846  -2.113  0.00  0.00    -0.060 C 
ENDBRANCH  29  31
ENDBRANCH  20  29
ENDBRANCH  19  28
ENDBRANCH  18  19
ENDBRANCH   1  18
TORSDOF 8
