REMARK  Name = ZINCvU0000000FvF.0
REMARK                            x       y       z     vdW  Elec       q    Type
REMARK                         _______ _______ _______ _____ _____    ______ ____
ROOT
ATOM      1  O   LIG    1        3.659   3.361  -0.015  0.00  0.00    -0.510 OA
ATOM      2  C   LIG    1        3.667   2.145  -0.021  0.00  0.00    +0.560 C 
ATOM      3  N   LIG    1        4.839   1.479  -0.035  0.00  0.00    -0.720 N 
ATOM      4  H   LIG    1        4.845   0.509  -0.040  0.00  0.00    +0.400 HD
ENDROOT
BRANCH   2   5
ATOM      5  C   LIG    1        2.394   1.399  -0.013  0.00  0.00    -0.170 A 
ATOM      6  C   LIG    1        2.399   0.003  -0.020  0.00  0.00    +0.080 A 
ATOM      7  C   LIG    1        1.206  -0.688  -0.013  0.00  0.00    -0.040 A 
ATOM      8  C   LIG    1        0.002  -0.004   0.002  0.00  0.00    +0.080 A 
ATOM      9  C   LIG    1       -0.017   1.377   0.010  0.00  0.00    -0.080 A 
ATOM     10  C   LIG    1        1.174   2.088   0.002  0.00  0.00    +0.190 A 
BRANCH  10  11
ATOM     11  O   LIG    1        1.157   3.445   0.009  0.00  0.00    -0.270 OA
BRANCH  11  12
ATOM     12  C   LIG    1       -0.124   4.077   0.024  0.00  0.00    +0.260 C 
BRANCH  12  13
ATOM     13  C   LIG    1        0.054   5.574   0.030  0.00  0.00    -0.100 A 
ATOM     14  C   LIG    1        0.142   6.254   1.230  0.00  0.00    +0.070 A 
ATOM     15  C   LIG    1        0.312   7.626   1.237  0.00  0.00    -0.020 A 
ATOM     16  C   LIG    1        0.382   8.320   0.041  0.00  0.00    +0.110 A 
ATOM     17  C   LIG    1        0.289   7.638  -1.160  0.00  0.00    -0.020 A 
ATOM     18  F   LIG    1        0.542   9.661   0.046  0.00  0.00    -0.140 F 
ATOM     19  C   LIG    1        0.125   6.266  -1.165  0.00  0.00    +0.070 A 
ENDBRANCH  12  13
ENDBRANCH  11  12
ENDBRANCH  10  11
ENDBRANCH   2   5
BRANCH   3  20
ATOM     20  C   LIG    1        6.103   2.220  -0.044  0.00  0.00    +0.340 C 
BRANCH  20  21
ATOM     21  C   LIG    1        7.181   1.366  -0.659  0.00  0.00    -0.090 A 
ATOM     22  C   LIG    1        7.243   0.016  -0.369  0.00  0.00    +0.010 A 
ATOM     23  C   LIG    1        8.230  -0.769  -0.936  0.00  0.00    +0.010 A 
ATOM     24  C   LIG    1        9.161  -0.201  -1.786  0.00  0.00    +0.000 A 
ATOM     25  C   LIG    1        9.102   1.151  -2.072  0.00  0.00    +0.020 A 
ATOM     26  C   LIG    1        8.112   1.934  -1.508  0.00  0.00    +0.030 A 
ENDBRANCH  20  21
BRANCH  20  27
ATOM     27  C   LIG    1        6.487   2.573   1.370  0.00  0.00    -0.090 A 
ATOM     28  C   LIG    1        6.289   1.660   2.389  0.00  0.00    +0.020 A 
ATOM     29  C   LIG    1        6.646   1.983   3.685  0.00  0.00    +0.000 A 
ATOM     30  C   LIG    1        7.191   3.223   3.964  0.00  0.00    +0.000 A 
ATOM     31  C   LIG    1        7.383   4.138   2.946  0.00  0.00    +0.000 A 
ATOM     32  C   LIG    1        7.031   3.813   1.649  0.00  0.00    +0.020 A 
ENDBRANCH  20  27
ENDBRANCH   3  20
TORSDOF 7
