REMARK  Name = ZINCqH0000004mPt.0
REMARK                            x       y       z     vdW  Elec       q    Type
REMARK                         _______ _______ _______ _____ _____    ______ ____
ROOT
ATOM      1  N   LIG    1        2.321   5.100  -0.882  0.00  0.00    -0.720 N 
ATOM      2  H   LIG    1        1.446   5.480  -1.057  0.00  0.00    +0.400 HD
ATOM      3  C   LIG    1        3.417   5.641  -1.450  0.00  0.00    +0.520 C 
ATOM      4  O   LIG    1        4.511   5.165  -1.231  0.00  0.00    -0.530 OA
ENDROOT
BRANCH   1   5
ATOM      5  C   LIG    1        2.451   3.936  -0.001  0.00  0.00    +0.290 C 
BRANCH   5   6
ATOM      6  C   LIG    1        1.156   3.166   0.007  0.00  0.00    -0.090 A 
ATOM      7  C   LIG    1        1.175   1.783   0.000  0.00  0.00    +0.050 A 
ATOM      8  C   LIG    1       -0.013   1.076   0.008  0.00  0.00    +0.040 A 
ATOM      9  C   LIG    1       -1.220   1.751   0.017  0.00  0.00    -0.030 A 
ATOM     10  C   LIG    1       -1.238   3.135   0.030  0.00  0.00    +0.030 A 
ATOM     11 CL   LIG    1       -2.712   0.864   0.020  0.00  0.00    -0.070 Cl
ATOM     12  C   LIG    1       -0.050   3.841   0.022  0.00  0.00    +0.030 A 
ENDBRANCH   5   6
BRANCH   5  14
ATOM     13  C   LIG    1        4.149   5.079   1.432  0.00  0.00    +0.020 C 
ATOM     14  C   LIG    1        2.775   4.405   1.419  0.00  0.00    +0.010 C 
ENDBRANCH   5  14
ENDBRANCH   1   5
BRANCH   3  15
ATOM     15  C   LIG    1        3.283   6.838  -2.356  0.00  0.00    +0.040 C 
BRANCH  15  16
ATOM     16  C   LIG    1        4.666   7.251  -2.863  0.00  0.00    +0.330 C 
BRANCH  16  17
ATOM     17  N   LIG    1        4.536   8.414  -3.744  0.00  0.00    -0.550 N 
ATOM     18  C   LIG    1        4.356   8.251  -5.073  0.00  0.00    +0.490 C 
ATOM     19  C   LIG    1        4.257   9.460  -5.968  0.00  0.00    +0.300 C 
ATOM     20  O   LIG    1        3.675  10.549  -5.246  0.00  0.00    -0.300 OA
ATOM     21  C   LIG    1        4.161  10.784  -3.998  0.00  0.00    +0.080 A 
ATOM     22  C   LIG    1        4.220  12.071  -3.494  0.00  0.00    +0.030 A 
ATOM     23  C   LIG    1        4.718  12.291  -2.222  0.00  0.00    +0.030 A 
ATOM     24  C   LIG    1        5.157  11.230  -1.452  0.00  0.00    +0.020 A 
ATOM     25  C   LIG    1        5.100   9.940  -1.949  0.00  0.00    +0.000 A 
ATOM     26  O   LIG    1        4.270   7.137  -5.543  0.00  0.00    -0.500 OA
ATOM     27  C   LIG    1        4.603   9.713  -3.221  0.00  0.00    +0.090 A 
ENDBRANCH  16  17
ENDBRANCH  15  16
ENDBRANCH   3  15
TORSDOF 6
