REMARK  Name = ZINCpe00000gNeuv.0
REMARK                            x       y       z     vdW  Elec       q    Type
REMARK                         _______ _______ _______ _____ _____    ______ ____
ROOT
ATOM      1  O   LIG    1       -0.772  -5.639   0.522  0.00  0.00    -0.540 OA
ATOM      2  C   LIG    1       -1.040  -4.473   0.303  0.00  0.00    +0.600 C 
ATOM      3  N   LIG    1       -2.324  -4.095   0.145  0.00  0.00    -0.700 N 
ATOM      4  H   LIG    1       -2.537  -3.165  -0.029  0.00  0.00    +0.410 HD
ENDROOT
BRANCH   2   5
ATOM      5  C   LIG    1        0.042  -3.473   0.209  0.00  0.00    +0.000 A 
ATOM      6  C   LIG    1        1.377  -3.721   0.348  0.00  0.00    +0.180 A 
ATOM      7  N   LIG    1        2.024  -2.533   0.190  0.00  0.00    -0.360 N 
ATOM      8  C   LIG    1        3.348  -2.195   0.227  0.00  0.00    +0.220 A 
ATOM      9  C   LIG    1        3.736  -0.917   0.035  0.00  0.00    +0.030 A 
ATOM     10  C   LIG    1        2.781   0.086  -0.206  0.00  0.00    +0.050 A 
ATOM     11  C   LIG    1        1.462  -0.234  -0.246  0.00  0.00    +0.070 A 
ATOM     12  C   LIG    1        1.069  -1.575  -0.044  0.00  0.00    +0.230 A 
ATOM     13  N   LIG    1       -0.118  -2.158  -0.029  0.00  0.00    -0.460 NA
ENDBRANCH   2   5
BRANCH   3  14
ATOM     14  C   LIG    1       -3.397  -5.088   0.239  0.00  0.00    +0.280 C 
BRANCH  14  15
ATOM     15  C   LIG    1       -4.752  -4.384   0.149  0.00  0.00    +0.180 C 
BRANCH  15  16
ATOM     16  N   LIG    1       -4.893  -3.447   1.272  0.00  0.00    -0.520 NA
ATOM     17  C   LIG    1       -5.099  -4.168   2.536  0.00  0.00    +0.150 C 
ATOM     18  C   LIG    1       -5.181  -3.159   3.685  0.00  0.00    +0.220 C 
ATOM     19  O   LIG    1       -6.229  -2.223   3.417  0.00  0.00    -0.380 OA
ATOM     20  C   LIG    1       -6.059  -1.503   2.193  0.00  0.00    +0.220 C 
ATOM     21  C   LIG    1       -5.987  -2.495   1.030  0.00  0.00    +0.150 C 
ENDBRANCH  15  16
BRANCH  15  22
ATOM     22  C   LIG    1       -5.872  -5.425   0.210  0.00  0.00    -0.060 C 
ATOM     23  C   LIG    1       -5.669  -6.518  -0.867  0.00  0.00    +0.010 C 
ATOM     24  C   LIG    1       -7.085  -6.775  -1.417  0.00  0.00    +0.200 C 
ATOM     25  O   LIG    1       -7.989  -5.938  -0.676  0.00  0.00    -0.380 OA
ATOM     26  C   LIG    1       -7.228  -4.803  -0.211  0.00  0.00    +0.210 C 
ENDBRANCH  15  22
ENDBRANCH  14  15
ENDBRANCH   3  14
TORSDOF 5
