REMARK  Name = ZINCqH0000002TUf.0
REMARK                            x       y       z     vdW  Elec       q    Type
REMARK                         _______ _______ _______ _____ _____    ______ ____
ROOT
ATOM      1  C   LIG    1       -6.226   1.064   5.281  0.00  0.00    +0.160 A 
ATOM      2  N   LIG    1       -7.015   0.368   6.042  0.00  0.00    -0.270 NA
ATOM      3  O   LIG    1       -7.290  -0.876   5.431  0.00  0.00    -0.080 OA
ATOM      4  C   LIG    1       -6.646  -0.948   4.249  0.00  0.00    +0.300 A 
ATOM      5  N   LIG    1       -6.576  -1.881   3.312  0.00  0.00    -0.460 NA
ATOM      6  C   LIG    1       -5.863  -1.719   2.217  0.00  0.00    +0.240 A 
ATOM      7  C   LIG    1       -5.149  -0.555   1.981  0.00  0.00    -0.020 A 
ATOM      8  C   LIG    1       -5.175   0.465   2.931  0.00  0.00    +0.000 A 
ATOM      9  C   LIG    1       -5.946   0.261   4.092  0.00  0.00    -0.210 A 
ENDROOT
BRANCH   8  10
ATOM     10  C   LIG    1       -4.423   1.722   2.724  0.00  0.00    +0.560 C 
ATOM     11  N   LIG    1       -3.181   1.686   2.202  0.00  0.00    -0.710 N 
ATOM     12  H   LIG    1       -2.780   0.836   1.961  0.00  0.00    +0.410 HD
ATOM     13  O   LIG    1       -4.925   2.787   3.026  0.00  0.00    -0.500 OA
BRANCH  11  14
ATOM     14  C   LIG    1       -2.436   2.931   1.997  0.00  0.00    +0.270 C 
BRANCH  14  15
ATOM     15  C   LIG    1       -0.935   2.635   2.006  0.00  0.00    +0.160 C 
ATOM     16  C   LIG    1       -0.546   1.804   3.259  0.00  0.00    +0.010 C 
ATOM     17  C   LIG    1        0.747   1.096   2.785  0.00  0.00    +0.000 C 
ATOM     18  C   LIG    1        0.667   1.144   1.247  0.00  0.00    +0.200 C 
ATOM     19  O   LIG    1       -0.580   1.772   0.904  0.00  0.00    -0.370 OA
ENDBRANCH  14  15
BRANCH  14  20
ATOM     20  C   LIG    1       -2.826   3.543   0.650  0.00  0.00    +0.010 C 
ATOM     21  C   LIG    1       -4.300   3.954   0.685  0.00  0.00    +0.010 C 
ENDBRANCH  14  20
ENDBRANCH  11  14
ENDBRANCH   8  10
BRANCH   6  22
ATOM     22  C   LIG    1       -5.829  -2.823   1.193  0.00  0.00    +0.010 C 
ATOM     23  C   LIG    1       -5.323  -2.472  -0.208  0.00  0.00    +0.040 C 
ATOM     24  C   LIG    1       -6.813  -2.734   0.025  0.00  0.00    +0.060 C 
ENDBRANCH   6  22
BRANCH   1  25
ATOM     25  C   LIG    1       -5.696   2.445   5.571  0.00  0.00    +0.140 C 
BRANCH  25  27
ATOM     26  C   LIG    1       -6.178   4.891   5.406  0.00  0.00    +0.030 C 
ATOM     27  C   LIG    1       -6.716   3.489   5.112  0.00  0.00    +0.030 C 
ENDBRANCH  25  27
ENDBRANCH   1  25
TORSDOF 7
