REMARK  Name = ZINCtV00000L6kO0.0
REMARK                            x       y       z     vdW  Elec       q    Type
REMARK                         _______ _______ _______ _____ _____    ______ ____
ROOT
ATOM      1  C   LIG    1       -0.905   1.732   1.109  0.00  0.00    +0.010 A 
ATOM      2  C   LIG    1        0.112   1.007   0.443  0.00  0.00    -0.170 A 
ATOM      3  C   LIG    1        0.128  -0.196  -0.293  0.00  0.00    +0.130 A 
ATOM      4  N   LIG    1        1.347  -0.424  -0.693  0.00  0.00    -0.220 NA
ATOM      5  N   LIG    1        2.190   0.601  -0.249  0.00  0.00    -0.350 N 
ATOM      6  C   LIG    1       -1.067  -1.072  -0.572  0.00  0.00    +0.200 C 
ATOM      7  C   LIG    1        1.432   1.500   0.461  0.00  0.00    +0.340 A 
ATOM      8  N   LIG    1        1.716   2.631   1.089  0.00  0.00    -0.460 NA
ATOM      9  C   LIG    1        0.785   3.335   1.717  0.00  0.00    +0.270 A 
ATOM     10  C   LIG    1       -0.551   2.915   1.747  0.00  0.00    +0.020 A 
ENDROOT
BRANCH   5  11
ATOM     11  C   LIG    1        3.568   0.694  -0.487  0.00  0.00    +0.180 A 
ATOM     12  C   LIG    1        4.415  -0.331  -0.085  0.00  0.00    -0.010 A 
ATOM     13  C   LIG    1        5.773  -0.239  -0.326  0.00  0.00    +0.070 A 
ATOM     14  C   LIG    1        6.291   0.878  -0.957  0.00  0.00    -0.010 A 
ATOM     15  C   LIG    1        5.451   1.903  -1.354  0.00  0.00    +0.070 A 
ATOM     16 CL   LIG    1        7.998   0.993  -1.252  0.00  0.00    -0.030 Cl
ATOM     17 CL   LIG    1        3.767  -1.730   0.714  0.00  0.00    -0.020 Cl
ATOM     18  C   LIG    1        4.091   1.815  -1.121  0.00  0.00    -0.010 A 
ATOM     19 CL   LIG    1        3.038   3.102  -1.619  0.00  0.00    -0.020 Cl
ENDBRANCH   5  11
BRANCH   9  20
ATOM     20  C   LIG    1        1.165   4.588   2.399  0.00  0.00    -0.170 A 
ATOM     21  C   LIG    1        2.391   5.151   2.370  0.00  0.00    +0.080 A 
ATOM     22  C   LIG    1        2.503   6.325   3.083  0.00  0.00    +0.010 A 
ATOM     23  C   LIG    1        1.385   6.722   3.700  0.00  0.00    -0.020 A 
ATOM     24  S   LIG    1        0.090   5.575   3.381  0.00  0.00    +0.150 S 
ENDBRANCH   9  20
BRANCH   1  25
ATOM     25  C   LIG    1       -2.301   1.249   1.122  0.00  0.00    +0.510 C 
ATOM     26  O   LIG    1       -2.616   0.285   0.454  0.00  0.00    -0.480 OA
BRANCH  25  27
ATOM     27  O   LIG    1       -3.225   1.878   1.875  0.00  0.00    -0.350 OA
BRANCH  27  29
ATOM     28  C   LIG    1       -5.476   2.186   2.750  0.00  0.00    +0.060 C 
ATOM     29  C   LIG    1       -4.576   1.348   1.839  0.00  0.00    +0.210 C 
ENDBRANCH  27  29
ENDBRANCH  25  27
ENDBRANCH   1  25
TORSDOF 5
