REMARK  Name = ZINCvU0000000A2a.0
REMARK                            x       y       z     vdW  Elec       q    Type
REMARK                         _______ _______ _______ _____ _____    ______ ____
ROOT
ATOM      1  C   LIG    1        5.293   1.777  -0.039  0.00  0.00    +0.550 C 
ATOM      2  N   LIG    1        6.332   2.635  -0.044  0.00  0.00    -0.610 N 
ATOM      3  C   LIG    1        6.232   4.106  -0.042  0.00  0.00    +0.240 C 
ATOM      4  C   LIG    1        7.562   4.598  -0.659  0.00  0.00    +0.040 C 
ATOM      5  C   LIG    1        8.572   3.567  -0.089  0.00  0.00    +0.050 C 
ATOM      6  C   LIG    1        7.753   2.260  -0.060  0.00  0.00    +0.270 C 
ATOM      7  O   LIG    1        5.494   0.581  -0.047  0.00  0.00    -0.510 OA
ENDROOT
BRANCH   6   8
ATOM      8  C   LIG    1        8.089   1.472   1.180  0.00  0.00    -0.080 A 
ATOM      9  C   LIG    1        7.526   1.822   2.393  0.00  0.00    +0.030 A 
ATOM     10  C   LIG    1        7.833   1.103   3.533  0.00  0.00    +0.020 A 
ATOM     11  C   LIG    1        8.706   0.028   3.463  0.00  0.00    +0.050 A 
ATOM     12  O   LIG    1        9.005  -0.666   4.595  0.00  0.00    -0.310 OA
ATOM     13  C   LIG    1        9.591  -1.960   4.421  0.00  0.00    +0.220 C 
ATOM     14  C   LIG    1       10.706  -1.846   3.373  0.00  0.00    +0.220 C 
ATOM     15  O   LIG    1       10.126  -1.380   2.150  0.00  0.00    -0.310 OA
ATOM     16  C   LIG    1        9.270  -0.326   2.242  0.00  0.00    +0.050 A 
ATOM     17  C   LIG    1        8.954   0.397   1.102  0.00  0.00    +0.030 A 
ENDBRANCH   6   8
BRANCH   1  18
ATOM     18  C   LIG    1        3.881   2.304  -0.023  0.00  0.00    +0.100 C 
BRANCH  18  19
ATOM     19  S   LIG    1        2.719   0.916  -0.019  0.00  0.00    +0.020 S 
BRANCH  19  23
ATOM     20  C   LIG    1       -2.507   0.991   0.019  0.00  0.00    +0.120 C 
ATOM     21  C   LIG    1       -1.200   1.742   0.017  0.00  0.00    -0.010 A 
ATOM     22  C   LIG    1       -0.013   1.076   0.008  0.00  0.00    -0.020 A 
ATOM     23  C   LIG    1        1.192   1.795   0.000  0.00  0.00    +0.140 A 
ATOM     24  N   LIG    1        1.208   3.113   0.007  0.00  0.00    -0.490 NA
ATOM     25  C   LIG    1        0.072   3.820   0.021  0.00  0.00    +0.150 A 
ATOM     26  C   LIG    1        0.096   5.225   0.029  0.00  0.00    -0.070 A 
ATOM     27  C   LIG    1       -1.075   5.921   0.046  0.00  0.00    +0.030 A 
ATOM     28  C   LIG    1       -2.301   5.261   0.054  0.00  0.00    +0.010 A 
ATOM     29  C   LIG    1       -2.363   3.900   0.047  0.00  0.00    +0.030 A 
ATOM     30  C   LIG    1        1.412   5.960   0.020  0.00  0.00    +0.100 C 
ATOM     31  C   LIG    1       -1.176   3.152   0.030  0.00  0.00    -0.100 A 
ENDBRANCH  19  23
ENDBRANCH  18  19
ENDBRANCH   1  18
TORSDOF 4
