REMARK  Name = ZINCvU0000000Glf.0
REMARK                            x       y       z     vdW  Elec       q    Type
REMARK                         _______ _______ _______ _____ _____    ______ ____
ROOT
ATOM      1  C   LIG    1       -1.137  10.204   2.239  0.00  0.00    +0.060 C 
ATOM      2  C   LIG    1       -2.121   9.466   3.149  0.00  0.00    +0.300 C 
ATOM      3  C   LIG    1       -1.938   9.922   4.579  0.00  0.00    +0.050 A 
ATOM      4  C   LIG    1       -1.810   9.072   5.621  0.00  0.00    -0.150 A 
ATOM      5  C   LIG    1       -1.661   9.884   6.813  0.00  0.00    -0.100 A 
ATOM      6  C   LIG    1       -1.496   9.563   8.163  0.00  0.00    +0.060 A 
ATOM      7  C   LIG    1       -1.384  10.613   9.041  0.00  0.00    -0.030 A 
ATOM      8  C   LIG    1       -1.430  11.931   8.621  0.00  0.00    +0.020 A 
ATOM      9  C   LIG    1       -1.593  12.278   7.291  0.00  0.00    +0.000 A 
ATOM     10  C   LIG    1       -1.710  11.233   6.377  0.00  0.00    +0.100 A 
ATOM     11  C   LIG    1       -1.819   7.569   5.511  0.00  0.00    +0.110 C 
ATOM     12  C   LIG    1       -2.435   7.171   4.159  0.00  0.00    +0.280 C 
ATOM     13  N   LIG    1       -1.877  11.216   5.022  0.00  0.00    -0.580 N 
ATOM     14  H   LIG    1       -1.943  12.003   4.458  0.00  0.00    +0.420 HD
ATOM     15  N   LIG    1       -1.852   8.018   3.108  0.00  0.00    -0.590 N 
ATOM     16  C   LIG    1       -1.095   7.484   2.129  0.00  0.00    +0.600 C 
ATOM     17  O   LIG    1       -0.545   8.208   1.321  0.00  0.00    -0.530 OA
ENDROOT
BRANCH  16  18
ATOM     18  C   LIG    1       -0.935   6.024   2.037  0.00  0.00    -0.330 A 
ATOM     19  C   LIG    1       -1.450   5.328   0.964  0.00  0.00    +0.400 A 
ATOM     20  N   LIG    1       -1.323   3.999   0.847  0.00  0.00    -0.600 N 
ATOM     21  H   LIG    1       -1.706   3.563   0.069  0.00  0.00    +0.420 HD
ATOM     22  C   LIG    1       -0.673   3.226   1.784  0.00  0.00    +0.230 A 
ATOM     23  C   LIG    1       -0.570   1.848   1.615  0.00  0.00    -0.240 A 
ATOM     24  C   LIG    1        0.078   1.085   2.562  0.00  0.00    +0.140 A 
ATOM     25  C   LIG    1        0.642   1.676   3.683  0.00  0.00    +0.000 A 
ATOM     26  C   LIG    1        0.552   3.038   3.871  0.00  0.00    +0.160 A 
ATOM     27  C   LIG    1       -0.106   3.822   2.924  0.00  0.00    -0.190 A 
ATOM     28  C   LIG    1       -0.223   5.282   3.090  0.00  0.00    +0.440 A 
ATOM     29  O   LIG    1        0.249   5.851   4.059  0.00  0.00    -0.460 OA
BRANCH  23  30
ATOM     30  C   LIG    1       -1.171   1.190   0.400  0.00  0.00    +0.510 C 
ATOM     31  F   LIG    1       -2.549   1.431   0.373  0.00  0.00    -0.180 F 
ATOM     32  F   LIG    1       -0.583   1.717  -0.755  0.00  0.00    -0.170 F 
ATOM     33  F   LIG    1       -0.940  -0.189   0.454  0.00  0.00    -0.170 F 
ENDBRANCH  23  30
ENDBRANCH  16  18
TORSDOF 2
