REMARK  Name = ZINCqH0000007UcC.0
REMARK                            x       y       z     vdW  Elec       q    Type
REMARK                         _______ _______ _______ _____ _____    ______ ____
ROOT
ATOM      1  N   LIG    1       -0.018   1.467   0.010  0.00  0.00    -1.030 NA
ATOM      2  C   LIG    1        0.002  -0.004   0.002  0.00  0.00    +0.300 C 
ATOM      3  C   LIG    1        1.374   0.068   0.675  0.00  0.00    -0.080 C 
ATOM      4  C   LIG    1        2.380  -0.950   0.149  0.00  0.00    +0.040 C 
ATOM      5  C   LIG    1        2.062  -2.327   0.739  0.00  0.00    +0.000 C 
ATOM      6  C   LIG    1        2.090  -2.245   2.266  0.00  0.00    +0.000 C 
ATOM      7  C   LIG    1        1.018  -1.267   2.750  0.00  0.00    +0.000 C 
ATOM      8  C   LIG    1        1.317   0.131   2.198  0.00  0.00    +0.040 C 
ATOM      9  C   LIG    1        1.453   1.436  -0.004  0.00  0.00    +0.310 C 
ENDROOT
BRANCH   9  10
ATOM     10  C   LIG    1        2.040   1.384  -1.391  0.00  0.00    -0.090 A 
ATOM     11  C   LIG    1        1.269   0.946  -2.452  0.00  0.00    +0.010 A 
ATOM     12  C   LIG    1        1.805   0.902  -3.725  0.00  0.00    +0.000 A 
ATOM     13  C   LIG    1        3.115   1.289  -3.937  0.00  0.00    +0.000 A 
ATOM     14  C   LIG    1        3.888   1.723  -2.875  0.00  0.00    +0.000 A 
ATOM     15  C   LIG    1        3.350   1.770  -1.603  0.00  0.00    +0.020 A 
ENDBRANCH   9  10
BRANCH   1  16
ATOM     16  S   LIG    1       -1.184   2.643   0.022  0.00  0.00    +2.730 S 
ATOM     17  O   LIG    1       -2.357   2.050  -0.519  0.00  0.00    -0.940 OA
ATOM     18  O   LIG    1       -0.583   3.811  -0.519  0.00  0.00    -0.950 OA
BRANCH  16  24
ATOM     19  C   LIG    1       -2.117   2.037   2.531  0.00  0.00    +0.270 A 
ATOM     20  C   LIG    1       -2.382   2.371   3.857  0.00  0.00    -0.130 A 
ATOM     21  C   LIG    1       -2.068   3.637   4.306  0.00  0.00    +0.360 A 
ATOM     22  N   LIG    1       -1.525   4.526   3.496  0.00  0.00    -0.520 NA
ATOM     23  C   LIG    1       -1.254   4.246   2.235  0.00  0.00    +0.410 A 
ATOM     24  C   LIG    1       -1.543   3.004   1.709  0.00  0.00    -0.770 A 
BRANCH  19  26
ATOM     25  C   LIG    1       -2.998  -0.126   2.967  0.00  0.00    +0.270 C 
ATOM     26  O   LIG    1       -2.412   0.802   2.053  0.00  0.00    -0.300 OA
ENDBRANCH  19  26
ENDBRANCH  16  24
ENDBRANCH   1  16
TORSDOF 4
