REMARK  Name = ZINCrD000000BO3Z.0
REMARK                            x       y       z     vdW  Elec       q    Type
REMARK                         _______ _______ _______ _____ _____    ______ ____
ROOT
ATOM      1  O   LIG    1       -3.378  -1.991  -1.190  0.00  0.00    -0.520 OA
ATOM      2  C   LIG    1       -2.286  -2.465  -1.436  0.00  0.00    +0.560 C 
ATOM      3  N   LIG    1       -1.180  -1.929  -0.884  0.00  0.00    -0.720 N 
ATOM      4  H   LIG    1       -0.308  -2.308  -1.080  0.00  0.00    +0.400 HD
ENDROOT
BRANCH   2   5
ATOM      5  C   LIG    1       -2.172  -3.630  -2.339  0.00  0.00    -0.080 A 
ATOM      6  C   LIG    1       -0.919  -4.173  -2.628  0.00  0.00    +0.020 A 
ATOM      7  C   LIG    1       -0.821  -5.264  -3.467  0.00  0.00    +0.130 A 
ATOM      8  C   LIG    1       -1.959  -5.811  -4.032  0.00  0.00    -0.660 A 
ATOM      9  C   LIG    1       -3.203  -5.274  -3.755  0.00  0.00    +0.130 A 
ATOM     10  C   LIG    1       -3.317  -4.188  -2.912  0.00  0.00    +0.070 A 
BRANCH   8  11
ATOM     11  S   LIG    1       -1.823  -7.199  -5.109  0.00  0.00    +2.710 S 
ATOM     12  O   LIG    1       -3.083  -7.856  -5.078  0.00  0.00    -0.950 OA
ATOM     13  O   LIG    1       -0.601  -7.845  -4.779  0.00  0.00    -0.950 OA
BRANCH  11  14
ATOM     14  N   LIG    1       -1.640  -6.611  -6.646  0.00  0.00    -1.010 NA
ATOM     15  C   LIG    1       -2.731  -6.317  -7.587  0.00  0.00    +0.270 C 
ATOM     16  C   LIG    1       -2.085  -5.816  -8.896  0.00  0.00    +0.030 C 
ATOM     17  C   LIG    1       -0.649  -6.399  -8.818  0.00  0.00    +0.040 C 
ATOM     18  C   LIG    1       -0.355  -6.300  -7.300  0.00  0.00    +0.270 C 
ENDBRANCH  11  14
ENDBRANCH   8  11
ENDBRANCH   2   5
BRANCH   3  19
ATOM     19  C   LIG    1       -1.293  -0.775   0.011  0.00  0.00    +0.320 C 
BRANCH  19  20
ATOM     20  C   LIG    1        0.002  -0.004   0.002  0.00  0.00    -0.090 A 
ATOM     21  C   LIG    1       -0.017   1.378   0.010  0.00  0.00    +0.020 A 
ATOM     22  C   LIG    1        1.171   2.086   0.002  0.00  0.00    +0.020 A 
ATOM     23  C   LIG    1        2.377   1.411  -0.015  0.00  0.00    +0.000 A 
ATOM     24  C   LIG    1        2.396   0.029  -0.022  0.00  0.00    +0.000 A 
ATOM     25  C   LIG    1        1.208  -0.679  -0.013  0.00  0.00    +0.010 A 
ENDBRANCH  19  20
BRANCH  19  26
ATOM     26  C   LIG    1       -1.588  -1.259   1.432  0.00  0.00    -0.060 C 
ATOM     27  C   LIG    1       -1.507  -2.764   1.697  0.00  0.00    +0.000 C 
ATOM     28  C   LIG    1       -2.869  -2.067   1.651  0.00  0.00    +0.030 C 
ENDBRANCH  19  26
ENDBRANCH   3  19
TORSDOF 6
