REMARK  Name = ZINCpk000000mC0T.0
REMARK                            x       y       z     vdW  Elec       q    Type
REMARK                         _______ _______ _______ _____ _____    ______ ____
ROOT
ATOM      1  C   LIG    1       -6.498   4.053  -0.131  0.00  0.00    -0.110 A 
ATOM      2  C   LIG    1       -6.636   2.869   0.535  0.00  0.00    +0.310 A 
ATOM      3  N   LIG    1       -6.117   1.911  -0.260  0.00  0.00    -0.350 N 
ATOM      4  N   LIG    1       -5.663   2.550  -1.422  0.00  0.00    -0.050 NA
ATOM      5  N   LIG    1       -5.908   3.810  -1.314  0.00  0.00    -0.200 NA
ENDROOT
BRANCH   1   8
ATOM      6  N   LIG    1       -6.735   6.473  -0.396  0.00  0.00    -0.710 N 
ATOM      7  H   LIG    1       -6.312   6.394  -1.265  0.00  0.00    +0.410 HD
ATOM      8  C   LIG    1       -6.929   5.375   0.361  0.00  0.00    +0.610 C 
ATOM      9  O   LIG    1       -7.460   5.474   1.451  0.00  0.00    -0.530 OA
BRANCH   6  10
ATOM     10  C   LIG    1       -7.169   7.785   0.091  0.00  0.00    +0.370 C 
ATOM     11  C   LIG    1       -8.649   7.988  -0.242  0.00  0.00    +0.040 C 
BRANCH  10  13
ATOM     12  C   LIG    1       -5.734   9.677  -1.075  0.00  0.00    +0.060 C 
ATOM     13  C   LIG    1       -6.371   8.837  -0.558  0.00  0.00    -0.210 C 
ENDBRANCH  10  13
ENDBRANCH   6  10
ENDBRANCH   1   8
BRANCH   3  14
ATOM     14  C   LIG    1       -6.042   0.478   0.035  0.00  0.00    +0.340 C 
BRANCH  14  15
ATOM     15  C   LIG    1       -6.719  -0.309  -1.089  0.00  0.00    +0.250 C 
ATOM     16  C   LIG    1       -8.232  -0.008  -1.104  0.00  0.00    +0.040 C 
ATOM     17  C   LIG    1       -8.858  -1.388  -1.439  0.00  0.00    +0.040 C 
ATOM     18  C   LIG    1       -7.901  -2.352  -0.696  0.00  0.00    +0.270 C 
ATOM     19  N   LIG    1       -6.563  -1.752  -0.853  0.00  0.00    -0.600 N 
ATOM     20  C   LIG    1       -5.392  -2.416  -0.790  0.00  0.00    +0.670 C 
ATOM     21  O   LIG    1       -4.343  -1.805  -0.845  0.00  0.00    -0.560 OA
BRANCH  20  22
ATOM     22  O   LIG    1       -5.384  -3.757  -0.667  0.00  0.00    -0.360 OA
BRANCH  22  23
ATOM     23  C   LIG    1       -4.087  -4.405  -0.605  0.00  0.00    +0.140 C 
ATOM     24  C   LIG    1       -3.305  -4.106  -1.886  0.00  0.00    +0.040 C 
ATOM     25  C   LIG    1       -4.278  -5.917  -0.466  0.00  0.00    +0.080 C 
ATOM     26  C   LIG    1       -3.309  -3.877   0.602  0.00  0.00    +0.040 C 
ENDBRANCH  22  23
ENDBRANCH  20  22
ENDBRANCH  14  15
ENDBRANCH   3  14
TORSDOF 7
