REMARK  Name = ZINCpe00000gMyKd.0
REMARK                            x       y       z     vdW  Elec       q    Type
REMARK                         _______ _______ _______ _____ _____    ______ ____
ROOT
ATOM      1  C   LIG    1        0.002  -0.004   0.002  0.00  0.00    +0.410 C 
ENDROOT
BRANCH   1   2
ATOM      2  C   LIG    1        1.429  -0.487  -0.014  0.00  0.00    +0.260 A 
ATOM      3  N   LIG    1        2.175  -0.645  -1.078  0.00  0.00    -0.510 NA
ATOM      4  C   LIG    1        3.382  -1.083  -0.722  0.00  0.00    +0.230 A 
ATOM      5  N   LIG    1        3.419  -1.219   0.577  0.00  0.00    -0.270 NA
ATOM      6  N   LIG    1        2.157  -0.836   1.061  0.00  0.00    -0.470 N 
ATOM      7  H   LIG    1        1.868  -0.826   1.987  0.00  0.00    +0.440 HD
BRANCH   4   8
ATOM      8  C   LIG    1        4.519  -1.381  -1.666  0.00  0.00    +0.220 C 
ATOM      9  C   LIG    1        4.675  -2.896  -1.817  0.00  0.00    +0.250 C 
ATOM     10  O   LIG    1        5.801  -3.174  -2.654  0.00  0.00    -0.380 OA
ATOM     11  C   LIG    1        7.031  -2.639  -2.159  0.00  0.00    +0.220 C 
ATOM     12  C   LIG    1        6.899  -1.121  -2.011  0.00  0.00    +0.160 C 
ATOM     13  N   LIG    1        5.765  -0.816  -1.127  0.00  0.00    -0.530 NA
ATOM     14  C   LIG    1        5.638   0.631  -0.914  0.00  0.00    +0.200 C 
ENDBRANCH   4   8
ENDBRANCH   1   2
BRANCH   1  16
ATOM     15  C   LIG    1       -1.194   2.119   0.019  0.00  0.00    +0.570 C 
ATOM     16  N   LIG    1       -0.018   1.461   0.010  0.00  0.00    -0.730 N 
ATOM     17  H   LIG    1        0.816   1.957   0.005  0.00  0.00    +0.400 HD
ATOM     18  O   LIG    1       -2.239   1.496   0.021  0.00  0.00    -0.500 OA
BRANCH  15  25
ATOM     19  C   LIG    1       -2.435   4.282   0.031  0.00  0.00    +0.180 A 
ATOM     20  C   LIG    1       -2.443   5.668   0.044  0.00  0.00    -0.040 A 
ATOM     21  C   LIG    1       -1.253   6.368   0.043  0.00  0.00    +0.070 A 
ATOM     22  C   LIG    1       -0.042   5.692   0.033  0.00  0.00    +0.050 A 
ATOM     23  C   LIG    1       -0.016   4.312   0.026  0.00  0.00    +0.060 A 
ATOM     24  F   LIG    1        1.117   6.387   0.031  0.00  0.00    -0.140 F 
ATOM     25  C   LIG    1       -1.214   3.594   0.027  0.00  0.00    -0.150 A 
BRANCH  19  27
ATOM     26  C   LIG    1       -4.809   4.362   0.031  0.00  0.00    +0.250 C 
ATOM     27  O   LIG    1       -3.604   3.594   0.027  0.00  0.00    -0.280 OA
ENDBRANCH  19  27
ENDBRANCH  15  25
ENDBRANCH   1  16
TORSDOF 5
