REMARK  Name = ZINCpe00000gMyKd.2
REMARK                            x       y       z     vdW  Elec       q    Type
REMARK                         _______ _______ _______ _____ _____    ______ ____
ROOT
ATOM      1  C   LIG    1       -2.102   3.677   5.588  0.00  0.00    +0.410 C 
ENDROOT
BRANCH   1   2
ATOM      2  C   LIG    1       -3.086   3.976   6.689  0.00  0.00    +0.160 A 
ATOM      3  N   LIG    1       -3.974   4.933   6.696  0.00  0.00    -0.270 NA
ATOM      4  N   LIG    1       -4.644   4.894   7.792  0.00  0.00    -0.250 NA
ATOM      5  C   LIG    1       -4.215   3.911   8.536  0.00  0.00    +0.190 A 
ATOM      6  N   LIG    1       -3.217   3.297   7.855  0.00  0.00    -0.570 N 
ATOM      7  H   LIG    1       -2.701   2.528   8.144  0.00  0.00    +0.430 HD
BRANCH   5   8
ATOM      8  C   LIG    1       -4.736   3.526   9.896  0.00  0.00    +0.210 C 
ATOM      9  C   LIG    1       -5.785   2.422   9.748  0.00  0.00    +0.240 C 
ATOM     10  O   LIG    1       -6.331   2.114  11.034  0.00  0.00    -0.380 OA
ATOM     11  C   LIG    1       -6.939   3.233  11.685  0.00  0.00    +0.240 C 
ATOM     12  C   LIG    1       -5.901   4.345  11.853  0.00  0.00    +0.170 C 
ATOM     13  N   LIG    1       -5.352   4.699  10.536  0.00  0.00    -0.520 NA
ATOM     14  C   LIG    1       -4.390   5.804  10.645  0.00  0.00    +0.200 C 
ENDBRANCH   5   8
ENDBRANCH   1   2
BRANCH   1  16
ATOM     15  C   LIG    1       -2.047   2.432   3.494  0.00  0.00    +0.570 C 
ATOM     16  N   LIG    1       -2.742   2.829   4.579  0.00  0.00    -0.730 N 
ATOM     17  H   LIG    1       -3.665   2.553   4.692  0.00  0.00    +0.400 HD
ATOM     18  O   LIG    1       -0.890   2.779   3.352  0.00  0.00    -0.510 OA
BRANCH  15  25
ATOM     19  C   LIG    1       -1.973   1.164   1.348  0.00  0.00    +0.180 A 
ATOM     20  C   LIG    1       -2.588   0.365   0.396  0.00  0.00    -0.040 A 
ATOM     21  C   LIG    1       -3.901  -0.029   0.566  0.00  0.00    +0.070 A 
ATOM     22  C   LIG    1       -4.616   0.378   1.682  0.00  0.00    +0.050 A 
ATOM     23  C   LIG    1       -4.020   1.178   2.637  0.00  0.00    +0.060 A 
ATOM     24  F   LIG    1       -5.901  -0.009   1.836  0.00  0.00    -0.130 F 
ATOM     25  C   LIG    1       -2.691   1.578   2.478  0.00  0.00    -0.150 A 
BRANCH  19  27
ATOM     26  C   LIG    1       -0.013   1.086   0.008  0.00  0.00    +0.250 C 
ATOM     27  O   LIG    1       -0.682   1.547   1.184  0.00  0.00    -0.280 OA
ENDBRANCH  19  27
ENDBRANCH  15  25
ENDBRANCH   1  16
TORSDOF 5
