REMARK  Name = ZINCpe00000gMyKd.1
REMARK                            x       y       z     vdW  Elec       q    Type
REMARK                         _______ _______ _______ _____ _____    ______ ____
ROOT
ATOM      1  C   LIG    1       -4.928   0.002   0.048  0.00  0.00    +0.420 C 
ENDROOT
BRANCH   1   2
ATOM      2  C   LIG    1       -6.055  -0.999   0.054  0.00  0.00    +0.210 A 
ATOM      3  N   LIG    1       -6.636  -1.494  -1.007  0.00  0.00    -0.280 NA
ATOM      4  N   LIG    1       -7.623  -2.383  -0.551  0.00  0.00    -0.470 N 
ATOM      5  H   LIG    1       -8.226  -2.912  -1.097  0.00  0.00    +0.440 HD
ATOM      6  C   LIG    1       -7.569  -2.353   0.791  0.00  0.00    +0.290 A 
ATOM      7  N   LIG    1       -6.624  -1.518   1.141  0.00  0.00    -0.490 NA
BRANCH   6   8
ATOM      8  C   LIG    1       -8.444  -3.142   1.730  0.00  0.00    +0.210 C 
ATOM      9  C   LIG    1       -9.752  -2.384   1.969  0.00  0.00    +0.240 C 
ATOM     10  O   LIG    1      -10.546  -3.100   2.919  0.00  0.00    -0.380 OA
ATOM     11  C   LIG    1       -9.900  -3.296   4.179  0.00  0.00    +0.240 C 
ATOM     12  C   LIG    1       -8.593  -4.063   3.963  0.00  0.00    +0.170 C 
ATOM     13  N   LIG    1       -7.748  -3.325   3.013  0.00  0.00    -0.520 NA
ATOM     14  C   LIG    1       -6.458  -4.001   2.820  0.00  0.00    +0.200 C 
ENDBRANCH   6   8
ENDBRANCH   1   2
BRANCH   1  16
ATOM     15  C   LIG    1       -2.492  -0.011   0.025  0.00  0.00    +0.570 C 
ATOM     16  N   LIG    1       -3.646  -0.706   0.033  0.00  0.00    -0.720 N 
ATOM     17  H   LIG    1       -3.628  -1.676   0.028  0.00  0.00    +0.400 HD
ATOM     18  O   LIG    1       -2.515   1.205   0.032  0.00  0.00    -0.510 OA
BRANCH  15  25
ATOM     19  C   LIG    1        0.002  -0.004   0.002  0.00  0.00    +0.180 A 
ATOM     20  C   LIG    1        1.210  -0.683  -0.019  0.00  0.00    -0.040 A 
ATOM     21  C   LIG    1        1.229  -2.064  -0.021  0.00  0.00    +0.070 A 
ATOM     22  C   LIG    1        0.042  -2.781  -0.013  0.00  0.00    +0.050 A 
ATOM     23  C   LIG    1       -1.170  -2.120   0.002  0.00  0.00    +0.060 A 
ATOM     24  F   LIG    1        0.071  -4.132  -0.021  0.00  0.00    -0.140 F 
ATOM     25  C   LIG    1       -1.200  -0.724   0.010  0.00  0.00    -0.150 A 
BRANCH  19  27
ATOM     26  C   LIG    1        1.248   2.019   0.001  0.00  0.00    +0.250 C 
ATOM     27  O   LIG    1       -0.016   1.353   0.009  0.00  0.00    -0.280 OA
ENDBRANCH  19  27
ENDBRANCH  15  25
ENDBRANCH   1  16
TORSDOF 5
