REMARK  Name = ZINCkj000005g1I2.1
REMARK                            x       y       z     vdW  Elec       q    Type
REMARK                         _______ _______ _______ _____ _____    ______ ____
ROOT
ATOM      1  C   LIG    1        0.001  -4.793   3.686  0.00  0.00    +0.220 C 
ENDROOT
BRANCH   1   2
ATOM      2  O   LIG    1        1.190  -4.359   4.350  0.00  0.00    -0.540 OA
ATOM      3  H   LIG    1        2.007  -4.621   3.905  0.00  0.00    +0.390 HD
ENDBRANCH   1   2
BRANCH   1   4
ATOM      4  C   LIG    1       -0.005  -6.320   3.596  0.00  0.00    +0.250 C 
BRANCH   4   8
ATOM      5  N   LIG    1       -1.042  -8.595   6.983  0.00  0.00    -0.540 NA
ATOM      6  C   LIG    1       -1.210  -7.137   7.056  0.00  0.00    +0.210 C 
ATOM      7  C   LIG    1       -1.238  -6.559   5.639  0.00  0.00    +0.270 C 
ATOM      8  N   LIG    1        0.015  -6.891   4.949  0.00  0.00    -0.380 N 
ATOM      9  C   LIG    1        0.157  -8.350   4.863  0.00  0.00    +0.280 C 
ATOM     10  H   LIG    1        0.794  -6.507   5.464  0.00  0.00    +0.430 HD
ATOM     11  C   LIG    1        0.197  -8.943   6.273  0.00  0.00    +0.210 C 
BRANCH   5  13
ATOM     12  C   LIG    1       -1.141 -10.718   8.199  0.00  0.00    +0.040 C 
ATOM     13  C   LIG    1       -1.067  -9.195   8.324  0.00  0.00    +0.190 C 
ENDBRANCH   5  13
ENDBRANCH   4   8
ENDBRANCH   1   4
BRANCH   1  14
ATOM     14  C   LIG    1       -0.042  -4.198   2.277  0.00  0.00    +0.190 C 
BRANCH  14  15
ATOM     15  O   LIG    1       -0.155  -2.776   2.363  0.00  0.00    -0.300 OA
BRANCH  15  16
ATOM     16  C   LIG    1       -0.206  -2.089   1.192  0.00  0.00    +0.120 A 
ATOM     17  C   LIG    1       -0.149  -2.770  -0.016  0.00  0.00    -0.100 A 
ATOM     18  C   LIG    1       -0.202  -2.069  -1.205  0.00  0.00    +0.050 A 
ATOM     19  C   LIG    1       -0.316  -0.691  -1.193  0.00  0.00    -0.020 A 
ATOM     20  C   LIG    1       -0.367  -0.010   0.009  0.00  0.00    -0.040 A 
ATOM     21  C   LIG    1       -0.485   1.492   0.019  0.00  0.00    +0.100 C 
ATOM     22  C   LIG    1       -0.315  -0.706   1.202  0.00  0.00    -0.020 A 
ENDBRANCH  15  16
ENDBRANCH  14  15
ENDBRANCH   1  14
TORSDOF 7
