REMARK  Name = ZINCkj000005g1I2.0
REMARK                            x       y       z     vdW  Elec       q    Type
REMARK                         _______ _______ _______ _____ _____    ______ ____
ROOT
ATOM      1  C   LIG    1       -1.432  -0.536   0.035  0.00  0.00    +0.230 C 
ENDROOT
BRANCH   1   2
ATOM      2  O   LIG    1       -2.047  -0.191   1.278  0.00  0.00    -0.540 OA
ATOM      3  H   LIG    1       -1.595  -0.552   2.053  0.00  0.00    +0.380 HD
ENDBRANCH   1   2
BRANCH   1   4
ATOM      4  C   LIG    1       -1.416  -2.058  -0.121  0.00  0.00    +0.170 C 
BRANCH   4   8
ATOM      5  N   LIG    1       -4.926  -4.231  -1.028  0.00  0.00    -0.390 N 
ATOM      6  C   LIG    1       -4.910  -2.792  -1.320  0.00  0.00    +0.280 C 
ATOM      7  C   LIG    1       -3.463  -2.301  -1.392  0.00  0.00    +0.200 C 
ATOM      8  N   LIG    1       -2.794  -2.566  -0.111  0.00  0.00    -0.530 NA
ATOM      9  C   LIG    1       -2.824  -4.001   0.207  0.00  0.00    +0.210 C 
ATOM     10  C   LIG    1       -4.277  -4.477   0.266  0.00  0.00    +0.270 C 
ATOM     11  H   LIG    1       -4.429  -4.726  -1.753  0.00  0.00    +0.420 HD
BRANCH   5  13
ATOM     12  C   LIG    1       -6.338  -6.174  -0.550  0.00  0.00    +0.080 C 
ATOM     13  C   LIG    1       -6.316  -4.705  -0.976  0.00  0.00    +0.250 C 
ENDBRANCH   5  13
ENDBRANCH   4   8
ENDBRANCH   1   4
BRANCH   1  14
ATOM     14  C   LIG    1        0.002  -0.005   0.010  0.00  0.00    +0.170 C 
BRANCH  14  15
ATOM     15  O   LIG    1       -0.018   1.424   0.038  0.00  0.00    -0.300 OA
BRANCH  15  16
ATOM     16  C   LIG    1        1.184   2.058   0.021  0.00  0.00    +0.130 A 
ATOM     17  C   LIG    1        2.358   1.321  -0.016  0.00  0.00    -0.100 A 
ATOM     18  C   LIG    1        3.578   1.969  -0.039  0.00  0.00    +0.050 A 
ATOM     19  C   LIG    1        3.630   3.350  -0.013  0.00  0.00    -0.020 A 
ATOM     20  C   LIG    1        2.461   4.087   0.029  0.00  0.00    -0.040 A 
ATOM     21  C   LIG    1        2.520   5.593   0.057  0.00  0.00    +0.100 C 
ATOM     22  C   LIG    1        1.238   3.445   0.046  0.00  0.00    -0.020 A 
ENDBRANCH  15  16
ENDBRANCH  14  15
ENDBRANCH   1  14
TORSDOF 7
