REMARK  Name = ZINCqH00000059MZ.0
REMARK                            x       y       z     vdW  Elec       q    Type
REMARK                         _______ _______ _______ _____ _____    ______ ____
ROOT
ATOM      1  C   LIG    1       -0.016   1.344   0.009  0.00  0.00    +0.480 C 
ATOM      2  N   LIG    1        0.002  -0.004   0.002  0.00  0.00    -0.620 N 
ATOM      3  H   LIG    1        0.849  -0.478  -0.009  0.00  0.00    +0.430 HD
ATOM      4  O   LIG    1       -1.075   1.936   0.018  0.00  0.00    -0.480 OA
ENDROOT
BRANCH   2   5
ATOM      5  C   LIG    1       -1.192  -0.715   0.010  0.00  0.00    +0.280 A 
ATOM      6  N   LIG    1       -1.293  -2.007   0.004  0.00  0.00    -0.490 NA
ATOM      7  C   LIG    1       -2.524  -2.516   0.013  0.00  0.00    +0.160 A 
ATOM      8  C   LIG    1       -3.519  -1.609   0.029  0.00  0.00    -0.110 A 
ATOM      9  S   LIG    1       -2.800   0.000   0.036  0.00  0.00    +0.220 S 
BRANCH   7  10
ATOM     10  C   LIG    1       -2.780  -3.972   0.009  0.00  0.00    -0.130 A 
ATOM     11  C   LIG    1       -1.831  -4.929  -0.012  0.00  0.00    +0.050 A 
ATOM     12  C   LIG    1       -2.315  -6.222  -0.007  0.00  0.00    +0.000 A 
ATOM     13  C   LIG    1       -3.646  -6.327   0.005  0.00  0.00    -0.040 A 
ATOM     14  S   LIG    1       -4.370  -4.724   0.021  0.00  0.00    +0.130 S 
ENDBRANCH   7  10
ENDBRANCH   2   5
BRANCH   1  15
ATOM     15  C   LIG    1        1.278   2.115   0.001  0.00  0.00    +0.370 C 
BRANCH  15  17
ATOM     16  C   LIG    1        0.751   4.241   1.282  0.00  0.00    +0.320 C 
ATOM     17  N   LIG    1        0.991   3.551   0.012  0.00  0.00    -0.980 NA
BRANCH  17  18
ATOM     18  S   LIG    1        0.938   4.395  -1.412  0.00  0.00    +2.690 S 
ATOM     19  O   LIG    1        1.717   3.659  -2.345  0.00  0.00    -0.950 OA
ATOM     20  O   LIG    1        1.198   5.753  -1.083  0.00  0.00    -0.940 OA
BRANCH  18  21
ATOM     21  C   LIG    1       -0.724   4.333  -1.993  0.00  0.00    -0.670 A 
ATOM     22  C   LIG    1       -1.126   3.309  -2.830  0.00  0.00    +0.140 A 
ATOM     23  C   LIG    1       -2.431   3.257  -3.282  0.00  0.00    +0.010 A 
ATOM     24  C   LIG    1       -3.333   4.237  -2.906  0.00  0.00    +0.020 A 
ATOM     25  C   LIG    1       -2.929   5.264  -2.073  0.00  0.00    +0.010 A 
ATOM     26 CL   LIG    1       -4.970   4.176  -3.480  0.00  0.00    -0.050 Cl
ATOM     27  C   LIG    1       -1.625   5.312  -1.617  0.00  0.00    +0.150 A 
ENDBRANCH  18  21
ENDBRANCH  17  18
ENDBRANCH  15  17
ENDBRANCH   1  15
TORSDOF 6
