REMARK  Name = ZINCkj000005iKSE.0
REMARK                            x       y       z     vdW  Elec       q    Type
REMARK                         _______ _______ _______ _____ _____    ______ ____
ROOT
ATOM      1  N   LIG    1        3.045  -2.748  -1.417  0.00  0.00    -0.650 N 
ATOM      2  C   LIG    1        4.177  -2.064  -1.810  0.00  0.00    +0.680 C 
ATOM      3  N   LIG    1        4.837  -1.309  -0.935  0.00  0.00    -0.570 NA
ATOM      4  C   LIG    1        5.922  -0.654  -1.310  0.00  0.00    +0.520 C 
ATOM      5  N   LIG    1        6.356  -0.747  -2.555  0.00  0.00    -0.580 NA
ATOM      6  C   LIG    1        5.702  -1.501  -3.436  0.00  0.00    +0.680 C 
ATOM      7  N   LIG    1        4.614  -2.164  -3.061  0.00  0.00    -0.620 N 
ATOM      8  H   LIG    1        4.138  -2.718  -3.699  0.00  0.00    +0.440 HD
ATOM      9  H   LIG    1        2.565  -3.298  -2.055  0.00  0.00    +0.430 HD
ENDROOT
BRANCH   6  10
ATOM     10  N   LIG    1        6.157  -1.597  -4.735  0.00  0.00    -0.770 NA
ATOM     11  H   LIG    1        5.679  -2.147  -5.376  0.00  0.00    +0.430 HD
ATOM     12  H   LIG    1        6.954  -1.116  -5.007  0.00  0.00    +0.450 HD
ENDBRANCH   6  10
BRANCH   4  13
ATOM     13  C   LIG    1        6.665   0.201  -0.317  0.00  0.00    +0.010 C 
ATOM     14  C   LIG    1        7.136   1.580  -0.783  0.00  0.00    +0.100 C 
ATOM     15  C   LIG    1        8.152   0.454  -0.576  0.00  0.00    +0.100 C 
ENDBRANCH   4  13
BRANCH   1  16
ATOM     16  C   LIG    1        2.568  -2.642  -0.036  0.00  0.00    +0.410 C 
BRANCH  16  21
ATOM     17  C   LIG    1        0.002  -0.004   0.002  0.00  0.00    +0.330 A 
ATOM     18  C   LIG    1       -1.195  -0.708   0.015  0.00  0.00    -0.020 A 
ATOM     19  C   LIG    1       -1.162  -2.092   0.003  0.00  0.00    +0.110 A 
ATOM     20  C   LIG    1        0.073  -2.725  -0.012  0.00  0.00    -0.050 A 
ATOM     21  C   LIG    1        1.223  -1.961  -0.020  0.00  0.00    +0.120 A 
ATOM     22  N   LIG    1        1.160  -0.643  -0.013  0.00  0.00    -0.520 NA
BRANCH  17  24
ATOM     23  C   LIG    1        1.248   2.019   0.001  0.00  0.00    +0.250 C 
ATOM     24  O   LIG    1       -0.016   1.353   0.009  0.00  0.00    -0.300 OA
ENDBRANCH  17  24
ENDBRANCH  16  21
ENDBRANCH   1  16
TORSDOF 5
