REMARK  Name = ZINCkj000005b6lO.0
REMARK                            x       y       z     vdW  Elec       q    Type
REMARK                         _______ _______ _______ _____ _____    ______ ____
ROOT
ATOM      1  N   LIG    1       -3.509   0.716  -3.346  0.00  0.00    -0.700 N 
ATOM      2  H   LIG    1       -3.886  -0.073  -2.925  0.00  0.00    +0.410 HD
ATOM      3  C   LIG    1       -2.437   1.324  -2.801  0.00  0.00    +0.500 C 
ATOM      4  O   LIG    1       -1.967   2.310  -3.328  0.00  0.00    -0.520 OA
ENDROOT
BRANCH   3   5
ATOM      5  C   LIG    1       -1.824   0.780  -1.537  0.00  0.00    +0.150 C 
ATOM      6  C   LIG    1       -2.902   0.743  -0.434  0.00  0.00    +0.080 C 
ATOM      7  C   LIG    1       -2.461  -0.204   0.653  0.00  0.00    +0.020 C 
ATOM      8  C   LIG    1       -1.703   0.516   1.787  0.00  0.00    +0.030 C 
ATOM      9  C   LIG    1       -0.730   1.578   1.240  0.00  0.00    +0.040 C 
ATOM     10  C   LIG    1       -0.013   1.086   0.008  0.00  0.00    +0.280 C 
ATOM     11  N   LIG    1       -0.737   1.580  -1.179  0.00  0.00    -0.480 N 
ATOM     12  H   LIG    1       -0.096   1.618  -1.957  0.00  0.00    +0.430 HD
ATOM     13  H   LIG    1       -1.071   2.513  -0.989  0.00  0.00    +0.430 HD
ENDBRANCH   3   5
BRANCH   1  14
ATOM     14  C   LIG    1       -4.106   1.245  -4.576  0.00  0.00    +0.390 C 
BRANCH  14  18
ATOM     15  C   LIG    1       -6.934  -1.273  -5.865  0.00  0.00    -0.760 A 
ATOM     16  C   LIG    1       -7.454  -0.333  -5.074  0.00  0.00    +0.160 A 
ATOM     17  C   LIG    1       -6.540   0.582  -4.578  0.00  0.00    +0.030 A 
ATOM     18  C   LIG    1       -5.281   0.389  -4.972  0.00  0.00    -0.200 A 
ATOM     19  S   LIG    1       -5.200  -1.021  -6.021  0.00  0.00    +0.250 S 
BRANCH  15  21
ATOM     20  C   LIG    1       -8.355  -1.878  -8.232  0.00  0.00    -0.230 C 
ATOM     21  S   LIG    1       -7.845  -2.570  -6.635  0.00  0.00    +2.520 S 
ATOM     22  O   LIG    1       -8.972  -2.756  -5.790  0.00  0.00    -0.920 OA
ATOM     23  O   LIG    1       -6.891  -3.606  -6.821  0.00  0.00    -0.930 OA
ENDBRANCH  15  21
ENDBRANCH  14  18
ENDBRANCH   1  14
TORSDOF 4
