REMARK  Name = ZINCrH000004vIne.0
REMARK                            x       y       z     vdW  Elec       q    Type
REMARK                         _______ _______ _______ _____ _____    ______ ____
ROOT
ATOM      1  O   LIG    1        8.665  -4.843  -1.686  0.00  0.00    -0.540 OA
ATOM      2  C   LIG    1        7.734  -4.144  -1.348  0.00  0.00    +0.520 C 
ATOM      3  C   LIG    1        8.003  -2.698  -1.047  0.00  0.00    +0.080 C 
ATOM      4  C   LIG    1        6.692  -1.908  -1.071  0.00  0.00    +0.040 C 
ATOM      5  C   LIG    1        5.660  -2.655  -0.219  0.00  0.00    +0.100 C 
ATOM      6  C   LIG    1        5.311  -3.974  -0.911  0.00  0.00    +0.270 C 
ATOM      7  N   LIG    1        6.525  -4.701  -1.263  0.00  0.00    -0.600 N 
ENDROOT
BRANCH   5   8
ATOM      8  C   LIG    1        4.417  -1.815  -0.078  0.00  0.00    +0.180 A 
ATOM      9  N   LIG    1        3.664  -1.385  -1.046  0.00  0.00    -0.370 NA
ATOM     10  O   LIG    1        2.741  -0.735  -0.604  0.00  0.00    +0.080 OA
ATOM     11  C   LIG    1        2.819  -0.686   0.729  0.00  0.00    +0.220 A 
ATOM     12  N   LIG    1        3.886  -1.367   1.074  0.00  0.00    -0.470 NA
BRANCH  11  13
ATOM     13  C   LIG    1        1.867   0.021   1.659  0.00  0.00    +0.120 C 
ATOM     14  C   LIG    1        1.817  -0.719   3.000  0.00  0.00    +0.040 C 
ATOM     15  C   LIG    1        1.165  -2.093   2.782  0.00  0.00    +0.190 C 
ATOM     16  C   LIG    1        1.851  -2.776   1.577  0.00  0.00    -0.010 C 
ATOM     17  C   LIG    1        1.016  -2.315   0.362  0.00  0.00    -0.020 C 
ATOM     18  C   LIG    1       -0.073  -1.409   0.981  0.00  0.00    +0.200 C 
ATOM     19  O   LIG    1       -0.194  -1.867   2.346  0.00  0.00    -0.360 OA
ATOM     20  C   LIG    1        0.466   0.042   1.038  0.00  0.00    +0.040 C 
ENDBRANCH  11  13
ENDBRANCH   5   8
BRANCH   7  21
ATOM     21  C   LIG    1        6.409  -6.136  -1.538  0.00  0.00    +0.280 C 
BRANCH  21  22
ATOM     22  C   LIG    1        6.598  -6.920  -0.237  0.00  0.00    -0.030 C 
ATOM     23  C   LIG    1        8.025  -6.720   0.276  0.00  0.00    +0.030 C 
ATOM     24  C   LIG    1        8.214  -7.505   1.576  0.00  0.00    +0.000 C 
ATOM     25  C   LIG    1        7.970  -8.992   1.314  0.00  0.00    +0.000 C 
ATOM     26  C   LIG    1        6.542  -9.192   0.800  0.00  0.00    +0.000 C 
ATOM     27  C   LIG    1        6.354  -8.408  -0.499  0.00  0.00    +0.020 C 
ENDBRANCH  21  22
ENDBRANCH   7  21
TORSDOF 4
