REMARK  Name = ZINC650000002IHp.0
REMARK                            x       y       z     vdW  Elec       q    Type
REMARK                         _______ _______ _______ _____ _____    ______ ____
ROOT
ATOM      1  C   LIG    1        1.147   3.062   0.008  0.00  0.00    -0.030 C 
ATOM      2  C   LIG    1        1.893   3.784   0.807  0.00  0.00    -0.030 C 
ENDROOT
BRANCH   1   3
ATOM      3  C   LIG    1        1.286   1.562  -0.002  0.00  0.00    +0.210 C 
BRANCH   3   4
ATOM      4  O   LIG    1       -0.011   0.963   0.007  0.00  0.00    -0.570 OA
ATOM      5  H   LIG    1        0.002  -0.004   0.002  0.00  0.00    +0.380 HD
ENDBRANCH   3   4
ENDBRANCH   1   3
BRANCH   2   6
ATOM      6  C   LIG    1        1.754   5.285   0.816  0.00  0.00    +0.210 C 
BRANCH   6   7
ATOM      7  O   LIG    1        1.722   5.752   2.166  0.00  0.00    -0.570 OA
ATOM      8  H   LIG    1        1.634   6.711   2.248  0.00  0.00    +0.380 HD
ENDBRANCH   6   7
ENDBRANCH   2   6
TORSDOF 4
