REMARK  Name = ZINCpk00000xIi8J.0
REMARK                            x       y       z     vdW  Elec       q    Type
REMARK                         _______ _______ _______ _____ _____    ______ ____
ROOT
ATOM      1  C   LIG    1        1.890   6.353   6.697  0.00  0.00    +0.570 C 
ATOM      2  N   LIG    1        0.681   6.018   6.205  0.00  0.00    -0.600 N 
ATOM      3  C   LIG    1       -0.549   6.463   6.873  0.00  0.00    +0.270 C 
ATOM      4  C   LIG    1       -1.429   5.240   7.152  0.00  0.00    +0.030 C 
ATOM      5  C   LIG    1       -1.664   4.477   5.847  0.00  0.00    +0.040 C 
ATOM      6  C   LIG    1       -0.324   3.991   5.290  0.00  0.00    +0.100 C 
ATOM      7  C   LIG    1        0.568   5.199   4.989  0.00  0.00    +0.300 C 
ATOM      8  O   LIG    1        2.899   5.903   6.190  0.00  0.00    -0.520 OA
ENDROOT
BRANCH   1  12
ATOM      9  C   LIG    1        2.108   9.006   9.956  0.00  0.00    +0.090 A 
ATOM     10  C   LIG    1        2.993   7.931   9.921  0.00  0.00    +0.050 A 
ATOM     11  C   LIG    1        2.934   7.042   8.860  0.00  0.00    +0.130 A 
ATOM     12  C   LIG    1        1.989   7.270   7.855  0.00  0.00    -0.160 A 
ATOM     13  C   LIG    1        1.136   8.372   7.961  0.00  0.00    +0.300 A 
ATOM     14  N   LIG    1        1.219   9.188   8.987  0.00  0.00    -0.460 NA
BRANCH   9  18
ATOM     15  N   LIG    1        1.306  11.002  11.135  0.00  0.00    -0.830 N 
ATOM     16  H   LIG    1        1.339  11.625  11.878  0.00  0.00    +0.410 HD
ATOM     17  H   LIG    1        0.659  11.129  10.423  0.00  0.00    +0.410 HD
ATOM     18  C   LIG    1        2.159   9.959  11.092  0.00  0.00    +0.580 C 
ATOM     19  O   LIG    1        2.968   9.799  11.983  0.00  0.00    -0.530 OA
ENDBRANCH   9  18
ENDBRANCH   1  12
BRANCH   6  20
ATOM     20  C   LIG    1       -0.559   3.212   4.021  0.00  0.00    +0.180 A 
ATOM     21  N   LIG    1       -1.119   3.659   2.937  0.00  0.00    -0.380 NA
ATOM     22  O   LIG    1       -1.160   2.786   2.095  0.00  0.00    +0.080 OA
ATOM     23  C   LIG    1       -0.614   1.666   2.577  0.00  0.00    +0.220 A 
ATOM     24  N   LIG    1       -0.233   1.925   3.805  0.00  0.00    -0.480 NA
BRANCH  23  25
ATOM     25  C   LIG    1       -0.470   0.353   1.851  0.00  0.00    +0.060 C 
ATOM     26  C   LIG    1        0.351   0.346   0.560  0.00  0.00    +0.070 C 
ATOM     27  C   LIG    1       -1.172   0.214   0.498  0.00  0.00    +0.070 C 
ENDBRANCH  23  25
ENDBRANCH   6  20
TORSDOF 4
