REMARK  Name = ZINCrH00000No4TZ.0
REMARK                            x       y       z     vdW  Elec       q    Type
REMARK                         _______ _______ _______ _____ _____    ______ ____
ROOT
ATOM      1  C   LIG    1        2.479   1.515   0.198  0.00  0.00    +0.360 C 
ATOM      2  N   LIG    1        1.075   1.917   0.090  0.00  0.00    -0.370 N 
ATOM      3  C   LIG    1        0.043   1.083  -0.127  0.00  0.00    +0.290 A 
ATOM      4  C   LIG    1       -1.103   1.829  -0.171  0.00  0.00    -0.210 A 
ATOM      5  C   LIG    1       -0.706   3.221   0.049  0.00  0.00    +0.150 A 
ATOM      6  N   LIG    1        0.601   3.229   0.196  0.00  0.00    -0.280 NA
ENDROOT
BRANCH   5   7
ATOM      7  C   LIG    1       -1.605   4.399   0.092  0.00  0.00    -0.010 A 
ATOM      8  C   LIG    1       -2.805   4.335   0.798  0.00  0.00    +0.090 A 
ATOM      9  C   LIG    1       -3.641   5.434   0.843  0.00  0.00    +0.020 A 
ATOM     10  C   LIG    1       -3.290   6.596   0.177  0.00  0.00    +0.080 A 
ATOM     11  O   LIG    1       -4.114   7.684   0.214  0.00  0.00    -0.320 OA
ATOM     12  C   LIG    1       -3.623   8.815   0.936  0.00  0.00    +0.220 C 
ATOM     13  C   LIG    1       -2.724   9.669   0.056  0.00  0.00    -0.020 C 
ATOM     14  C   LIG    1       -1.456   8.937  -0.357  0.00  0.00    +0.220 C 
ATOM     15  O   LIG    1       -1.767   7.816  -1.187  0.00  0.00    -0.320 OA
ATOM     16  C   LIG    1       -2.098   6.664  -0.534  0.00  0.00    +0.060 A 
ATOM     17  C   LIG    1       -1.253   5.571  -0.579  0.00  0.00    +0.060 A 
ENDBRANCH   5   7
BRANCH   4  18
ATOM     18  C   LIG    1       -2.472   1.328  -0.394  0.00  0.00    +0.300 C 
ATOM     19  N   LIG    1       -3.455   2.162  -0.510  0.00  0.00    -0.340 NA
BRANCH  19  20
ATOM     20  O   LIG    1       -4.770   1.681  -0.724  0.00  0.00    -0.240 OA
BRANCH  20  21
ATOM     21  C   LIG    1       -5.755   2.710  -0.833  0.00  0.00    +0.260 C 
BRANCH  21  22
ATOM     22  C   LIG    1       -7.109   2.088  -1.058  0.00  0.00    -0.090 A 
ATOM     23  C   LIG    1       -7.556   1.851  -2.344  0.00  0.00    +0.020 A 
ATOM     24  C   LIG    1       -8.796   1.275  -2.550  0.00  0.00    +0.000 A 
ATOM     25  C   LIG    1       -9.593   0.947  -1.470  0.00  0.00    +0.010 A 
ATOM     26  C   LIG    1       -9.149   1.189  -0.183  0.00  0.00    +0.000 A 
ATOM     27  C   LIG    1       -7.906   1.760   0.023  0.00  0.00    +0.020 A 
ENDBRANCH  21  22
ENDBRANCH  20  21
ENDBRANCH  19  20
ENDBRANCH   4  18
TORSDOF 5
