REMARK  Name = ZINCpk00000FAc6N.0
REMARK                            x       y       z     vdW  Elec       q    Type
REMARK                         _______ _______ _______ _____ _____    ______ ____
ROOT
ATOM      1  N   LIG    1        4.231   0.165  -1.480  0.00  0.00    -0.740 N 
ATOM      2  H   LIG    1        4.667  -0.067  -0.645  0.00  0.00    +0.400 HD
ATOM      3  C   LIG    1        4.815  -0.145  -2.655  0.00  0.00    +0.710 C 
ATOM      4  N   LIG    1        6.004  -0.778  -2.669  0.00  0.00    -0.750 N 
ATOM      5  H   LIG    1        6.441  -1.010  -1.835  0.00  0.00    +0.400 HD
ATOM      6  O   LIG    1        4.268   0.146  -3.701  0.00  0.00    -0.580 OA
ENDROOT
BRANCH   1   7
ATOM      7  C   LIG    1        2.938   0.854  -1.464  0.00  0.00    +0.280 C 
BRANCH   7   8
ATOM      8  C   LIG    1        2.501   1.085  -0.016  0.00  0.00    +0.090 C 
BRANCH   8  11
ATOM      9  C   LIG    1       -1.219   1.763   0.017  0.00  0.00    +0.330 A 
ATOM     10  C   LIG    1       -0.013   1.076   0.008  0.00  0.00    -0.050 A 
ATOM     11  C   LIG    1        1.171   1.793   0.001  0.00  0.00    -0.000 A 
ATOM     12  C   LIG    1        1.105   3.180   0.008  0.00  0.00    -0.070 A 
ATOM     13  C   LIG    1       -0.130   3.797   0.023  0.00  0.00    +0.170 A 
ATOM     14  C   LIG    1       -0.210   5.302   0.030  0.00  0.00    +0.130 C 
ATOM     15  N   LIG    1       -1.242   3.086   0.029  0.00  0.00    -0.540 NA
BRANCH   9  17
ATOM     16  C   LIG    1       -3.594   1.836   0.029  0.00  0.00    +0.260 C 
ATOM     17  O   LIG    1       -2.386   1.071   0.019  0.00  0.00    -0.310 OA
ENDBRANCH   9  17
ENDBRANCH   8  11
ENDBRANCH   7   8
ENDBRANCH   1   7
BRANCH   4  18
ATOM     18  C   LIG    1        6.639  -1.115  -3.946  0.00  0.00    +0.440 C 
BRANCH  18  19
ATOM     19  C   LIG    1        7.949  -1.813  -3.687  0.00  0.00    +0.110 A 
ATOM     20  N   LIG    1        8.126  -3.102  -3.554  0.00  0.00    -0.220 NA
ATOM     21  N   LIG    1        9.369  -3.362  -3.342  0.00  0.00    -0.280 NA
ATOM     22  C   LIG    1       10.060  -2.235  -3.327  0.00  0.00    +0.200 A 
ATOM     23  C   LIG    1       11.424  -1.936  -3.142  0.00  0.00    +0.080 A 
ATOM     24  C   LIG    1       11.834  -0.641  -3.200  0.00  0.00    +0.070 A 
ATOM     25  C   LIG    1       10.894   0.379  -3.430  0.00  0.00    +0.030 A 
ATOM     26  C   LIG    1        9.589   0.078  -3.601  0.00  0.00    +0.230 A 
ATOM     27  N   LIG    1        9.165  -1.217  -3.554  0.00  0.00    -0.380 N 
ENDBRANCH  18  19
ENDBRANCH   4  18
TORSDOF 6
