REMARK  Name = ZINCrH00000tj165.0
REMARK                            x       y       z     vdW  Elec       q    Type
REMARK                         _______ _______ _______ _____ _____    ______ ____
ROOT
ATOM      1  C   LIG    1       -2.825   8.636  -1.156  0.00  0.00    +0.150 C 
ATOM      2  N   LIG    1       -3.183   8.563   0.080  0.00  0.00    -0.240 NA
ATOM      3  N   LIG    1       -2.314   7.825   0.881  0.00  0.00    -0.470 N 
ATOM      4  C   LIG    1       -1.206   7.329   0.050  0.00  0.00    +0.260 C 
ATOM      5  C   LIG    1       -2.465   7.601   2.202  0.00  0.00    +0.550 C 
ATOM      6  O   LIG    1       -1.644   6.941   2.803  0.00  0.00    -0.520 OA
ATOM      7  C   LIG    1       -3.653   8.172   2.932  0.00  0.00    +0.110 C 
ATOM      8  C   LIG    1       -1.530   7.873  -1.355  0.00  0.00    +0.090 C 
ENDROOT
BRANCH   4   9
ATOM      9  C   LIG    1       -1.182   5.822   0.043  0.00  0.00    -0.070 A 
ATOM     10  C   LIG    1        0.013   5.171   0.029  0.00  0.00    +0.080 A 
ATOM     11  C   LIG    1        0.040   3.765   0.021  0.00  0.00    +0.080 A 
ATOM     12  N   LIG    1        1.198   3.096   0.007  0.00  0.00    -0.420 NA
ATOM     13  C   LIG    1        1.191   1.783   0.000  0.00  0.00    +0.260 A 
ATOM     14  C   LIG    1       -0.013   1.076   0.008  0.00  0.00    +0.260 A 
ATOM     15  N   LIG    1       -1.163   1.710   0.017  0.00  0.00    -0.420 NA
ATOM     16  C   LIG    1       -1.183   3.047   0.029  0.00  0.00    +0.080 A 
ATOM     17  C   LIG    1       -2.397   3.756   0.043  0.00  0.00    +0.060 A 
ATOM     18  C   LIG    1       -2.384   5.116   0.050  0.00  0.00    +0.050 A 
ENDBRANCH   4   9
BRANCH   1  22
ATOM     19  C   LIG    1       -4.944  10.698  -4.202  0.00  0.00    +0.150 A 
ATOM     20  C   LIG    1       -5.432  10.692  -2.901  0.00  0.00    -0.020 A 
ATOM     21  C   LIG    1       -4.748  10.024  -1.909  0.00  0.00    +0.100 A 
ATOM     22  C   LIG    1       -3.561   9.352  -2.213  0.00  0.00    -0.080 A 
ATOM     23  C   LIG    1       -3.071   9.366  -3.522  0.00  0.00    +0.090 A 
ATOM     24  C   LIG    1       -3.765  10.031  -4.509  0.00  0.00    -0.080 A 
BRANCH  19  25
ATOM     25  O   LIG    1       -5.623  11.358  -5.177  0.00  0.00    -0.310 OA
BRANCH  25  27
ATOM     26  C   LIG    1       -5.961  12.115  -7.446  0.00  0.00    +0.070 C 
ATOM     27  C   LIG    1       -5.065  11.324  -6.492  0.00  0.00    +0.180 C 
ENDBRANCH  25  27
ENDBRANCH  19  25
ENDBRANCH   1  22
TORSDOF 4
