REMARK  Name = ZINCpe00000JzI49.0
REMARK                            x       y       z     vdW  Elec       q    Type
REMARK                         _______ _______ _______ _____ _____    ______ ____
ROOT
ATOM      1  C   LIG    1       -1.229   2.140  -0.070  0.00  0.00    +0.410 A 
ATOM      2  N   LIG    1       -2.349   1.461  -0.158  0.00  0.00    -0.330 NA
ATOM      3  N   LIG    1       -3.575   2.125  -0.234  0.00  0.00    -0.270 N 
ATOM      4  C   LIG    1       -3.618   3.497  -0.228  0.00  0.00    +0.120 A 
ATOM      5  C   LIG    1       -2.416   4.223  -0.139  0.00  0.00    +0.200 A 
ATOM      6  N   LIG    1       -4.893   3.846  -0.315  0.00  0.00    -0.240 NA
ATOM      7  N   LIG    1       -5.627   2.790  -0.372  0.00  0.00    -0.240 NA
ATOM      8  C   LIG    1       -4.870   1.709  -0.327  0.00  0.00    +0.250 A 
ATOM      9  C   LIG    1       -1.238   3.549  -0.061  0.00  0.00    -0.020 A 
ENDROOT
BRANCH   8  10
ATOM     10  C   LIG    1       -5.340   0.309  -0.368  0.00  0.00    -0.040 A 
ATOM     11  C   LIG    1       -4.439  -0.725  -0.630  0.00  0.00    +0.100 A 
ATOM     12  C   LIG    1       -4.881  -2.031  -0.661  0.00  0.00    -0.010 A 
ATOM     13  C   LIG    1       -6.220  -2.317  -0.445  0.00  0.00    +0.120 A 
ATOM     14  C   LIG    1       -7.120  -1.294  -0.190  0.00  0.00    -0.010 A 
ATOM     15  F   LIG    1       -6.649  -3.597  -0.482  0.00  0.00    -0.130 F 
ATOM     16  C   LIG    1       -6.687   0.015  -0.150  0.00  0.00    +0.110 A 
ENDBRANCH   8  10
BRANCH   1  17
ATOM     17  N   LIG    1       -0.018   1.461   0.010  0.00  0.00    -0.680 N 
ATOM     18  H   LIG    1        0.814   1.957   0.067  0.00  0.00    +0.430 HD
BRANCH  17  27
ATOM     19  O   LIG    1       -1.059  -1.357  -1.626  0.00  0.00    -0.520 OA
ATOM     20  C   LIG    1       -0.219  -0.509  -1.409  0.00  0.00    +0.510 C 
ATOM     21  N   LIG    1        0.515  -0.018  -2.414  0.00  0.00    -0.720 N 
ATOM     22  H   LIG    1        0.379  -0.342  -3.318  0.00  0.00    +0.400 HD
ATOM     23  C   LIG    1        1.531   1.014  -2.147  0.00  0.00    +0.250 C 
ATOM     24  C   LIG    1        2.686   0.373  -1.372  0.00  0.00    +0.220 C 
ATOM     25  O   LIG    1        2.399   0.346   0.016  0.00  0.00    -0.380 OA
ATOM     26  C   LIG    1        1.367  -0.504   0.486  0.00  0.00    +0.260 C 
ATOM     27  C   LIG    1        0.002  -0.004   0.002  0.00  0.00    +0.230 C 
ENDBRANCH  17  27
ENDBRANCH   1  17
TORSDOF 3
