REMARK  Name = ZINCkj000005f5JZ.0
REMARK                            x       y       z     vdW  Elec       q    Type
REMARK                         _______ _______ _______ _____ _____    ______ ____
ROOT
ATOM      1  C   LIG    1       -0.972   3.504   0.026  0.00  0.00    +0.480 C 
ATOM      2  O   LIG    1        0.135   4.007   0.023  0.00  0.00    -0.610 OA
ENDROOT
BRANCH   1   8
ATOM      3  C   LIG    1        1.291  -0.409  -0.013  0.00  0.00    +0.200 A 
ATOM      4  C   LIG    1        0.002  -0.004   0.002  0.00  0.00    -0.080 A 
ATOM      5  C   LIG    1       -0.017   1.406   0.010  0.00  0.00    +0.480 A 
ATOM      6  N   LIG    1        1.288   1.831  -0.000  0.00  0.00    -0.480 N 
ATOM      7  H   LIG    1        1.592   2.752   0.002  0.00  0.00    +0.460 HD
ATOM      8  N   LIG    1       -1.101   2.181   0.019  0.00  0.00    -0.650 NA
ATOM      9  N   LIG    1        2.099   0.688  -0.014  0.00  0.00    -0.480 N 
ATOM     10  H   LIG    1        3.069   0.680  -0.024  0.00  0.00    +0.450 HD
BRANCH   3  11
ATOM     11  C   LIG    1        1.759  -1.842  -0.025  0.00  0.00    +0.130 C 
BRANCH  11  13
ATOM     12  C   LIG    1        2.616  -3.690  -1.472  0.00  0.00    +0.030 C 
ATOM     13  C   LIG    1        2.023  -2.279  -1.468  0.00  0.00    -0.020 C 
ATOM     14  C   LIG    1        0.709  -2.276  -2.251  0.00  0.00    +0.020 C 
ENDBRANCH  11  13
ENDBRANCH   3  11
ENDBRANCH   1   8
BRANCH   1  15
ATOM     15  C   LIG    1       -2.198   4.381   0.037  0.00  0.00    +0.090 C 
BRANCH  15  16
ATOM     16  C   LIG    1       -1.773   5.851   0.043  0.00  0.00    -0.010 C 
ATOM     17  C   LIG    1       -1.076   6.216  -1.282  0.00  0.00    +0.230 C 
ATOM     18  O   LIG    1       -1.887   7.209  -1.932  0.00  0.00    -0.390 OA
ATOM     19  C   LIG    1       -2.614   7.904  -0.896  0.00  0.00    +0.140 C 
ATOM     20  C   LIG    1       -3.016   6.773   0.085  0.00  0.00    +0.050 C 
BRANCH  19  21
ATOM     21  C   LIG    1       -3.855   8.587  -1.474  0.00  0.00    +0.290 C 
BRANCH  21  22
ATOM     22  N   LIG    1       -3.446   9.580  -2.476  0.00  0.00    -0.640 N 
ATOM     23  H   LIG    1       -2.853  10.271  -2.042  0.00  0.00    +0.430 HD
ATOM     24  H   LIG    1       -4.264  10.030  -2.857  0.00  0.00    +0.440 HD
ATOM     25  H   LIG    1       -2.939   9.120  -3.218  0.00  0.00    +0.440 HD
ENDBRANCH  21  22
ENDBRANCH  19  21
ENDBRANCH  15  16
ENDBRANCH   1  15
TORSDOF 7
