REMARK  Name = ZINCqH0000008aoP.0
REMARK                            x       y       z     vdW  Elec       q    Type
REMARK                         _______ _______ _______ _____ _____    ______ ____
ROOT
ATOM      1  C   LIG    1        2.340  -4.190  -0.313  0.00  0.00    +0.520 C 
ATOM      2  N   LIG    1        2.384  -2.847  -0.214  0.00  0.00    -0.670 N 
ATOM      3  H   LIG    1        3.238  -2.388  -0.221  0.00  0.00    +0.410 HD
ATOM      4  O   LIG    1        1.272  -4.758  -0.403  0.00  0.00    -0.500 OA
ENDROOT
BRANCH   2   5
ATOM      5  C   LIG    1        1.196  -2.115  -0.100  0.00  0.00    +0.180 A 
ATOM      6  C   LIG    1        0.119  -2.642   0.601  0.00  0.00    -0.010 A 
ATOM      7  C   LIG    1       -1.053  -1.919   0.714  0.00  0.00    +0.060 A 
ATOM      8  C   LIG    1       -1.156  -0.669   0.135  0.00  0.00    -0.040 A 
ATOM      9  C   LIG    1       -0.084  -0.139  -0.573  0.00  0.00    +0.210 A 
ATOM     10  C   LIG    1        1.094  -0.862  -0.688  0.00  0.00    -0.020 A 
BRANCH   9  11
ATOM     11  N   LIG    1       -0.191   1.125  -1.163  0.00  0.00    -0.570 N 
ATOM     12  C   LIG    1       -1.414   1.939  -1.218  0.00  0.00    +0.260 C 
ATOM     13  C   LIG    1       -0.976   3.214  -1.964  0.00  0.00    +0.270 C 
ATOM     14  N   LIG    1        0.445   2.979  -2.259  0.00  0.00    -0.740 N 
ATOM     15  H   LIG    1        1.030   3.592  -2.730  0.00  0.00    +0.430 HD
ATOM     16  C   LIG    1        0.803   1.783  -1.774  0.00  0.00    +0.700 C 
ATOM     17  O   LIG    1        1.928   1.335  -1.879  0.00  0.00    -0.570 OA
ENDBRANCH   9  11
ENDBRANCH   2   5
BRANCH   1  19
ATOM     18  C   LIG    1        4.489  -4.558  -1.495  0.00  0.00    +0.070 C 
ATOM     19  C   LIG    1        3.619  -4.988  -0.312  0.00  0.00    +0.100 C 
BRANCH  19  20
ATOM     20  C   LIG    1        3.296  -6.455  -0.433  0.00  0.00    +0.060 A 
ATOM     21  C   LIG    1        3.624  -7.389   0.469  0.00  0.00    -0.040 A 
ATOM     22  C   LIG    1        3.114  -8.662  -0.056  0.00  0.00    -0.130 A 
ATOM     23  C   LIG    1        3.130  -9.980   0.398  0.00  0.00    +0.060 A 
ATOM     24  C   LIG    1        2.543 -10.968  -0.361  0.00  0.00    -0.010 A 
ATOM     25  C   LIG    1        1.938 -10.655  -1.569  0.00  0.00    +0.050 A 
ATOM     26  C   LIG    1        1.915  -9.356  -2.030  0.00  0.00    +0.020 A 
ATOM     27  C   LIG    1        2.502  -8.345  -1.280  0.00  0.00    +0.060 A 
ATOM     28  O   LIG    1        2.632  -7.015  -1.460  0.00  0.00    -0.180 OA
ENDBRANCH  19  20
ENDBRANCH   1  19
TORSDOF 4
