REMARK  Name = ZINCAx0000000gE8.0
REMARK                            x       y       z     vdW  Elec       q    Type
REMARK                         _______ _______ _______ _____ _____    ______ ____
ROOT
ATOM      1  O   LIG    1       -0.337   1.080  -1.133  0.00  0.00    -0.330 OA
ENDROOT
BRANCH   1   2
ATOM      2  C   LIG    1       -0.712   1.201   0.150  0.00  0.00    +0.480 C 
ATOM      3  O   LIG    1       -1.837   1.550   0.421  0.00  0.00    -0.490 OA
BRANCH   2   4
ATOM      4  C   LIG    1        0.270   0.902   1.254  0.00  0.00    +0.270 C 
BRANCH   4   5
ATOM      5  C   LIG    1        1.474   1.837   1.131  0.00  0.00    +0.170 C 
ATOM      6  C   LIG    1        1.012   3.288   1.282  0.00  0.00    +0.070 C 
BRANCH   5   7
ATOM      7  O   LIG    1        2.084   1.663  -0.149  0.00  0.00    -0.540 OA
ATOM      8  H   LIG    1        2.347   0.752  -0.339  0.00  0.00    +0.380 HD
ENDBRANCH   5   7
ENDBRANCH   4   5
BRANCH   4   9
ATOM      9  N   LIG    1       -0.378   1.107   2.552  0.00  0.00    -1.100 NA
ATOM     10  H   LIG    1       -1.024   1.822   2.665  0.00  0.00    +0.430 HD
BRANCH   9  11
ATOM     11  S   LIG    1       -0.006   0.119   3.828  0.00  0.00    +2.700 S 
ATOM     12  O   LIG    1       -0.071  -1.213   3.336  0.00  0.00    -0.940 OA
ATOM     13  O   LIG    1       -0.777   0.579   4.929  0.00  0.00    -0.940 OA
BRANCH  11  14
ATOM     14  C   LIG    1        1.681   0.414   4.242  0.00  0.00    -0.680 A 
ATOM     15  C   LIG    1        2.680  -0.332   3.646  0.00  0.00    +0.140 A 
ATOM     16  C   LIG    1        4.003  -0.098   3.967  0.00  0.00    +0.020 A 
ATOM     17  C   LIG    1        4.328   0.876   4.894  0.00  0.00    +0.020 A 
ATOM     18  C   LIG    1        3.327   1.619   5.495  0.00  0.00    +0.020 A 
ATOM     19 CL   LIG    1        5.990   1.166   5.304  0.00  0.00    -0.050 Cl
ATOM     20  C   LIG    1        2.004   1.388   5.168  0.00  0.00    +0.150 A 
ENDBRANCH  11  14
ENDBRANCH   9  11
ENDBRANCH   4   9
ENDBRANCH   2   4
ENDBRANCH   1   2
BRANCH   1  21
ATOM     21  C   LIG    1       -1.335   1.384  -2.143  0.00  0.00    +0.300 C 
BRANCH  21  26
ATOM     22  C   LIG    1       -2.995   1.877  -7.025  0.00  0.00    +0.220 A 
ATOM     23  C   LIG    1       -3.583   2.064  -5.774  0.00  0.00    -0.020 A 
ATOM     24  C   LIG    1       -2.866   1.846  -4.634  0.00  0.00    +0.110 A 
ATOM     25  C   LIG    1       -1.531   1.435  -4.720  0.00  0.00    -0.160 A 
ATOM     26  C   LIG    1       -0.737   1.194  -3.513  0.00  0.00    +0.020 A 
ATOM     27  C   LIG    1        0.554   0.801  -3.662  0.00  0.00    -0.040 A 
ATOM     28  C   LIG    1        1.089   0.625  -4.955  0.00  0.00    +0.510 A 
ATOM     29  O   LIG    1        0.357   0.847  -6.057  0.00  0.00    -0.270 OA
ATOM     30  O   LIG    1        2.248   0.267  -5.074  0.00  0.00    -0.450 OA
ATOM     31  C   LIG    1       -0.931   1.245  -5.979  0.00  0.00    +0.180 A 
ATOM     32  C   LIG    1       -1.674   1.470  -7.128  0.00  0.00    +0.020 A 
BRANCH  22  34
ATOM     33  C   LIG    1       -3.523   1.356  -9.281  0.00  0.00    +0.650 C 
ATOM     34  N   LIG    1       -3.743   2.103  -8.181  0.00  0.00    -0.650 N 
ATOM     35  H   LIG    1       -4.419   2.798  -8.194  0.00  0.00    +0.420 HD
ATOM     36  O   LIG    1       -2.740   0.429  -9.240  0.00  0.00    -0.540 OA
BRANCH  33  37
ATOM     37  O   LIG    1       -4.173   1.638 -10.427  0.00  0.00    -0.360 OA
BRANCH  37  39
ATOM     38  C   LIG    1       -4.714   1.261 -12.771  0.00  0.00    +0.080 C 
ATOM     39  C   LIG    1       -3.888   0.792 -11.572  0.00  0.00    +0.240 C 
ENDBRANCH  37  39
ENDBRANCH  33  37
ENDBRANCH  22  34
ENDBRANCH  21  26
ENDBRANCH   1  21
TORSDOF 12
