REMARK  Name = ZINCvU0000000FnW.0
REMARK                            x       y       z     vdW  Elec       q    Type
REMARK                         _______ _______ _______ _____ _____    ______ ____
ROOT
ATOM      1  C   LIG    1       -1.367   3.554   0.321  0.00  0.00    +0.130 A 
ATOM      2  C   LIG    1       -1.192   2.183   0.452  0.00  0.00    +0.010 A 
ATOM      3  C   LIG    1        0.067   1.668   0.692  0.00  0.00    +0.030 A 
ATOM      4  C   LIG    1        1.157   2.519   0.792  0.00  0.00    +0.110 A 
ATOM      5  C   LIG    1        0.984   3.888   0.656  0.00  0.00    -0.040 A 
ATOM      6  C   LIG    1       -0.275   4.405   0.421  0.00  0.00    +0.030 A 
ENDROOT
BRANCH   1   8
ATOM      7  C   LIG    1       -2.961   5.447   0.492  0.00  0.00    +0.320 C 
ATOM      8  N   LIG    1       -2.643   4.077   0.083  0.00  0.00    -0.940 N 
BRANCH   8   9
ATOM      9  S   LIG    1       -3.793   3.147  -0.662  0.00  0.00    +2.690 S 
ATOM     10  O   LIG    1       -3.093   2.144  -1.385  0.00  0.00    -0.930 OA
ATOM     11  O   LIG    1       -4.707   4.049  -1.271  0.00  0.00    -0.940 OA
BRANCH   9  12
ATOM     12  C   LIG    1       -4.689   2.312   0.605  0.00  0.00    -0.670 A 
ATOM     13  C   LIG    1       -4.354   1.016   0.950  0.00  0.00    +0.130 A 
ATOM     14  C   LIG    1       -5.053   0.363   1.947  0.00  0.00    +0.040 A 
ATOM     15  C   LIG    1       -6.096   1.002   2.593  0.00  0.00    -0.040 A 
ATOM     16  C   LIG    1       -6.435   2.297   2.244  0.00  0.00    +0.040 A 
ATOM     17 BR   LIG    1       -7.058   0.106   3.953  0.00  0.00    -0.030 Br
ATOM     18  C   LIG    1       -5.732   2.952   1.250  0.00  0.00    +0.140 A 
ENDBRANCH   9  12
ENDBRANCH   8   9
ENDBRANCH   1   8
BRANCH   4  19
ATOM     19  O   LIG    1        2.397   2.011   1.023  0.00  0.00    -0.310 OA
BRANCH  19  20
ATOM     20  C   LIG    1        3.475   2.945   1.114  0.00  0.00    +0.320 C 
BRANCH  20  21
ATOM     21  C   LIG    1        4.762   2.204   1.371  0.00  0.00    +0.060 A 
ATOM     22  C   LIG    1        4.803   0.873   1.489  0.00  0.00    -0.030 A 
ATOM     23  S   LIG    1        6.476   0.397   1.778  0.00  0.00    +0.100 S 
ATOM     24  C   LIG    1        6.962   2.089   1.718  0.00  0.00    +0.120 A 
ATOM     25  N   LIG    1        5.911   2.826   1.498  0.00  0.00    -0.460 NA
BRANCH  24  26
ATOM     26  C   LIG    1        8.342   2.592   1.890  0.00  0.00    -0.030 A 
ATOM     27  C   LIG    1        8.603   3.961   1.816  0.00  0.00    +0.070 A 
ATOM     28  C   LIG    1        9.892   4.424   1.983  0.00  0.00    +0.010 A 
ATOM     29  C   LIG    1       10.926   3.534   2.212  0.00  0.00    +0.030 A 
ATOM     30  C   LIG    1       10.675   2.175   2.282  0.00  0.00    +0.010 A 
ATOM     31  C   LIG    1        9.389   1.700   2.122  0.00  0.00    +0.030 A 
ENDBRANCH  24  26
ENDBRANCH  20  21
ENDBRANCH  19  20
ENDBRANCH   4  19
TORSDOF 7
