REMARK  Name = ZINCrD00000eKVY6.0
REMARK                            x       y       z     vdW  Elec       q    Type
REMARK                         _______ _______ _______ _____ _____    ______ ____
ROOT
ATOM      1  N   LIG    1       -0.995   7.759   0.939  0.00  0.00    -0.720 N 
ATOM      2  H   LIG    1       -0.043   7.697   1.115  0.00  0.00    +0.400 HD
ATOM      3  C   LIG    1       -1.724   8.738   1.511  0.00  0.00    +0.600 C 
ATOM      4  O   LIG    1       -2.917   8.815   1.291  0.00  0.00    -0.540 OA
ENDROOT
BRANCH   3   5
ATOM      5  C   LIG    1       -1.074   9.715   2.404  0.00  0.00    -0.300 A 
ATOM      6  C   LIG    1       -1.689  10.765   3.055  0.00  0.00    +0.170 A 
ATOM      7  N   LIG    1       -0.746  11.407   3.763  0.00  0.00    -0.360 N 
ATOM      8  N   LIG    1        0.478  10.761   3.559  0.00  0.00    -0.290 NA
ATOM      9  C   LIG    1       -0.962  12.585   4.606  0.00  0.00    +0.360 C 
ATOM     10  C   LIG    1        0.294   9.749   2.756  0.00  0.00    +0.270 A 
BRANCH   6  11
ATOM     11  C   LIG    1       -3.151  11.124   2.986  0.00  0.00    +0.170 C 
BRANCH  11  12
ATOM     12  C   LIG    1       -3.379  12.087   1.850  0.00  0.00    -0.080 A 
ATOM     13  C   LIG    1       -3.298  13.449   2.072  0.00  0.00    +0.000 A 
ATOM     14  C   LIG    1       -3.502  14.333   1.029  0.00  0.00    +0.000 A 
ATOM     15  C   LIG    1       -3.797  13.855  -0.234  0.00  0.00    +0.000 A 
ATOM     16  C   LIG    1       -3.883  12.493  -0.455  0.00  0.00    +0.000 A 
ATOM     17  C   LIG    1       -3.674  11.609   0.587  0.00  0.00    +0.040 A 
ENDBRANCH  11  12
ENDBRANCH   6  11
ENDBRANCH   3   5
BRANCH   1  19
ATOM     18  C   LIG    1       -1.713   7.360  -1.364  0.00  0.00    +0.040 C 
ATOM     19  C   LIG    1       -1.640   6.788   0.053  0.00  0.00    +0.290 C 
BRANCH  19  20
ATOM     20  C   LIG    1       -0.840   5.511   0.038  0.00  0.00    -0.100 A 
ATOM     21  C   LIG    1        0.546   5.570   0.025  0.00  0.00    +0.030 A 
ATOM     22  C   LIG    1        1.295   4.412   0.013  0.00  0.00    +0.020 A 
ATOM     23  C   LIG    1        0.656   3.180   0.012  0.00  0.00    +0.050 A 
ATOM     24  N   LIG    1        1.092   1.870   0.002  0.00  0.00    -0.600 N 
ATOM     25  H   LIG    1        2.015   1.572  -0.009  0.00  0.00    +0.430 HD
ATOM     26  C   LIG    1       -0.013   1.076   0.008  0.00  0.00    +0.490 A 
ATOM     27  N   LIG    1       -1.089   1.806   0.017  0.00  0.00    -0.500 NA
ATOM     28  C   LIG    1       -0.749   3.121   0.025  0.00  0.00    +0.050 A 
ATOM     29  C   LIG    1       -1.486   4.307   0.038  0.00  0.00    +0.080 A 
ENDBRANCH  19  20
ENDBRANCH   1  19
TORSDOF 5
