REMARK  Name = ZINCrD00000eKVY6.1
REMARK                            x       y       z     vdW  Elec       q    Type
REMARK                         _______ _______ _______ _____ _____    ______ ____
ROOT
ATOM      1  N   LIG    1        0.515   7.833  -0.851  0.00  0.00    -0.720 N 
ATOM      2  H   LIG    1       -0.429   7.695  -1.028  0.00  0.00    +0.400 HD
ATOM      3  C   LIG    1        1.160   8.875  -1.411  0.00  0.00    +0.600 C 
ATOM      4  O   LIG    1        2.343   9.048  -1.189  0.00  0.00    -0.550 OA
ENDROOT
BRANCH   3   5
ATOM      5  C   LIG    1        0.432   9.805  -2.293  0.00  0.00    -0.300 A 
ATOM      6  C   LIG    1        0.958  10.909  -2.933  0.00  0.00    +0.170 A 
ATOM      7  N   LIG    1       -0.035  11.479  -3.634  0.00  0.00    -0.360 N 
ATOM      8  N   LIG    1       -1.202  10.731  -3.438  0.00  0.00    -0.290 NA
ATOM      9  C   LIG    1        0.083  12.680  -4.464  0.00  0.00    +0.360 C 
ATOM     10  C   LIG    1       -0.934   9.730  -2.647  0.00  0.00    +0.270 A 
BRANCH   6  11
ATOM     11  C   LIG    1        2.386  11.387  -2.859  0.00  0.00    +0.170 C 
BRANCH  11  12
ATOM     12  C   LIG    1        2.533  12.353  -1.712  0.00  0.00    -0.080 A 
ATOM     13  C   LIG    1        2.340  13.706  -1.919  0.00  0.00    +0.000 A 
ATOM     14  C   LIG    1        2.470  14.592  -0.865  0.00  0.00    +0.000 A 
ATOM     15  C   LIG    1        2.804  14.126   0.393  0.00  0.00    +0.000 A 
ATOM     16  C   LIG    1        3.002  12.774   0.598  0.00  0.00    +0.000 A 
ATOM     17  C   LIG    1        2.867  11.887  -0.454  0.00  0.00    +0.040 A 
ENDBRANCH  11  12
ENDBRANCH   6  11
ENDBRANCH   3   5
BRANCH   1  19
ATOM     18  C   LIG    1        1.264   7.469   1.449  0.00  0.00    +0.040 C 
ATOM     19  C   LIG    1        1.239   6.908   0.026  0.00  0.00    +0.290 C 
BRANCH  19  20
ATOM     20  C   LIG    1        0.546   5.570   0.025  0.00  0.00    -0.070 A 
ATOM     21  C   LIG    1       -0.840   5.511   0.038  0.00  0.00    +0.010 A 
ATOM     22  C   LIG    1       -1.486   4.307   0.038  0.00  0.00    +0.070 A 
ATOM     23  C   LIG    1       -0.749   3.121   0.025  0.00  0.00    +0.050 A 
ATOM     24  N   LIG    1       -1.089   1.806   0.017  0.00  0.00    -0.500 NA
ATOM     25  C   LIG    1       -0.013   1.076   0.008  0.00  0.00    +0.490 A 
ATOM     26  N   LIG    1        1.092   1.870   0.002  0.00  0.00    -0.600 N 
ATOM     27  H   LIG    1        2.015   1.572  -0.009  0.00  0.00    +0.430 HD
ATOM     28  C   LIG    1        0.656   3.180   0.012  0.00  0.00    +0.050 A 
ATOM     29  C   LIG    1        1.295   4.412   0.013  0.00  0.00    +0.030 A 
ENDBRANCH  19  20
ENDBRANCH   1  19
TORSDOF 5
