REMARK  Name = ZINCrD0000072kTh.0
REMARK                            x       y       z     vdW  Elec       q    Type
REMARK                         _______ _______ _______ _____ _____    ______ ____
ROOT
ATOM      1  N   LIG    1        0.450   1.420   2.445  0.00  0.00    -0.660 N 
ATOM      2  H   LIG    1        0.095   1.186   3.317  0.00  0.00    +0.420 HD
ATOM      3  C   LIG    1        1.596   2.123   2.351  0.00  0.00    +0.530 C 
ATOM      4  O   LIG    1        2.069   2.367   1.261  0.00  0.00    -0.480 OA
ENDROOT
BRANCH   1  11
ATOM      5  C   LIG    1       -0.645  -0.294   1.143  0.00  0.00    -0.080 A 
ATOM      6  C   LIG    1       -1.311  -0.685  -0.002  0.00  0.00    +0.040 A 
ATOM      7  C   LIG    1       -1.559   0.233  -1.007  0.00  0.00    +0.030 A 
ATOM      8  C   LIG    1       -1.142   1.545  -0.868  0.00  0.00    -0.030 A 
ATOM      9  C   LIG    1       -0.479   1.942   0.279  0.00  0.00    -0.050 A 
ATOM     10 CL   LIG    1       -1.456   2.693  -2.131  0.00  0.00    -0.060 Cl
ATOM     11  C   LIG    1       -0.225   1.022   1.286  0.00  0.00    +0.150 A 
BRANCH   5  13
ATOM     12  C   LIG    1       -1.481  -1.211   3.290  0.00  0.00    +0.020 C 
ATOM     13  C   LIG    1       -0.375  -1.296   2.236  0.00  0.00    +0.060 C 
ENDBRANCH   5  13
BRANCH   9  14
ATOM     14  C   LIG    1       -0.030   3.373   0.432  0.00  0.00    +0.060 C 
ATOM     15  C   LIG    1        0.349   3.938  -0.938  0.00  0.00    +0.020 C 
ENDBRANCH   9  14
ENDBRANCH   1  11
BRANCH   3  16
ATOM     16  C   LIG    1        2.288   2.607   3.599  0.00  0.00    +0.100 C 
BRANCH  16  17
ATOM     17  S   LIG    1        3.788   3.513   3.144  0.00  0.00    +0.140 S 
BRANCH  17  18
ATOM     18  C   LIG    1        4.379   3.950   4.745  0.00  0.00    +0.210 A 
ATOM     19  N   LIG    1        3.810   3.657   5.895  0.00  0.00    -0.340 NA
ATOM     20  N   LIG    1        4.504   4.122   6.871  0.00  0.00    -0.030 NA
ATOM     21  N   LIG    1        5.542   4.744   6.426  0.00  0.00    -0.080 NA
ATOM     22  N   LIG    1        5.500   4.655   5.024  0.00  0.00    -0.360 N 
BRANCH  22  23
ATOM     23  C   LIG    1        6.464   5.208   4.069  0.00  0.00    +0.360 C 
BRANCH  23  24
ATOM     24  C   LIG    1        6.041   6.627   3.682  0.00  0.00    +0.140 C 
ATOM     25  C   LIG    1        7.077   7.252   2.714  0.00  0.00    +0.030 C 
ATOM     26  C   LIG    1        6.199   8.303   1.981  0.00  0.00    +0.020 C 
ATOM     27  C   LIG    1        4.826   7.599   1.921  0.00  0.00    +0.200 C 
ATOM     28  O   LIG    1        4.809   6.597   2.945  0.00  0.00    -0.370 OA
ENDBRANCH  23  24
ENDBRANCH  22  23
ENDBRANCH  17  18
ENDBRANCH  16  17
ENDBRANCH   3  16
TORSDOF 8
