REMARK  Name = ZINCrD000000CeQA.1
REMARK                            x       y       z     vdW  Elec       q    Type
REMARK                         _______ _______ _______ _____ _____    ______ ____
ROOT
ATOM      1  O   LIG    1        7.758   3.894   2.082  0.00  0.00    -0.540 OA
ATOM      2  C   LIG    1        8.124   3.381   1.045  0.00  0.00    +0.470 C 
ATOM      3  N   LIG    1        7.262   2.644   0.318  0.00  0.00    -0.690 NA
ENDROOT
BRANCH   2   4
ATOM      4  C   LIG    1        9.542   3.568   0.571  0.00  0.00    +0.140 C 
ATOM      5  C   LIG    1        9.566   4.361  -0.759  0.00  0.00    +0.050 C 
ATOM      6  C   LIG    1       10.991   4.973  -0.734  0.00  0.00    +0.000 C 
ATOM      7  C   LIG    1       11.212   5.277   0.762  0.00  0.00    +0.160 C 
ATOM      8  N   LIG    1       10.297   4.408   1.525  0.00  0.00    -0.500 NA
BRANCH   8   9
ATOM      9  C   LIG    1       11.037   3.579   2.485  0.00  0.00    +0.220 C 
BRANCH   9  10
ATOM     10  C   LIG    1       11.591   4.453   3.581  0.00  0.00    -0.080 A 
ATOM     11  C   LIG    1       12.850   5.009   3.452  0.00  0.00    +0.040 A 
ATOM     12  C   LIG    1       13.357   5.814   4.454  0.00  0.00    -0.030 A 
ATOM     13  C   LIG    1       12.607   6.055   5.593  0.00  0.00    +0.090 A 
ATOM     14  C   LIG    1       11.348   5.494   5.724  0.00  0.00    -0.020 A 
ATOM     15  F   LIG    1       13.103   6.839   6.575  0.00  0.00    -0.140 F 
ATOM     16  C   LIG    1       10.841   4.693   4.718  0.00  0.00    +0.080 A 
ENDBRANCH   9  10
ENDBRANCH   8   9
ENDBRANCH   2   4
BRANCH   3  17
ATOM     17  C   LIG    1        5.954   2.471   0.755  0.00  0.00    +0.360 A 
ATOM     18  N   LIG    1        5.463   2.974   1.845  0.00  0.00    -0.570 NA
ATOM     19  C   LIG    1        4.195   2.713   2.105  0.00  0.00    +0.270 A 
ATOM     20  C   LIG    1        3.589   1.945   1.197  0.00  0.00    -0.380 A 
ATOM     21  S   LIG    1        4.758   1.565  -0.065  0.00  0.00    -0.000 S 
BRANCH  20  22
ATOM     22  C   LIG    1        2.154   1.488   1.241  0.00  0.00    +0.110 C 
ATOM     23  C   LIG    1        1.416   1.997  -0.001  0.00  0.00    +0.060 C 
ATOM     24  C   LIG    1       -0.018   1.464   0.010  0.00  0.00    +0.250 C 
ATOM     25  N   LIG    1        0.002  -0.004   0.002  0.00  0.00    -0.500 N 
ATOM     26  C   LIG    1        0.644  -0.500   1.225  0.00  0.00    +0.250 C 
ATOM     27  H   LIG    1        0.518  -0.328  -0.802  0.00  0.00    +0.430 HD
ATOM     28  H   LIG    1       -0.944  -0.352  -0.045  0.00  0.00    +0.430 HD
ATOM     29  C   LIG    1        2.104  -0.042   1.261  0.00  0.00    +0.060 C 
ENDBRANCH  20  22
ENDBRANCH   3  17
TORSDOF 5
