REMARK  Name = ZINCpe000000VwBc.1
REMARK                            x       y       z     vdW  Elec       q    Type
REMARK                         _______ _______ _______ _____ _____    ______ ____
ROOT
ATOM      1  C   LIG    1        5.120   5.944   1.292  0.00  0.00    +0.100 A 
ATOM      2  N   LIG    1        5.024   4.737   0.768  0.00  0.00    -0.210 NA
ATOM      3  N   LIG    1        3.668   4.441   0.584  0.00  0.00    -0.330 N 
ATOM      4  C   LIG    1        2.938   5.521   1.012  0.00  0.00    +0.210 A 
ATOM      5  C   LIG    1        3.821   6.461   1.460  0.00  0.00    +0.020 A 
ENDROOT
BRANCH   3   6
ATOM      6  C   LIG    1        3.154   3.268   0.057  0.00  0.00    +0.670 A 
ATOM      7  N   LIG    1        1.868   3.196  -0.175  0.00  0.00    -0.520 NA
ATOM      8  C   LIG    1        1.302   2.093  -0.683  0.00  0.00    +0.360 A 
ATOM      9  C   LIG    1        2.109   0.981  -0.977  0.00  0.00    -0.350 A 
ATOM     10  C   LIG    1        3.543   1.077  -0.713  0.00  0.00    +0.590 A 
ATOM     11  O   LIG    1        4.292   0.145  -0.948  0.00  0.00    -0.500 OA
ATOM     12  C   LIG    1        1.265  -0.022  -1.492  0.00  0.00    +0.340 A 
ATOM     13  N   LIG    1        0.045   0.438  -1.511  0.00  0.00    -0.260 NA
ATOM     14  N   LIG    1        0.030   1.748  -1.016  0.00  0.00    -0.350 N 
ATOM     15  C   LIG    1       -1.152   2.603  -0.885  0.00  0.00    +0.370 C 
ATOM     16  N   LIG    1        4.010   2.239  -0.198  0.00  0.00    -0.640 N 
ATOM     17  H   LIG    1        4.956   2.339  -0.010  0.00  0.00    +0.430 HD
ENDBRANCH   3   6
BRANCH   4  18
ATOM     18  C   LIG    1        1.471   5.643   0.995  0.00  0.00    +0.020 A 
ATOM     19  C   LIG    1        0.765   6.808   0.996  0.00  0.00    +0.010 A 
ATOM     20  C   LIG    1       -0.598   6.456   0.977  0.00  0.00    -0.050 A 
ATOM     21  C   LIG    1       -0.659   5.109   0.964  0.00  0.00    +0.170 A 
ATOM     22  O   LIG    1        0.593   4.622   0.969  0.00  0.00    -0.120 OA
ENDBRANCH   4  18
BRANCH   1  23
ATOM     23  C   LIG    1        6.377   6.636   1.643  0.00  0.00    +0.550 C 
ATOM     24  O   LIG    1        6.343   7.752   2.123  0.00  0.00    -0.470 OA
BRANCH  23  26
ATOM     25  C   LIG    1        8.756   6.768   1.801  0.00  0.00    +0.290 C 
ATOM     26  O   LIG    1        7.562   6.029   1.432  0.00  0.00    -0.340 OA
ENDBRANCH  23  26
ENDBRANCH   1  23
TORSDOF 4
