REMARK  Name = ZINCpe000000VWbC.0
REMARK                            x       y       z     vdW  Elec       q    Type
REMARK                         _______ _______ _______ _____ _____    ______ ____
ROOT
ATOM      1  C   LIG    1       -0.014   1.212   0.009  0.00  0.00    +0.580 C 
ATOM      2  N   LIG    1        0.598   0.808   1.139  0.00  0.00    -0.610 N 
ATOM      3  C   LIG    1        0.029   1.121   2.459  0.00  0.00    +0.290 C 
ATOM      4  C   LIG    1       -0.056  -0.182   3.269  0.00  0.00    +0.190 C 
ATOM      5  N   LIG    1        1.267  -0.821   3.299  0.00  0.00    -0.480 N 
ATOM      6  C   LIG    1        1.702  -1.208   1.951  0.00  0.00    +0.210 C 
ATOM      7  C   LIG    1        1.856   0.048   1.087  0.00  0.00    +0.290 C 
ATOM      8  O   LIG    1        0.522   1.038  -1.069  0.00  0.00    -0.520 OA
ENDROOT
BRANCH   1  11
ATOM      9  N   LIG    1       -3.684   1.712   0.294  0.00  0.00    -0.480 N 
ATOM     10  C   LIG    1       -2.479   1.115   0.224  0.00  0.00    +0.360 A 
ATOM     11  C   LIG    1       -1.332   1.869   0.078  0.00  0.00    -0.240 A 
ATOM     12  C   LIG    1       -1.432   3.279  -0.009  0.00  0.00    +0.150 A 
ATOM     13  C   LIG    1       -2.660   3.859   0.058  0.00  0.00    -0.080 A 
ATOM     14  C   LIG    1       -3.801   3.049   0.213  0.00  0.00    +0.510 A 
ATOM     15  O   LIG    1       -4.905   3.564   0.274  0.00  0.00    -0.540 OA
BRANCH   9  16
ATOM     16  C   LIG    1       -4.886   0.890   0.455  0.00  0.00    +0.310 C 
BRANCH  16  17
ATOM     17  C   LIG    1       -5.430   0.507  -0.923  0.00  0.00    +0.170 C 
BRANCH  17  19
ATOM     18  C   LIG    1       -4.898  -0.750  -2.894  0.00  0.00    +0.200 C 
ATOM     19  O   LIG    1       -4.485  -0.333  -1.591  0.00  0.00    -0.390 OA
ENDBRANCH  17  19
ENDBRANCH  16  17
ENDBRANCH   9  16
ENDBRANCH   1  11
BRANCH   5  20
ATOM     20  C   LIG    1        1.273  -1.914   4.158  0.00  0.00    +0.310 A 
ATOM     21  C   LIG    1        0.890  -1.750   5.485  0.00  0.00    -0.050 A 
ATOM     22  C   LIG    1        0.901  -2.846   6.328  0.00  0.00    +0.090 A 
ATOM     23  C   LIG    1        1.295  -4.074   5.814  0.00  0.00    -0.060 A 
ATOM     24  C   LIG    1        1.662  -4.165   4.486  0.00  0.00    +0.290 A 
ATOM     25  N   LIG    1        1.638  -3.103   3.704  0.00  0.00    -0.520 NA
ENDBRANCH   5  20
TORSDOF 5
