REMARK  Name = ZINCBI0000000aFO.2
REMARK                            x       y       z     vdW  Elec       q    Type
REMARK                         _______ _______ _______ _____ _____    ______ ____
ROOT
ATOM      1  C   LIG    1        4.018  -0.713  -1.046  0.00  0.00    +0.090 C 
ATOM      2  C   LIG    1        2.913  -1.690  -1.459  0.00  0.00    +0.080 C 
ATOM      3  C   LIG    1        1.564  -1.160  -0.965  0.00  0.00    -0.020 C 
ATOM      4  C   LIG    1        1.338   0.243  -1.529  0.00  0.00    +0.300 C 
ATOM      5  N   LIG    1        2.411   1.137  -1.076  0.00  0.00    -0.380 N 
ATOM      6  H   LIG    1        2.229   2.073  -1.406  0.00  0.00    +0.430 HD
ATOM      7  C   LIG    1        3.700   0.675  -1.606  0.00  0.00    +0.260 C 
ENDROOT
BRANCH   3   8
ATOM      8  C   LIG    1        0.462  -2.074  -1.433  0.00  0.00    +0.530 C 
ATOM      9  N   LIG    1        0.161  -3.183  -0.728  0.00  0.00    -0.610 N 
ATOM     10  C   LIG    1        0.972  -3.583   0.432  0.00  0.00    +0.300 C 
ATOM     11  C   LIG    1        0.028  -3.824   1.620  0.00  0.00    +0.210 C 
ATOM     12  N   LIG    1       -1.010  -4.786   1.227  0.00  0.00    -0.460 N 
ATOM     13  C   LIG    1       -1.848  -4.253   0.145  0.00  0.00    +0.220 C 
ATOM     14  C   LIG    1       -0.985  -4.026  -1.101  0.00  0.00    +0.310 C 
ATOM     15  O   LIG    1       -0.154  -1.813  -2.445  0.00  0.00    -0.520 OA
BRANCH  12  16
ATOM     16  C   LIG    1       -1.782  -5.156   2.316  0.00  0.00    +0.490 A 
ATOM     17  N   LIG    1       -3.095  -4.993   2.263  0.00  0.00    -0.540 NA
ATOM     18  C   LIG    1       -3.862  -5.340   3.283  0.00  0.00    +0.370 A 
ATOM     19  C   LIG    1       -3.273  -5.871   4.421  0.00  0.00    -0.180 A 
ATOM     20  C   LIG    1       -1.895  -6.023   4.445  0.00  0.00    +0.370 A 
ATOM     21 CL   LIG    1       -4.241  -6.335   5.786  0.00  0.00    -0.030 Cl
ATOM     22  N   LIG    1       -1.188  -5.660   3.388  0.00  0.00    -0.520 NA
ENDBRANCH  12  16
ENDBRANCH   3   8
BRANCH   1  26
ATOM     23  C   LIG    1        8.761  -2.303  -1.360  0.00  0.00    +0.360 C 
ATOM     24  N   LIG    1        7.406  -1.878  -1.723  0.00  0.00    -0.360 N 
ATOM     25  C   LIG    1        6.437  -1.497  -0.864  0.00  0.00    +0.260 A 
ATOM     26  C   LIG    1        5.340  -1.186  -1.592  0.00  0.00    -0.260 A 
ATOM     27  C   LIG    1        5.652  -1.375  -2.943  0.00  0.00    +0.240 A 
ATOM     28  N   LIG    1        6.890  -1.789  -3.022  0.00  0.00    -0.280 NA
ENDBRANCH   1  26
BRANCH   5  29
ATOM     29  C   LIG    1        2.459   1.137   0.392  0.00  0.00    +0.330 C 
BRANCH  29  30
ATOM     30  C   LIG    1        3.474   2.148   0.861  0.00  0.00    -0.150 A 
ATOM     31  C   LIG    1        4.689   1.724   1.365  0.00  0.00    +0.070 A 
ATOM     32  C   LIG    1        5.622   2.652   1.796  0.00  0.00    +0.130 A 
ATOM     33  C   LIG    1        5.336   4.006   1.723  0.00  0.00    -0.090 A 
ATOM     34  C   LIG    1        4.122   4.430   1.214  0.00  0.00    +0.080 A 
ATOM     35 BR   LIG    1        6.610   5.274   2.311  0.00  0.00    +0.020 Br
ATOM     36  F   LIG    1        6.810   2.238   2.288  0.00  0.00    -0.100 F 
ATOM     37  C   LIG    1        3.189   3.501   0.788  0.00  0.00    +0.120 A 
ATOM     38  F   LIG    1        2.001   3.915   0.296  0.00  0.00    -0.120 F 
ENDBRANCH  29  30
ENDBRANCH   5  29
TORSDOF 5
