REMARK  Name = ZINCBI0000000aFO.1
REMARK                            x       y       z     vdW  Elec       q    Type
REMARK                         _______ _______ _______ _____ _____    ______ ____
ROOT
ATOM      1  C   LIG    1        4.905   4.619  -2.772  0.00  0.00    +0.090 C 
ATOM      2  C   LIG    1        3.972   5.386  -3.713  0.00  0.00    +0.090 C 
ATOM      3  C   LIG    1        2.580   4.749  -3.667  0.00  0.00    -0.010 C 
ATOM      4  C   LIG    1        2.074   4.747  -2.223  0.00  0.00    +0.270 C 
ATOM      5  N   LIG    1        2.995   3.976  -1.379  0.00  0.00    -0.380 N 
ATOM      6  H   LIG    1        3.085   3.041  -1.748  0.00  0.00    +0.420 HD
ATOM      7  C   LIG    1        4.313   4.622  -1.361  0.00  0.00    +0.270 C 
ENDROOT
BRANCH   3   8
ATOM      8  C   LIG    1        1.634   5.542  -4.531  0.00  0.00    +0.520 C 
ATOM      9  N   LIG    1        0.654   4.914  -5.211  0.00  0.00    -0.610 N 
ATOM     10  C   LIG    1        0.421   3.472  -5.038  0.00  0.00    +0.300 C 
ATOM     11  C   LIG    1       -1.071   3.258  -4.735  0.00  0.00    +0.210 C 
ATOM     12  N   LIG    1       -1.875   3.895  -5.787  0.00  0.00    -0.460 N 
ATOM     13  C   LIG    1       -1.669   5.349  -5.808  0.00  0.00    +0.220 C 
ATOM     14  C   LIG    1       -0.205   5.650  -6.149  0.00  0.00    +0.310 C 
ATOM     15  O   LIG    1        1.754   6.746  -4.615  0.00  0.00    -0.510 OA
BRANCH  12  16
ATOM     16  C   LIG    1       -3.216   3.586  -5.642  0.00  0.00    +0.490 A 
ATOM     17  N   LIG    1       -4.099   4.569  -5.539  0.00  0.00    -0.540 NA
ATOM     18  C   LIG    1       -5.389   4.308  -5.404  0.00  0.00    +0.370 A 
ATOM     19  C   LIG    1       -5.811   2.988  -5.360  0.00  0.00    -0.170 A 
ATOM     20  C   LIG    1       -4.859   1.984  -5.465  0.00  0.00    +0.370 A 
ATOM     21 CL   LIG    1       -7.493   2.600  -5.177  0.00  0.00    -0.030 Cl
ATOM     22  N   LIG    1       -3.586   2.314  -5.603  0.00  0.00    -0.510 NA
ENDBRANCH  12  16
ENDBRANCH   3   8
BRANCH   1  26
ATOM     23  C   LIG    1        9.829   5.441  -3.219  0.00  0.00    +0.360 C 
ATOM     24  N   LIG    1        8.403   5.636  -2.948  0.00  0.00    -0.360 N 
ATOM     25  C   LIG    1        7.432   4.712  -3.104  0.00  0.00    +0.260 A 
ATOM     26  C   LIG    1        6.258   5.284  -2.752  0.00  0.00    -0.260 A 
ATOM     27  C   LIG    1        6.521   6.601  -2.359  0.00  0.00    +0.240 A 
ATOM     28  N   LIG    1        7.807   6.813  -2.477  0.00  0.00    -0.280 NA
ENDBRANCH   1  26
BRANCH   5  29
ATOM     29  C   LIG    1        2.464   3.911  -0.011  0.00  0.00    +0.340 C 
BRANCH  29  30
ATOM     30  C   LIG    1        1.174   3.133  -0.009  0.00  0.00    -0.150 A 
ATOM     31  C   LIG    1       -0.036   3.801   0.012  0.00  0.00    +0.070 A 
ATOM     32  C   LIG    1       -1.221   3.087   0.014  0.00  0.00    +0.130 A 
ATOM     33  C   LIG    1       -1.195   1.702  -0.009  0.00  0.00    -0.080 A 
ATOM     34  C   LIG    1        0.015   1.034  -0.024  0.00  0.00    +0.080 A 
ATOM     35 BR   LIG    1       -2.815   0.725  -0.013  0.00  0.00    +0.020 Br
ATOM     36  F   LIG    1       -2.404   3.740   0.034  0.00  0.00    -0.100 F 
ATOM     37  C   LIG    1        1.200   1.749  -0.027  0.00  0.00    +0.120 A 
ATOM     38  F   LIG    1        2.383   1.096  -0.047  0.00  0.00    -0.120 F 
ENDBRANCH  29  30
ENDBRANCH   5  29
TORSDOF 5
