REMARK  Name = ZINCrH000004v3Hf.0
REMARK                            x       y       z     vdW  Elec       q    Type
REMARK                         _______ _______ _______ _____ _____    ______ ____
ROOT
ATOM      1  O   LIG    1       -1.297  -1.981  -0.343  0.00  0.00    -0.490 OA
ATOM      2  C   LIG    1       -1.302  -0.853   0.111  0.00  0.00    +0.560 C 
ATOM      3  N   LIG    1       -2.450  -0.315   0.567  0.00  0.00    -0.670 N 
ATOM      4  H   LIG    1       -2.468   0.607   0.869  0.00  0.00    +0.420 HD
ENDROOT
BRANCH   2   5
ATOM      5  C   LIG    1       -0.050  -0.074   0.164  0.00  0.00    -0.100 A 
ATOM      6  C   LIG    1       -0.079   1.312   0.012  0.00  0.00    +0.020 A 
ATOM      7  C   LIG    1        1.097   2.037   0.061  0.00  0.00    +0.100 A 
ATOM      8  C   LIG    1        2.309   1.393   0.262  0.00  0.00    +0.030 A 
ATOM      9  C   LIG    1        2.355   0.022   0.415  0.00  0.00    +0.070 A 
ATOM     10  F   LIG    1        1.066   3.379  -0.086  0.00  0.00    -0.130 F 
ATOM     11  C   LIG    1        1.181  -0.724   0.368  0.00  0.00    +0.000 A 
BRANCH  11  12
ATOM     12  C   LIG    1        1.227  -2.196   0.531  0.00  0.00    -0.050 A 
ATOM     13  C   LIG    1        0.482  -2.813   1.535  0.00  0.00    +0.020 A 
ATOM     14  C   LIG    1        0.525  -4.185   1.679  0.00  0.00    +0.000 A 
ATOM     15  C   LIG    1        1.313  -4.947   0.835  0.00  0.00    +0.010 A 
ATOM     16  C   LIG    1        2.059  -4.340  -0.160  0.00  0.00    +0.000 A 
ATOM     17  C   LIG    1        2.020  -2.970  -0.316  0.00  0.00    +0.020 A 
ENDBRANCH  11  12
ENDBRANCH   2   5
BRANCH   3  18
ATOM     18  C   LIG    1       -3.617  -1.086   0.606  0.00  0.00    +0.160 A 
ATOM     19  C   LIG    1       -3.869  -2.015  -0.396  0.00  0.00    +0.060 A 
ATOM     20  C   LIG    1       -5.018  -2.779  -0.355  0.00  0.00    +0.040 A 
ATOM     21  C   LIG    1       -5.926  -2.612   0.682  0.00  0.00    +0.110 A 
ATOM     22  C   LIG    1       -5.677  -1.679   1.680  0.00  0.00    +0.070 A 
ATOM     23  C   LIG    1       -4.526  -0.919   1.643  0.00  0.00    +0.020 A 
BRANCH  21  24
ATOM     24  N   LIG    1       -7.097  -3.385   0.721  0.00  0.00    -0.330 N 
ATOM     25  C   LIG    1       -7.489  -4.324  -0.168  0.00  0.00    +0.470 A 
ATOM     26  N   LIG    1       -8.634  -4.798   0.249  0.00  0.00    -0.330 NA
ATOM     27  N   LIG    1       -8.996  -4.217   1.336  0.00  0.00    -0.030 NA
ATOM     28  N   LIG    1       -8.115  -3.344   1.689  0.00  0.00    -0.080 NA
ENDBRANCH  21  24
ENDBRANCH   3  18
TORSDOF 4
