REMARK  Name = ZINCrH000004qnPS.0
REMARK                            x       y       z     vdW  Elec       q    Type
REMARK                         _______ _______ _______ _____ _____    ______ ____
ROOT
ATOM      1  C   LIG    1       -1.294   0.613  -0.688  0.00  0.00    +0.110 C 
ATOM      2  C   LIG    1        0.168   0.936  -0.516  0.00  0.00    -0.110 A 
ATOM      3  C   LIG    1        0.580   2.251  -0.453  0.00  0.00    +0.100 A 
ATOM      4  C   LIG    1        1.934   2.548  -0.294  0.00  0.00    -0.150 A 
ATOM      5  C   LIG    1        2.864   1.512  -0.201  0.00  0.00    +0.180 A 
ATOM      6  C   LIG    1        2.439   0.200  -0.266  0.00  0.00    -0.680 A 
ATOM      7  C   LIG    1        1.095  -0.087  -0.423  0.00  0.00    +0.050 A 
ATOM      8  C   LIG    1        0.638  -1.522  -0.493  0.00  0.00    +0.100 C 
ENDROOT
BRANCH   4   9
ATOM      9  C   LIG    1        2.383   3.955  -0.225  0.00  0.00    +0.560 C 
ATOM     10  N   LIG    1        1.612   4.879   0.383  0.00  0.00    -0.600 N 
ATOM     11  C   LIG    1        2.033   6.262   0.352  0.00  0.00    +0.290 C 
ATOM     12  C   LIG    1        2.940   6.562   1.563  0.00  0.00    +0.010 C 
ATOM     13  C   LIG    1        2.148   6.576   2.803  0.00  0.00    +0.000 C 
ATOM     14  C   LIG    1        1.490   5.243   3.143  0.00  0.00    +0.010 C 
ATOM     15  C   LIG    1        0.173   5.135   2.414  0.00  0.00    +0.020 C 
ATOM     16  C   LIG    1        0.376   4.436   1.057  0.00  0.00    +0.250 C 
ATOM     17  O   LIG    1        3.446   4.279  -0.716  0.00  0.00    -0.520 OA
ENDBRANCH   4   9
BRANCH   6  18
ATOM     18  S   LIG    1        3.611  -1.110  -0.148  0.00  0.00    +2.690 S 
ATOM     19  O   LIG    1        3.094  -2.026   0.808  0.00  0.00    -0.950 OA
ATOM     20  O   LIG    1        4.887  -0.498  -0.028  0.00  0.00    -0.950 OA
BRANCH  18  21
ATOM     21  N   LIG    1        3.607  -1.903  -1.603  0.00  0.00    -0.990 NA
ATOM     22  C   LIG    1        2.821  -3.130  -1.784  0.00  0.00    +0.280 C 
ATOM     23  C   LIG    1        3.736  -4.233  -2.314  0.00  0.00    +0.020 C 
ATOM     24  C   LIG    1        4.440  -3.744  -3.582  0.00  0.00    -0.020 C 
ATOM     25  C   LIG    1        5.297  -2.520  -3.251  0.00  0.00    +0.020 C 
ATOM     26  C   LIG    1        5.332  -4.858  -4.132  0.00  0.00    +0.030 C 
ATOM     27  C   LIG    1        4.396  -1.395  -2.733  0.00  0.00    +0.280 C 
ENDBRANCH  18  21
ENDBRANCH   6  18
TORSDOF 3
