REMARK  Name = ZINCrH00000tj1iE.0
REMARK                            x       y       z     vdW  Elec       q    Type
REMARK                         _______ _______ _______ _____ _____    ______ ____
ROOT
ATOM      1  C   LIG    1       -5.193   4.398  -1.302  0.00  0.00    +0.270 C 
ATOM      2  C   LIG    1       -5.669   3.038  -0.868  0.00  0.00    -0.010 C 
ATOM      3  C   LIG    1       -5.343   1.744  -1.587  0.00  0.00    +0.030 C 
ATOM      4  C   LIG    1       -5.487   0.631  -0.530  0.00  0.00    +0.040 C 
ATOM      5  C   LIG    1       -4.653   0.902   0.715  0.00  0.00    +0.190 C 
ATOM      6  N   LIG    1       -4.895   2.249   1.283  0.00  0.00    -0.450 N 
ATOM      7  C   LIG    1       -4.583   3.211   0.240  0.00  0.00    +0.140 C 
ATOM      8  C   LIG    1       -5.004   4.646   0.223  0.00  0.00    -0.070 C 
ATOM      9  C   LIG    1       -6.304   4.942   0.973  0.00  0.00    +0.070 C 
ATOM     10  C   LIG    1       -3.875   5.622   0.561  0.00  0.00    +0.040 C 
ENDROOT
BRANCH   6  11
ATOM     11  C   LIG    1       -4.117   2.462   2.400  0.00  0.00    +0.390 A 
ATOM     12  N   LIG    1       -2.796   2.538   2.307  0.00  0.00    -0.560 NA
ATOM     13  C   LIG    1       -2.038   2.741   3.372  0.00  0.00    +0.500 A 
ATOM     14  N   LIG    1       -2.528   2.881   4.581  0.00  0.00    -0.510 NA
ATOM     15  C   LIG    1       -3.852   2.821   4.790  0.00  0.00    +0.160 A 
ATOM     16  C   LIG    1       -4.409   2.965   6.067  0.00  0.00    +0.030 A 
ATOM     17  C   LIG    1       -5.762   2.896   6.223  0.00  0.00    -0.040 A 
ATOM     18  C   LIG    1       -6.599   2.683   5.132  0.00  0.00    -0.090 A 
ATOM     19  C   LIG    1       -6.089   2.533   3.876  0.00  0.00    +0.080 A 
ATOM     20  C   LIG    1       -8.090   2.611   5.342  0.00  0.00    +0.090 C 
ATOM     21  C   LIG    1       -6.359   3.051   7.597  0.00  0.00    +0.110 C 
ATOM     22  C   LIG    1       -4.706   2.605   3.681  0.00  0.00    -0.140 A 
ENDBRANCH   6  11
BRANCH   1  24
ATOM     23  C   LIG    1       -6.249   5.405  -3.253  0.00  0.00    +0.510 C 
ATOM     24  N   LIG    1       -6.233   5.226  -1.918  0.00  0.00    -0.720 N 
ATOM     25  H   LIG    1       -6.909   5.646  -1.364  0.00  0.00    +0.400 HD
ATOM     26  O   LIG    1       -5.403   4.879  -3.946  0.00  0.00    -0.540 OA
BRANCH  23  28
ATOM     27  C   LIG    1       -7.110   6.295  -5.402  0.00  0.00    +0.040 C 
ATOM     28  C   LIG    1       -7.319   6.257  -3.887  0.00  0.00    +0.030 C 
ENDBRANCH  23  28
ENDBRANCH   1  24
TORSDOF 3
