REMARK  Name = ZINCb70000002vXa.0
REMARK                            x       y       z     vdW  Elec       q    Type
REMARK                         _______ _______ _______ _____ _____    ______ ____
ROOT
ATOM      1  C   LIG    1       -0.864   3.225   1.307  0.00  0.00    +0.060 C 
ATOM      2  C   LIG    1       -0.833   1.702   1.150  0.00  0.00    +0.050 C 
ATOM      3  C   LIG    1       -0.387   1.352  -0.272  0.00  0.00    +0.220 C 
ATOM      4  O   LIG    1       -1.274   1.960  -1.212  0.00  0.00    -0.360 OA
ATOM      5  C   LIG    1       -1.309   3.387  -1.144  0.00  0.00    +0.210 C 
ATOM      6  C   LIG    1       -1.793   3.819   0.243  0.00  0.00    +0.050 C 
ENDROOT
BRANCH   1   8
ATOM      7  C   LIG    1        1.357   3.270   2.210  0.00  0.00    +0.330 C 
ATOM      8  N   LIG    1        0.490   3.766   1.134  0.00  0.00    -0.510 N 
ATOM      9  H   LIG    1        0.457   4.774   1.167  0.00  0.00    +0.430 HD
ATOM     10  H   LIG    1        0.859   3.471   0.242  0.00  0.00    +0.420 HD
ENDBRANCH   1   8
BRANCH   1  11
ATOM     11  C   LIG    1       -1.385   3.586   2.699  0.00  0.00    +0.080 C 
BRANCH  11  12
ATOM     12  C   LIG    1       -1.304   5.101   2.898  0.00  0.00    +0.160 C 
BRANCH  12  13
ATOM     13  O   LIG    1       -1.741   5.433   4.217  0.00  0.00    -0.560 OA
ATOM     14  H   LIG    1       -1.716   6.379   4.414  0.00  0.00    +0.400 HD
ENDBRANCH  12  13
ENDBRANCH  11  12
ENDBRANCH   1  11
TORSDOF 4
