REMARK  Name = ZINCpk00000xZJgv.0
REMARK                            x       y       z     vdW  Elec       q    Type
REMARK                         _______ _______ _______ _____ _____    ______ ____
ROOT
ATOM      1  C   LIG    1       -2.131   0.034  -1.578  0.00  0.00    +0.170 C 
ATOM      2  C   LIG    1       -0.846  -0.712  -1.996  0.00  0.00    +0.010 C 
ATOM      3  C   LIG    1       -1.105  -1.036  -3.494  0.00  0.00    +0.020 C 
ATOM      4  C   LIG    1       -1.890   0.216  -3.956  0.00  0.00    +0.180 C 
ATOM      5  N   LIG    1       -2.747   0.572  -2.805  0.00  0.00    -0.490 NA
ENDROOT
BRANCH   1  12
ATOM      6  C   LIG    1       -1.432  -0.535   2.827  0.00  0.00    +0.100 C 
ATOM      7  C   LIG    1       -2.011  -0.142   1.493  0.00  0.00    +0.530 C 
ATOM      8  N   LIG    1       -1.301   0.637   0.653  0.00  0.00    -0.610 N 
ATOM      9  C   LIG    1        0.087   1.086   0.865  0.00  0.00    +0.250 C 
ATOM     10  C   LIG    1        0.221   2.383   0.020  0.00  0.00    +0.040 C 
ATOM     11  C   LIG    1       -0.639   2.028  -1.222  0.00  0.00    +0.030 C 
ATOM     12  C   LIG    1       -1.782   1.179  -0.626  0.00  0.00    +0.200 C 
ATOM     13  O   LIG    1       -3.117  -0.526   1.175  0.00  0.00    -0.540 OA
ENDBRANCH   1  12
BRANCH   5  14
ATOM     14  C   LIG    1       -2.924   2.027  -2.711  0.00  0.00    +0.200 C 
BRANCH  14  15
ATOM     15  C   LIG    1       -3.851   2.492  -3.804  0.00  0.00    +0.510 C 
ATOM     16  N   LIG    1       -4.161   3.799  -3.914  0.00  0.00    -0.650 N 
ATOM     17  H   LIG    1       -3.828   4.434  -3.260  0.00  0.00    +0.400 HD
ATOM     18  O   LIG    1       -4.318   1.690  -4.585  0.00  0.00    -0.500 OA
BRANCH  16  19
ATOM     19  C   LIG    1       -4.969   4.244  -4.978  0.00  0.00    -0.000 A 
ATOM     20  C   LIG    1       -5.940   5.190  -4.903  0.00  0.00    +0.060 A 
ATOM     21  N   LIG    1       -6.477   5.324  -6.144  0.00  0.00    -0.370 N 
ATOM     22  N   LIG    1       -5.814   4.434  -6.998  0.00  0.00    -0.290 NA
ATOM     23  C   LIG    1       -7.558   6.237  -6.521  0.00  0.00    +0.370 C 
ATOM     24  C   LIG    1       -6.348   5.951  -3.669  0.00  0.00    +0.140 C 
ATOM     25  C   LIG    1       -4.909   3.793  -6.305  0.00  0.00    +0.090 A 
ATOM     26  C   LIG    1       -3.966   2.746  -6.839  0.00  0.00    +0.160 C 
ENDBRANCH  16  19
ENDBRANCH  14  15
ENDBRANCH   5  14
TORSDOF 4
