REMARK  Name = ZINCqH0000006ZO7.0
REMARK                            x       y       z     vdW  Elec       q    Type
REMARK                         _______ _______ _______ _____ _____    ______ ____
ROOT
ATOM      1  S   LIG    1       -5.240  -4.388   0.063  0.00  0.00    +0.150 S 
ENDROOT
BRANCH   1   5
ATOM      2  C   LIG    1       -8.884  -5.718   0.097  0.00  0.00    +0.220 A 
ATOM      3  N   LIG    1       -9.025  -4.536   0.646  0.00  0.00    -0.270 NA
ATOM      4  N   LIG    1       -7.879  -3.955   0.708  0.00  0.00    -0.290 NA
ATOM      5  C   LIG    1       -6.960  -4.744   0.200  0.00  0.00    +0.120 A 
ATOM      6  O   LIG    1       -7.575  -5.872  -0.202  0.00  0.00    -0.200 OA
BRANCH   2  10
ATOM      7  C   LIG    1      -11.978  -8.539  -0.625  0.00  0.00    +0.160 A 
ATOM      8  C   LIG    1      -12.277  -7.320  -0.031  0.00  0.00    +0.000 A 
ATOM      9  C   LIG    1      -11.277  -6.402   0.205  0.00  0.00    +0.130 A 
ATOM     10  C   LIG    1       -9.960  -6.699  -0.154  0.00  0.00    -0.070 A 
ATOM     11  C   LIG    1       -9.664  -7.924  -0.755  0.00  0.00    +0.100 A 
ATOM     12  C   LIG    1      -10.670  -8.839  -0.983  0.00  0.00    -0.070 A 
BRANCH   7  14
ATOM     13  C   LIG    1      -12.590 -10.675  -1.469  0.00  0.00    +0.250 C 
ATOM     14  O   LIG    1      -12.967  -9.441  -0.855  0.00  0.00    -0.310 OA
ENDBRANCH   7  14
ENDBRANCH   2  10
ENDBRANCH   1   5
BRANCH   1  15
ATOM     15  C   LIG    1       -5.202  -2.732   0.793  0.00  0.00    +0.090 C 
BRANCH  15  16
ATOM     16  C   LIG    1       -3.789  -2.210   0.782  0.00  0.00    +0.540 C 
ATOM     17  N   LIG    1       -3.518  -0.987   1.280  0.00  0.00    -0.720 N 
ATOM     18  H   LIG    1       -4.233  -0.443   1.645  0.00  0.00    +0.400 HD
ATOM     19  O   LIG    1       -2.895  -2.891   0.326  0.00  0.00    -0.520 OA
BRANCH  17  20
ATOM     20  C   LIG    1       -2.143  -0.480   1.269  0.00  0.00    +0.250 C 
ATOM     21  C   LIG    1       -1.403  -0.987   2.509  0.00  0.00    +0.000 C 
ATOM     22  C   LIG    1        0.032  -0.457   2.498  0.00  0.00    +0.020 C 
ATOM     23  C   LIG    1        0.011   1.072   2.506  0.00  0.00    +0.010 C 
ATOM     24  C   LIG    1       -0.729   1.579   1.267  0.00  0.00    +0.000 C 
ATOM     25  C   LIG    1       -0.013   1.086   0.008  0.00  0.00    +0.020 C 
ATOM     26  C   LIG    1       -2.164   1.050   1.278  0.00  0.00    -0.010 C 
ATOM     27  C   LIG    1       -2.904   1.556   0.038  0.00  0.00    +0.020 C 
ENDBRANCH  17  20
ENDBRANCH  15  16
ENDBRANCH   1  15
TORSDOF 6
