REMARK  Name = ZINCpe00000FUl80.2
REMARK                            x       y       z     vdW  Elec       q    Type
REMARK                         _______ _______ _______ _____ _____    ______ ____
ROOT
ATOM      1  C   LIG    1       -7.127   1.504   0.323  0.00  0.00    +0.500 C 
ATOM      2  O   LIG    1       -6.603   2.352  -0.372  0.00  0.00    -0.550 OA
ENDROOT
BRANCH   1   3
ATOM      3  N   LIG    1       -8.409   1.203   0.151  0.00  0.00    -0.680 NA
ATOM      4  C   LIG    1       -9.122   1.831  -0.784  0.00  0.00    +0.480 A 
ATOM      5  C   LIG    1       -8.653   2.830  -1.661  0.00  0.00    -0.110 A 
ATOM      6  C   LIG    1       -9.678   3.210  -2.456  0.00  0.00    +0.350 A 
ATOM      7  N   LIG    1      -10.787   2.491  -2.120  0.00  0.00    -0.480 N 
ATOM      8  H   LIG    1      -11.661   2.568  -2.535  0.00  0.00    +0.450 HD
ATOM      9  N   LIG    1      -10.447   1.620  -1.076  0.00  0.00    -0.370 N 
BRANCH   9  10
ATOM     10  C   LIG    1      -11.340   0.664  -0.418  0.00  0.00    +0.330 C 
ATOM     11  C   LIG    1      -12.514   1.414   0.214  0.00  0.00    +0.040 C 
BRANCH  10  12
ATOM     12  C   LIG    1      -11.869  -0.334  -1.450  0.00  0.00    -0.070 C 
ATOM     13  C   LIG    1      -13.355  -0.262  -1.805  0.00  0.00    +0.010 C 
ATOM     14  C   LIG    1      -12.826  -1.421  -0.956  0.00  0.00    +0.040 C 
ENDBRANCH  10  12
ENDBRANCH   9  10
ENDBRANCH   1   3
BRANCH   1  15
ATOM     15  C   LIG    1       -6.321   0.794   1.381  0.00  0.00    +0.220 C 
BRANCH  15  19
ATOM     16  N   LIG    1       -2.107   1.071   1.277  0.00  0.00    -0.530 NA
ATOM     17  C   LIG    1       -2.858   1.562   0.114  0.00  0.00    +0.200 C 
ATOM     18  C   LIG    1       -4.260   0.948   0.119  0.00  0.00    +0.190 C 
ATOM     19  N   LIG    1       -4.943   1.302   1.371  0.00  0.00    -0.530 NA
ATOM     20  C   LIG    1       -4.192   0.812   2.534  0.00  0.00    +0.190 C 
ATOM     21  C   LIG    1       -2.790   1.426   2.529  0.00  0.00    +0.130 C 
ATOM     22  C   LIG    1       -1.991   0.885   3.717  0.00  0.00    +0.030 C 
BRANCH  16  23
ATOM     23  C   LIG    1       -0.729   1.579   1.267  0.00  0.00    +0.180 C 
BRANCH  23  24
ATOM     24  C   LIG    1        0.075   0.852   0.187  0.00  0.00    +0.180 C 
BRANCH  24  26
ATOM     25  C   LIG    1        0.266   0.592  -2.188  0.00  0.00    +0.190 C 
ATOM     26  O   LIG    1       -0.420   1.219  -1.103  0.00  0.00    -0.390 OA
ENDBRANCH  24  26
ENDBRANCH  23  24
ENDBRANCH  16  23
ENDBRANCH  15  19
ENDBRANCH   1  15
TORSDOF 8
