REMARK  Name = ZINCAx0000000jhU.0
REMARK                            x       y       z     vdW  Elec       q    Type
REMARK                         _______ _______ _______ _____ _____    ______ ____
ROOT
ATOM      1  C   LIG    1        1.159   2.997  -0.133  0.00  0.00    +0.350 C 
ATOM      2  C   LIG    1        0.997   3.897  -1.335  0.00  0.00    -0.230 C 
ATOM      3  C   LIG    1       -0.065   4.699  -1.080  0.00  0.00    +0.110 C 
ATOM      4  C   LIG    1       -0.617   4.368   0.250  0.00  0.00    +0.520 C 
ATOM      5  O   LIG    1       -1.573   4.913   0.764  0.00  0.00    -0.510 OA
ATOM      6  N   LIG    1        0.096   3.372   0.808  0.00  0.00    -0.590 N 
ENDROOT
BRANCH   1  11
ATOM      7  C   LIG    1        1.970  -0.591  -0.998  0.00  0.00    +0.130 A 
ATOM      8  C   LIG    1        0.712  -1.094  -1.292  0.00  0.00    -0.070 A 
ATOM      9  C   LIG    1       -0.396  -0.272  -1.210  0.00  0.00    +0.050 A 
ATOM     10  C   LIG    1       -0.250   1.050  -0.835  0.00  0.00    -0.010 A 
ATOM     11  C   LIG    1        1.004   1.554  -0.540  0.00  0.00    -0.060 A 
ATOM     12  C   LIG    1        2.114   0.737  -0.621  0.00  0.00    +0.000 A 
BRANCH   7  14
ATOM     13  C   LIG    1        2.839  -2.752  -1.473  0.00  0.00    +0.250 C 
ATOM     14  O   LIG    1        3.062  -1.397  -1.078  0.00  0.00    -0.320 OA
ENDBRANCH   7  14
ENDBRANCH   1  11
BRANCH   3  15
ATOM     15  O   LIG    1       -0.543   5.654  -1.912  0.00  0.00    -0.430 OA
ATOM     16  H   LIG    1       -1.309   6.131  -1.564  0.00  0.00    +0.410 HD
ENDBRANCH   3  15
BRANCH   2  17
ATOM     17  C   LIG    1        1.828   3.901  -2.543  0.00  0.00    +0.480 C 
ATOM     18  O   LIG    1        1.339   3.608  -3.619  0.00  0.00    -0.420 OA
BRANCH  17  19
ATOM     19  C   LIG    1        3.257   4.260  -2.454  0.00  0.00    -0.160 A 
ATOM     20  C   LIG    1        3.793   4.709  -1.244  0.00  0.00    +0.080 A 
ATOM     21  C   LIG    1        5.126   5.044  -1.165  0.00  0.00    +0.020 A 
ATOM     22  C   LIG    1        5.944   4.936  -2.284  0.00  0.00    +0.090 A 
ATOM     23  O   LIG    1        7.256   5.276  -2.184  0.00  0.00    -0.300 OA
ATOM     24  C   LIG    1        8.126   4.803  -3.218  0.00  0.00    +0.230 C 
ATOM     25  C   LIG    1        7.453   5.071  -4.571  0.00  0.00    +0.230 C 
ATOM     26  O   LIG    1        6.204   4.372  -4.597  0.00  0.00    -0.300 OA
ATOM     27  C   LIG    1        5.416   4.487  -3.494  0.00  0.00    +0.040 A 
ATOM     28  C   LIG    1        4.079   4.146  -3.579  0.00  0.00    +0.100 A 
ENDBRANCH  17  19
ENDBRANCH   2  17
BRANCH   6  29
ATOM     29  C   LIG    1       -0.145   2.770   2.121  0.00  0.00    +0.320 C 
BRANCH  29  30
ATOM     30  C   LIG    1        0.650   3.530   3.185  0.00  0.00    +0.010 C 
BRANCH  30  31
ATOM     31  C   LIG    1        0.398   2.901   4.556  0.00  0.00    +0.180 C 
BRANCH  31  32
ATOM     32  N   LIG    1        1.161   3.631   5.577  0.00  0.00    -0.540 NA
ATOM     33  C   LIG    1        2.607   3.456   5.380  0.00  0.00    +0.140 C 
ATOM     34  C   LIG    1        3.363   4.279   6.426  0.00  0.00    +0.220 C 
ATOM     35  O   LIG    1        2.943   3.880   7.734  0.00  0.00    -0.390 OA
ATOM     36  C   LIG    1        1.540   4.039   7.961  0.00  0.00    +0.220 C 
ATOM     37  C   LIG    1        0.765   3.213   6.930  0.00  0.00    +0.150 C 
ENDBRANCH  31  32
ENDBRANCH  30  31
ENDBRANCH  29  30
ENDBRANCH   6  29
TORSDOF 9
