REMARK  Name = ZINCrD0000073mp6.0
REMARK                            x       y       z     vdW  Elec       q    Type
REMARK                         _______ _______ _______ _____ _____    ______ ____
ROOT
ATOM      1  C   LIG    1        3.459   2.884   0.645  0.00  0.00    +0.550 C 
ATOM      2  N   LIG    1        3.581   1.751  -0.074  0.00  0.00    -0.670 N 
ATOM      3  H   LIG    1        2.808   1.377  -0.525  0.00  0.00    +0.410 HD
ATOM      4  O   LIG    1        4.405   3.302   1.287  0.00  0.00    -0.520 OA
ENDROOT
BRANCH   2   5
ATOM      5  C   LIG    1        4.817   1.115  -0.169  0.00  0.00    +0.190 A 
ATOM      6  C   LIG    1        4.879  -0.273  -0.252  0.00  0.00    -0.040 A 
ATOM      7  C   LIG    1        6.098  -0.903  -0.351  0.00  0.00    +0.140 A 
ATOM      8  C   LIG    1        7.276  -0.149  -0.356  0.00  0.00    -0.180 A 
ATOM      9  C   LIG    1        7.210   1.246  -0.267  0.00  0.00    +0.110 A 
ATOM     10  C   LIG    1        5.987   1.870  -0.174  0.00  0.00    +0.000 A 
BRANCH   8  11
ATOM     11  C   LIG    1        8.585  -0.822  -0.455  0.00  0.00    +0.490 C 
ATOM     12  O   LIG    1        9.610  -0.175  -0.351  0.00  0.00    -0.460 OA
BRANCH  11  13
ATOM     13  C   LIG    1        8.650  -2.276  -0.679  0.00  0.00    +0.120 A 
ATOM     14  N   LIG    1        7.623  -3.100  -0.699  0.00  0.00    -0.440 NA
ATOM     15  C   LIG    1        8.061  -4.335  -0.930  0.00  0.00    +0.150 A 
ATOM     16  C   LIG    1        9.412  -4.293  -1.053  0.00  0.00    +0.170 A 
ATOM     17  N   LIG    1        9.787  -3.002  -0.896  0.00  0.00    -0.420 N 
ATOM     18  C   LIG    1       11.156  -2.482  -0.950  0.00  0.00    +0.340 C 
ENDBRANCH  11  13
ENDBRANCH   8  11
ENDBRANCH   2   5
BRANCH   1  20
ATOM     19  C   LIG    1        2.070   4.748   1.373  0.00  0.00    +0.150 C 
ATOM     20  C   LIG    1        2.192   3.612   0.653  0.00  0.00    -0.100 C 
BRANCH  19  24
ATOM     21  C   LIG    1       -1.613   6.851   1.410  0.00  0.00    +0.150 A 
ATOM     22  C   LIG    1       -0.535   7.330   2.145  0.00  0.00    -0.020 A 
ATOM     23  C   LIG    1        0.663   6.651   2.136  0.00  0.00    +0.090 A 
ATOM     24  C   LIG    1        0.793   5.477   1.386  0.00  0.00    -0.130 A 
ATOM     25  C   LIG    1       -0.294   5.002   0.643  0.00  0.00    +0.080 A 
ATOM     26  C   LIG    1       -1.489   5.685   0.663  0.00  0.00    -0.080 A 
BRANCH  21  28
ATOM     27  C   LIG    1       -3.860   6.976   0.644  0.00  0.00    +0.240 C 
ATOM     28  O   LIG    1       -2.792   7.524   1.421  0.00  0.00    -0.310 OA
ENDBRANCH  21  28
ENDBRANCH  19  24
ENDBRANCH   1  20
TORSDOF 6
