REMARK  Name = ZINCAx0000000aui.0
REMARK                            x       y       z     vdW  Elec       q    Type
REMARK                         _______ _______ _______ _____ _____    ______ ____
ROOT
ATOM      1  N   LIG    1        3.351   5.277  -0.822  0.00  0.00    -0.620 N 
ATOM      2  H   LIG    1        2.663   5.887  -1.129  0.00  0.00    +0.420 HD
ATOM      3  C   LIG    1        3.167   3.946  -0.926  0.00  0.00    +0.470 C 
ATOM      4  O   LIG    1        4.027   3.182  -0.542  0.00  0.00    -0.500 OA
ENDROOT
BRANCH   1   6
ATOM      5  C   LIG    1        4.814   7.111  -0.127  0.00  0.00    -0.210 A 
ATOM      6  C   LIG    1        4.520   5.771  -0.276  0.00  0.00    +0.030 A 
ATOM      7  S   LIG    1        5.807   4.812   0.301  0.00  0.00    +0.390 S 
ATOM      8  C   LIG    1        6.740   6.230   0.751  0.00  0.00    -0.350 A 
ATOM      9  C   LIG    1        6.053   7.351   0.452  0.00  0.00    +0.050 A 
ATOM     10  C   LIG    1        6.584   8.737   0.716  0.00  0.00    +0.130 C 
BRANCH   8  11
ATOM     11  C   LIG    1        8.071   6.200   1.361  0.00  0.00    +0.600 C 
ATOM     12  N   LIG    1        8.646   5.019   1.665  0.00  0.00    -0.610 N 
ATOM     13  O   LIG    1        8.658   7.240   1.595  0.00  0.00    -0.520 OA
BRANCH  12  14
ATOM     14  C   LIG    1        7.894   3.773   1.498  0.00  0.00    +0.270 C 
ATOM     15  C   LIG    1        8.012   3.297   0.049  0.00  0.00    +0.030 C 
ENDBRANCH  12  14
BRANCH  12  16
ATOM     16  C   LIG    1       10.023   4.982   2.163  0.00  0.00    +0.280 C 
ATOM     17  C   LIG    1       10.012   4.958   3.693  0.00  0.00    +0.020 C 
ENDBRANCH  12  16
ENDBRANCH   8  11
BRANCH   5  18
ATOM     18  C   LIG    1        3.900   8.182  -0.538  0.00  0.00    +0.540 C 
ATOM     19  O   LIG    1        3.080   8.617   0.247  0.00  0.00    -0.490 OA
BRANCH  18  20
ATOM     20  O   LIG    1        3.970   8.685  -1.788  0.00  0.00    -0.350 OA
BRANCH  20  22
ATOM     21  C   LIG    1        3.263  10.183  -3.573  0.00  0.00    +0.070 C 
ATOM     22  C   LIG    1        3.034   9.743  -2.125  0.00  0.00    +0.200 C 
ENDBRANCH  20  22
ENDBRANCH  18  20
ENDBRANCH   5  18
ENDBRANCH   1   6
BRANCH   3  23
ATOM     23  C   LIG    1        1.891   3.406  -1.521  0.00  0.00    +0.280 C 
BRANCH  23  24
ATOM     24  N   LIG    1        1.897   1.939  -1.444  0.00  0.00    -0.510 NA
ATOM     25  C   LIG    1        1.896   1.486  -0.046  0.00  0.00    +0.190 C 
ATOM     26  C   LIG    1        1.720  -0.036  -0.006  0.00  0.00    +0.300 C 
ATOM     27  N   LIG    1        2.751  -0.648  -0.858  0.00  0.00    -0.990 NA
ATOM     28  C   LIG    1        2.904  -0.149  -2.233  0.00  0.00    +0.300 C 
ATOM     29  C   LIG    1        3.034   1.377  -2.185  0.00  0.00    +0.190 C 
BRANCH  27  30
ATOM     30  S   LIG    1        3.713  -1.867  -0.283  0.00  0.00    +2.720 S 
ATOM     31  O   LIG    1        3.722  -1.738   1.132  0.00  0.00    -0.950 OA
ATOM     32  O   LIG    1        4.895  -1.851  -1.073  0.00  0.00    -0.950 OA
BRANCH  30  33
ATOM     33  C   LIG    1        2.898  -3.388  -0.640  0.00  0.00    -0.800 A 
ATOM     34  C   LIG    1        3.050  -4.098  -1.759  0.00  0.00    +0.160 A 
ATOM     35  C   LIG    1        2.307  -5.264  -1.815  0.00  0.00    -0.010 A 
ATOM     36  C   LIG    1        1.545  -5.497  -0.745  0.00  0.00    +0.010 A 
ATOM     37  S   LIG    1        1.754  -4.198   0.422  0.00  0.00    +0.220 S 
ENDBRANCH  30  33
ENDBRANCH  27  30
ENDBRANCH  23  24
ENDBRANCH   3  23
TORSDOF 11
