REMARK  Name = ZINCrg00000SjSAz.0
REMARK                            x       y       z     vdW  Elec       q    Type
REMARK                         _______ _______ _______ _____ _____    ______ ____
ROOT
ATOM      1  N   LIG    1       -1.883  -6.421  -2.712  0.00  0.00    -1.000 NA
ATOM      2  C   LIG    1       -2.951  -6.149  -1.741  0.00  0.00    +0.300 C 
ATOM      3  C   LIG    1       -3.426  -4.702  -1.927  0.00  0.00    +0.290 C 
ATOM      4  N   LIG    1       -2.249  -3.822  -1.952  0.00  0.00    -0.610 N 
ATOM      5  C   LIG    1       -1.184  -4.091  -2.927  0.00  0.00    +0.260 C 
ATOM      6  C   LIG    1       -2.152  -2.783  -1.099  0.00  0.00    +0.520 C 
ATOM      7  O   LIG    1       -2.993  -2.622  -0.240  0.00  0.00    -0.520 OA
ATOM      8  C   LIG    1       -0.707  -5.541  -2.737  0.00  0.00    +0.300 C 
ENDROOT
BRANCH   1   9
ATOM      9  S   LIG    1       -2.003  -7.697  -3.761  0.00  0.00    +2.690 S 
ATOM     10  O   LIG    1       -2.893  -8.628  -3.160  0.00  0.00    -0.950 OA
ATOM     11  O   LIG    1       -0.675  -8.028  -4.145  0.00  0.00    -0.950 OA
BRANCH   9  16
ATOM     12  C   LIG    1       -4.758  -5.672  -8.732  0.00  0.00    +0.100 C 
ATOM     13  C   LIG    1       -4.070  -6.178  -7.491  0.00  0.00    -0.030 A 
ATOM     14  C   LIG    1       -2.692  -6.122  -7.392  0.00  0.00    -0.010 A 
ATOM     15  C   LIG    1       -2.061  -6.586  -6.253  0.00  0.00    +0.120 A 
ATOM     16  C   LIG    1       -2.807  -7.106  -5.213  0.00  0.00    -0.680 A 
ATOM     17  C   LIG    1       -4.185  -7.166  -5.313  0.00  0.00    +0.120 A 
ATOM     18  C   LIG    1       -4.816  -6.698  -6.450  0.00  0.00    -0.110 A 
ATOM     19  C   LIG    1       -6.318  -6.759  -6.557  0.00  0.00    +0.100 C 
ENDBRANCH   9  16
ENDBRANCH   1   9
BRANCH   6  20
ATOM     20  C   LIG    1       -0.998  -1.820  -1.212  0.00  0.00    -0.010 C 
ATOM     21  C   LIG    1       -1.403  -0.467  -0.625  0.00  0.00    +0.050 C 
BRANCH  20  22
ATOM     22  C   LIG    1        0.203  -2.371  -0.442  0.00  0.00    +0.340 C 
BRANCH  22  23
ATOM     23  N   LIG    1        1.360  -1.496  -0.650  0.00  0.00    -0.380 N 
ATOM     24  C   LIG    1        2.105  -0.905   0.300  0.00  0.00    +0.480 A 
ATOM     25  N   LIG    1        3.040  -0.207  -0.293  0.00  0.00    -0.540 NA
ATOM     26  C   LIG    1        2.925  -0.328  -1.615  0.00  0.00    +0.420 A 
ATOM     27  N   LIG    1        1.910  -1.108  -1.883  0.00  0.00    -0.320 NA
ENDBRANCH  22  23
ENDBRANCH  20  22
ENDBRANCH   6  20
TORSDOF 5
