REMARK  Name = ZINCvU00000008wL.0
REMARK                            x       y       z     vdW  Elec       q    Type
REMARK                         _______ _______ _______ _____ _____    ______ ____
ROOT
ATOM      1  C   LIG    1        3.927   2.981   0.077  0.00  0.00    -0.120 A 
ATOM      2  C   LIG    1        4.543   1.724   0.057  0.00  0.00    +0.210 A 
ATOM      3  C   LIG    1        5.915   1.631   0.134  0.00  0.00    -0.080 A 
ATOM      4  C   LIG    1        6.690   2.775   0.232  0.00  0.00    +0.170 A 
ATOM      5  C   LIG    1        6.095   4.023   0.254  0.00  0.00    -0.050 A 
ATOM      6  C   LIG    1        4.718   4.138   0.171  0.00  0.00    +0.220 A 
ENDROOT
BRANCH   1  14
ATOM      7  N   LIG    1       -0.925   0.417  -2.955  0.00  0.00    -0.580 NA
ATOM      8  H   LIG    1       -1.831   0.625  -2.676  0.00  0.00    +0.370 HD
ATOM      9  C   LIG    1        0.088   0.975  -2.352  0.00  0.00    +0.390 C 
ATOM     10  S   LIG    1        0.016   2.130  -1.011  0.00  0.00    -0.010 S 
ATOM     11  C   LIG    1        1.775   2.311  -0.877  0.00  0.00    -0.210 C 
ATOM     12  C   LIG    1        2.318   1.433  -1.917  0.00  0.00    +0.560 C 
ATOM     13  O   LIG    1        3.514   1.312  -2.108  0.00  0.00    -0.460 OA
ATOM     14  C   LIG    1        2.465   3.089  -0.005  0.00  0.00    +0.250 C 
ATOM     15  N   LIG    1        1.418   0.781  -2.634  0.00  0.00    -0.450 N 
BRANCH  15  16
ATOM     16  C   LIG    1        1.810  -0.084  -3.652  0.00  0.00    +0.210 A 
ATOM     17  N   LIG    1        1.000  -0.762  -4.404  0.00  0.00    -0.450 NA
ATOM     18  C   LIG    1        1.545  -1.536  -5.323  0.00  0.00    +0.240 A 
ATOM     19  C   LIG    1        2.879  -1.510  -5.350  0.00  0.00    -0.110 A 
ATOM     20  S   LIG    1        3.430  -0.400  -4.099  0.00  0.00    +0.240 S 
ENDBRANCH  15  16
ENDBRANCH   1  14
BRANCH   3  21
ATOM     21  N   LIG    1        6.566   0.301   0.112  0.00  0.00    +0.030 N 
ATOM     22  O   LIG    1        7.779   0.215   0.180  0.00  0.00    -0.160 OA
ATOM     23  O   LIG    1        5.888  -0.707   0.026  0.00  0.00    -0.160 OA
ENDBRANCH   3  21
BRANCH   6  24
ATOM     24  O   LIG    1        4.133   5.363   0.186  0.00  0.00    -0.290 OA
BRANCH  24  25
ATOM     25  C   LIG    1        5.001   6.495   0.284  0.00  0.00    +0.280 C 
BRANCH  25  26
ATOM     26  C   LIG    1        4.181   7.758   0.286  0.00  0.00    -0.090 A 
ATOM     27  C   LIG    1        2.803   7.689   0.196  0.00  0.00    +0.050 A 
ATOM     28  C   LIG    1        2.050   8.848   0.204  0.00  0.00    +0.020 A 
ATOM     29  C   LIG    1        2.674  10.078   0.291  0.00  0.00    +0.040 A 
ATOM     30  C   LIG    1        4.052  10.149   0.376  0.00  0.00    +0.030 A 
ATOM     31  C   LIG    1        4.806   8.990   0.374  0.00  0.00    -0.030 A 
ATOM     32 CL   LIG    1        6.537   9.079   0.480  0.00  0.00    -0.060 Cl
ENDBRANCH  25  26
ENDBRANCH  24  25
ENDBRANCH   6  24
TORSDOF 6
