REMARK  Name = ZINCpe000000WqXP.1
REMARK                            x       y       z     vdW  Elec       q    Type
REMARK                         _______ _______ _______ _____ _____    ______ ____
ROOT
ATOM      1  N   LIG    1        1.242  -2.085  -0.021  0.00  0.00    -0.560 N 
ATOM      2  C   LIG    1        1.266  -2.920   1.185  0.00  0.00    +0.310 C 
ATOM      3  C   LIG    1        1.720  -4.318   0.710  0.00  0.00    +0.000 C 
ATOM      4  C   LIG    1        1.281  -4.305  -0.772  0.00  0.00    +0.080 C 
ATOM      5  C   LIG    1        1.238  -2.837  -1.135  0.00  0.00    +0.530 C 
ATOM      6  O   LIG    1        1.207  -2.402  -2.267  0.00  0.00    -0.520 OA
ENDROOT
BRANCH   3   7
ATOM      7  C   LIG    1        1.009  -5.404   1.474  0.00  0.00    +0.530 C 
ATOM      8  N   LIG    1        1.269  -6.699   1.204  0.00  0.00    -0.610 N 
ATOM      9  C   LIG    1        2.239  -7.073   0.164  0.00  0.00    +0.270 C 
ATOM     10  C   LIG    1        1.585  -8.082  -0.778  0.00  0.00    +0.170 C 
ATOM     11  N   LIG    1        1.048  -9.204   0.004  0.00  0.00    -0.680 NA
ATOM     12  H   LIG    1        0.714  -9.939  -0.601  0.00  0.00    +0.350 HD
ATOM     13  C   LIG    1       -0.008  -8.757   0.922  0.00  0.00    +0.110 C 
ATOM     14  C   LIG    1       -0.590  -9.964   1.659  0.00  0.00    +0.050 C 
ATOM     15  C   LIG    1        0.586  -7.775   1.938  0.00  0.00    +0.300 C 
ATOM     16  O   LIG    1        0.202  -5.114   2.332  0.00  0.00    -0.530 OA
ENDBRANCH   3   7
BRANCH   1  20
ATOM     17  C   LIG    1        1.175   2.090   0.002  0.00  0.00    +0.180 A 
ATOM     18  C   LIG    1        2.386   1.413  -0.014  0.00  0.00    -0.100 A 
ATOM     19  C   LIG    1        2.408   0.031  -0.021  0.00  0.00    +0.110 A 
ATOM     20  C   LIG    1        1.219  -0.682  -0.013  0.00  0.00    +0.070 A 
ATOM     21  C   LIG    1        0.002  -0.004   0.002  0.00  0.00    +0.180 A 
ATOM     22  C   LIG    1       -0.017   1.381   0.010  0.00  0.00    -0.100 A 
BRANCH  17  24
ATOM     23  C   LIG    1        2.421   4.115   0.001  0.00  0.00    +0.250 C 
ATOM     24  O   LIG    1        1.157   3.449   0.009  0.00  0.00    -0.310 OA
ENDBRANCH  17  24
BRANCH  21  25
ATOM     25  O   LIG    1       -1.165  -0.701   0.010  0.00  0.00    -0.300 OA
ATOM     26  C   LIG    1       -2.375   0.060   0.026  0.00  0.00    +0.240 C 
ENDBRANCH  21  25
ENDBRANCH   1  20
TORSDOF 4
