REMARK  Name = ZINCvU0000000EqH.0
REMARK                            x       y       z     vdW  Elec       q    Type
REMARK                         _______ _______ _______ _____ _____    ______ ____
ROOT
ATOM      1  N   LIG    1       -3.096   3.560   4.955  0.00  0.00    -0.680 N 
ATOM      2  H   LIG    1       -3.938   4.033   4.867  0.00  0.00    +0.410 HD
ATOM      3  C   LIG    1       -2.549   3.380   6.174  0.00  0.00    +0.720 C 
ATOM      4  N   LIG    1       -3.132   3.922   7.261  0.00  0.00    -0.630 N 
ATOM      5  C   LIG    1       -4.362   4.729   7.261  0.00  0.00    +0.230 C 
ATOM      6  C   LIG    1       -4.631   5.152   8.721  0.00  0.00    +0.040 C 
ATOM      7  C   LIG    1       -3.232   5.036   9.381  0.00  0.00    -0.010 C 
ATOM      8  C   LIG    1       -2.647   3.800   8.648  0.00  0.00    +0.280 C 
ATOM      9  O   LIG    1       -1.530   2.728   6.293  0.00  0.00    -0.570 OA
ENDROOT
BRANCH   1  13
ATOM     10  C   LIG    1       -1.166   2.087   1.569  0.00  0.00    -0.100 A 
ATOM     11  C   LIG    1       -1.858   3.283   1.504  0.00  0.00    +0.050 A 
ATOM     12  C   LIG    1       -2.504   3.771   2.623  0.00  0.00    -0.010 A 
ATOM     13  C   LIG    1       -2.448   3.065   3.818  0.00  0.00    +0.170 A 
ATOM     14  C   LIG    1       -1.748   1.868   3.882  0.00  0.00    +0.020 A 
ATOM     15  C   LIG    1       -1.109   1.382   2.757  0.00  0.00    +0.050 A 
BRANCH  10  16
ATOM     16  C   LIG    1       -0.467   1.555   0.345  0.00  0.00    +0.230 C 
BRANCH  16  17
ATOM     17  C   LIG    1       -1.457   1.434  -0.785  0.00  0.00    -0.080 A 
ATOM     18  C   LIG    1       -2.055   0.216  -1.052  0.00  0.00    +0.030 A 
ATOM     19  C   LIG    1       -2.966   0.106  -2.086  0.00  0.00    +0.010 A 
ATOM     20  C   LIG    1       -3.272   1.210  -2.859  0.00  0.00    +0.010 A 
ATOM     21  C   LIG    1       -2.670   2.426  -2.595  0.00  0.00    +0.000 A 
ATOM     22  C   LIG    1       -1.762   2.538  -1.559  0.00  0.00    +0.010 A 
ENDBRANCH  16  17
BRANCH  16  24
ATOM     23  N   LIG    1        1.444   3.191  -0.345  0.00  0.00    -0.420 NA
ATOM     24  C   LIG    1        0.611   2.478  -0.045  0.00  0.00    +0.210 C 
ENDBRANCH  16  24
ENDBRANCH  10  16
ENDBRANCH   1  13
BRANCH   7  25
ATOM     25  C   LIG    1       -3.355   4.772  10.883  0.00  0.00    +0.090 C 
BRANCH  25  26
ATOM     26  C   LIG    1       -1.984   4.787  11.509  0.00  0.00    -0.070 A 
ATOM     27  C   LIG    1       -1.460   5.970  11.995  0.00  0.00    -0.010 A 
ATOM     28  C   LIG    1       -0.203   5.987  12.571  0.00  0.00    +0.030 A 
ATOM     29  C   LIG    1        0.532   4.821  12.663  0.00  0.00    -0.020 A 
ATOM     30  C   LIG    1        0.007   3.632  12.176  0.00  0.00    +0.110 A 
ATOM     31  C   LIG    1       -1.256   3.617  11.603  0.00  0.00    -0.010 A 
BRANCH  30  32
ATOM     32  O   LIG    1        0.728   2.483  12.266  0.00  0.00    -0.500 OA
ATOM     33  H   LIG    1        0.576   1.986  13.081  0.00  0.00    +0.390 HD
ENDBRANCH  30  32
ENDBRANCH  25  26
ENDBRANCH   7  25
TORSDOF 7
