REMARK  Name = ZINCpk00000KfLgv.0
REMARK                            x       y       z     vdW  Elec       q    Type
REMARK                         _______ _______ _______ _____ _____    ______ ____
ROOT
ATOM      1  N   LIG    1        3.896   2.978  -2.524  0.00  0.00    -0.650 N 
ATOM      2  H   LIG    1        3.395   3.004  -3.354  0.00  0.00    +0.410 HD
ATOM      3  C   LIG    1        3.272   2.668  -1.370  0.00  0.00    +0.520 C 
ATOM      4  O   LIG    1        3.899   2.635  -0.332  0.00  0.00    -0.480 OA
ENDROOT
BRANCH   1  10
ATOM      5  C   LIG    1        5.530   3.699  -4.983  0.00  0.00    +0.350 C 
ATOM      6  N   LIG    1        6.011   3.583  -3.604  0.00  0.00    -0.390 N 
ATOM      7  N   LIG    1        7.327   3.786  -3.169  0.00  0.00    -0.280 NA
ATOM      8  C   LIG    1        7.369   3.592  -1.876  0.00  0.00    +0.100 A 
ATOM      9  C   LIG    1        6.083   3.265  -1.439  0.00  0.00    -0.100 A 
ATOM     10  C   LIG    1        5.262   3.259  -2.525  0.00  0.00    +0.300 A 
BRANCH   8  11
ATOM     11  C   LIG    1        8.594   3.709  -1.006  0.00  0.00    +0.010 C 
ATOM     12  C   LIG    1        8.246   4.493   0.261  0.00  0.00    +0.040 C 
ATOM     13  C   LIG    1        9.696   4.442  -1.773  0.00  0.00    +0.040 C 
ATOM     14  C   LIG    1        9.082   2.311  -0.623  0.00  0.00    +0.040 C 
ENDBRANCH   8  11
ENDBRANCH   1  10
BRANCH   3  15
ATOM     15  C   LIG    1        1.797   2.364  -1.369  0.00  0.00    +0.220 C 
BRANCH  15  16
ATOM     16  N   LIG    1        1.360   2.059   0.000  0.00  0.00    -0.510 NA
ATOM     17  C   LIG    1        1.404   3.264   0.849  0.00  0.00    +0.190 C 
ATOM     18  C   LIG    1       -0.012   3.467   1.428  0.00  0.00    +0.010 C 
ATOM     19  C   LIG    1       -0.636   2.050   1.331  0.00  0.00    +0.040 C 
ATOM     20  C   LIG    1       -0.019   1.526   0.010  0.00  0.00    +0.130 C 
BRANCH  20  21
ATOM     21  C   LIG    1        0.002  -0.004   0.002  0.00  0.00    +0.350 C 
BRANCH  21  22
ATOM     22  N   LIG    1        0.580  -0.478  -1.258  0.00  0.00    -0.370 N 
ATOM     23  C   LIG    1        1.627  -1.309  -1.402  0.00  0.00    +0.490 A 
ATOM     24  N   LIG    1        1.830  -1.488  -2.682  0.00  0.00    -0.550 NA
ATOM     25  C   LIG    1        0.942  -0.784  -3.383  0.00  0.00    +0.410 A 
ATOM     26  N   LIG    1        0.155  -0.148  -2.555  0.00  0.00    -0.330 NA
ENDBRANCH  21  22
ENDBRANCH  20  21
ENDBRANCH  15  16
ENDBRANCH   3  15
TORSDOF 6
