REMARK  Name = ZINCpe000000Yx2q.0
REMARK                            x       y       z     vdW  Elec       q    Type
REMARK                         _______ _______ _______ _____ _____    ______ ____
ROOT
ATOM      1  C   LIG    1       -0.014   1.209   0.009  0.00  0.00    +0.510 C 
ATOM      2  N   LIG    1        1.143   1.898   0.001  0.00  0.00    -0.710 N 
ATOM      3  H   LIG    1        1.130   2.868   0.007  0.00  0.00    +0.410 HD
ATOM      4  O   LIG    1        0.002  -0.004   0.002  0.00  0.00    -0.490 OA
ENDROOT
BRANCH   2   5
ATOM      5  C   LIG    1        2.422   1.183  -0.015  0.00  0.00    +0.250 C 
ATOM      6  C   LIG    1        3.529   2.068  -0.633  0.00  0.00    +0.060 C 
ATOM      7  C   LIG    1        4.147   2.722   0.623  0.00  0.00    +0.260 C 
ATOM      8  N   LIG    1        3.869   1.794   1.725  0.00  0.00    -0.620 N 
ATOM      9  C   LIG    1        2.900   0.922   1.397  0.00  0.00    +0.500 C 
ATOM     10  O   LIG    1        2.472   0.053   2.126  0.00  0.00    -0.500 OA
BRANCH   8  11
ATOM     11  C   LIG    1        4.559   1.815   3.018  0.00  0.00    +0.250 C 
ATOM     12  C   LIG    1        5.260   0.472   3.246  0.00  0.00    -0.000 C 
ATOM     13  C   LIG    1        5.909   0.474   4.633  0.00  0.00    +0.220 C 
ATOM     14  O   LIG    1        4.912   0.725   5.625  0.00  0.00    -0.380 OA
ATOM     15  C   LIG    1        4.258   1.988   5.489  0.00  0.00    +0.220 C 
ATOM     16  C   LIG    1        3.540   2.046   4.138  0.00  0.00    -0.010 C 
ENDBRANCH   8  11
ENDBRANCH   2   5
BRANCH   1  17
ATOM     17  C   LIG    1       -1.330   1.944   0.019  0.00  0.00    +0.240 C 
BRANCH  17  18
ATOM     18  O   LIG    1       -2.403   1.001   0.019  0.00  0.00    -0.280 OA
BRANCH  18  24
ATOM     19  C   LIG    1       -4.766   0.636   0.028  0.00  0.00    -0.050 A 
ATOM     20  C   LIG    1       -6.059   1.165   0.038  0.00  0.00    +0.110 A 
ATOM     21  C   LIG    1       -6.243   2.531   0.046  0.00  0.00    -0.020 A 
ATOM     22  C   LIG    1       -5.152   3.383   0.046  0.00  0.00    +0.090 A 
ATOM     23  C   LIG    1       -3.868   2.873   0.042  0.00  0.00    -0.070 A 
ATOM     24  C   LIG    1       -3.664   1.503   0.028  0.00  0.00    +0.170 A 
BRANCH  19  26
ATOM     25  N   LIG    1       -4.410  -1.907   0.013  0.00  0.00    -0.400 NA
ATOM     26  C   LIG    1       -4.568  -0.782   0.019  0.00  0.00    +0.250 C 
ENDBRANCH  19  26
ENDBRANCH  18  24
ENDBRANCH  17  18
ENDBRANCH   1  17
TORSDOF 6
