REMARK  Name = ZINCvU00000008bJ.0
REMARK                            x       y       z     vdW  Elec       q    Type
REMARK                         _______ _______ _______ _____ _____    ______ ____
ROOT
ATOM      1  C   LIG    1       -2.339  -1.615  -3.711  0.00  0.00    +0.270 A 
ATOM      2  N   LIG    1       -1.635  -2.567  -3.183  0.00  0.00    -0.470 NA
ATOM      3  C   LIG    1       -1.226  -2.389  -1.941  0.00  0.00    +0.260 A 
ATOM      4  C   LIG    1       -1.611  -1.237  -1.389  0.00  0.00    -0.240 A 
ATOM      5  S   LIG    1       -2.549  -0.346  -2.584  0.00  0.00    +0.130 S 
ENDROOT
BRANCH   1   7
ATOM      6  C   LIG    1       -2.622  -2.681  -5.810  0.00  0.00    +0.510 C 
ATOM      7  N   LIG    1       -2.849  -1.625  -5.003  0.00  0.00    -0.640 N 
ATOM      8  H   LIG    1       -3.369  -0.872  -5.325  0.00  0.00    +0.420 HD
ATOM      9  O   LIG    1       -1.972  -3.622  -5.407  0.00  0.00    -0.440 OA
BRANCH   6  13
ATOM     10  O   LIG    1       -0.388  -0.793  -8.293  0.00  0.00    -0.520 OA
ATOM     11  C   LIG    1       -1.154  -1.732  -8.291  0.00  0.00    +0.520 C 
ATOM     12  C   LIG    1       -2.611  -1.503  -7.991  0.00  0.00    +0.090 C 
ATOM     13  C   LIG    1       -3.175  -2.691  -7.211  0.00  0.00    +0.070 C 
ATOM     14  C   LIG    1       -2.783  -3.975  -7.896  0.00  0.00    -0.110 A 
ATOM     15  C   LIG    1       -3.639  -5.058  -7.884  0.00  0.00    +0.060 A 
ATOM     16  C   LIG    1       -3.275  -6.235  -8.513  0.00  0.00    -0.010 A 
ATOM     17  C   LIG    1       -2.055  -6.329  -9.158  0.00  0.00    +0.050 A 
ATOM     18  C   LIG    1       -1.195  -5.248  -9.174  0.00  0.00    -0.020 A 
ATOM     19  C   LIG    1       -1.558  -4.066  -8.543  0.00  0.00    +0.180 A 
ATOM     20  N   LIG    1       -0.692  -2.968  -8.557  0.00  0.00    -0.660 N 
ATOM     21  H   LIG    1        0.247  -3.098  -8.761  0.00  0.00    +0.410 HD
ENDBRANCH   6  13
ENDBRANCH   1   7
BRANCH   4  22
ATOM     22  C   LIG    1       -1.292  -0.775   0.010  0.00  0.00    +0.210 C 
BRANCH  22  23
ATOM     23  C   LIG    1        0.002  -0.004   0.002  0.00  0.00    -0.080 A 
ATOM     24  C   LIG    1       -0.017   1.378   0.010  0.00  0.00    +0.100 A 
ATOM     25  C   LIG    1        1.171   2.086   0.002  0.00  0.00    -0.180 A 
ATOM     26  C   LIG    1        2.378   1.412  -0.013  0.00  0.00    +0.090 A 
ATOM     27  C   LIG    1        2.398   0.029  -0.021  0.00  0.00    +0.040 A 
ATOM     28  C   LIG    1        1.210  -0.679  -0.013  0.00  0.00    +0.000 A 
ATOM     29 CL   LIG    1        1.234  -2.415  -0.023  0.00  0.00    -0.050 Cl
BRANCH  25  30
ATOM     30  C   LIG    1        1.150   3.592   0.010  0.00  0.00    +0.510 C 
ATOM     31  F   LIG    1       -0.005   4.046  -0.637  0.00  0.00    -0.170 F 
ATOM     32  F   LIG    1        2.279   4.078  -0.658  0.00  0.00    -0.170 F 
ATOM     33  F   LIG    1        1.156   4.052   1.331  0.00  0.00    -0.170 F 
ENDBRANCH  25  30
ENDBRANCH  22  23
ENDBRANCH   4  22
TORSDOF 5
