REMARK  Name = ZINCqH0000007vl3.0
REMARK                            x       y       z     vdW  Elec       q    Type
REMARK                         _______ _______ _______ _____ _____    ______ ____
ROOT
ATOM      1  C   LIG    1        1.470   4.984  -0.104  0.00  0.00    +0.070 C 
ATOM      2  C   LIG    1        2.340   4.903  -1.361  0.00  0.00    +0.020 C 
ATOM      3  C   LIG    1        3.457   5.947  -1.273  0.00  0.00    +0.270 C 
ATOM      4  N   LIG    1        4.193   5.746  -0.017  0.00  0.00    -0.600 N 
ATOM      5  C   LIG    1        3.441   5.716   1.245  0.00  0.00    +0.280 C 
ATOM      6  C   LIG    1        5.532   5.593  -0.022  0.00  0.00    +0.560 C 
ATOM      7  O   LIG    1        6.137   5.499   1.028  0.00  0.00    -0.520 OA
ATOM      8  C   LIG    1        2.323   4.675   1.129  0.00  0.00    +0.020 C 
ENDROOT
BRANCH   1  16
ATOM      9  C   LIG    1       -3.212   5.386  -0.114  0.00  0.00    +0.100 A 
ATOM     10  C   LIG    1       -3.855   4.157  -0.233  0.00  0.00    -0.050 A 
ATOM     11  C   LIG    1       -3.128   2.991  -0.331  0.00  0.00    +0.030 A 
ATOM     12  C   LIG    1       -1.738   3.035  -0.310  0.00  0.00    +0.060 A 
ATOM     13  N   LIG    1       -0.759   2.067  -0.386  0.00  0.00    -0.590 N 
ATOM     14  H   LIG    1       -0.922   1.115  -0.475  0.00  0.00    +0.420 HD
ATOM     15  C   LIG    1        0.477   2.651  -0.325  0.00  0.00    +0.240 A 
ATOM     16  C   LIG    1        0.349   3.982  -0.203  0.00  0.00    -0.170 A 
ATOM     17  C   LIG    1       -1.086   4.275  -0.186  0.00  0.00    -0.060 A 
ATOM     18  C   LIG    1       -1.833   5.450  -0.083  0.00  0.00    +0.020 A 
BRANCH   9  20
ATOM     19  C   LIG    1       -5.368   6.389  -0.048  0.00  0.00    +0.230 C 
ATOM     20  O   LIG    1       -3.946   6.527  -0.018  0.00  0.00    -0.320 OA
ENDBRANCH   9  20
ENDBRANCH   1  16
BRANCH   6  21
ATOM     21  C   LIG    1        6.265   5.539  -1.306  0.00  0.00    -0.120 A 
ATOM     22  C   LIG    1        6.108   6.543  -2.267  0.00  0.00    +0.030 A 
ATOM     23  C   LIG    1        6.811   6.453  -3.452  0.00  0.00    +0.260 A 
ATOM     24  N   LIG    1        7.622   5.440  -3.684  0.00  0.00    -0.440 NA
ATOM     25  C   LIG    1        7.802   4.472  -2.809  0.00  0.00    +0.260 A 
ATOM     26  C   LIG    1        7.141   4.484  -1.591  0.00  0.00    +0.090 A 
ATOM     27  F   LIG    1        7.335   3.491  -0.696  0.00  0.00    -0.110 F 
ENDBRANCH   6  21
TORSDOF 3
