REMARK  Name = ZINCrD000006fiLg.0
REMARK                            x       y       z     vdW  Elec       q    Type
REMARK                         _______ _______ _______ _____ _____    ______ ____
ROOT
ATOM      1  N   LIG    1        2.581   1.189  -0.237  0.00  0.00    -0.670 N 
ATOM      2  H   LIG    1        3.375   1.742  -0.300  0.00  0.00    +0.420 HD
ATOM      3  C   LIG    1        2.693  -0.154  -0.244  0.00  0.00    +0.510 C 
ATOM      4  O   LIG    1        1.713  -0.845  -0.066  0.00  0.00    -0.510 OA
ENDROOT
BRANCH   1   7
ATOM      5  C   LIG    1       -0.088   3.565   0.650  0.00  0.00    +0.140 A 
ATOM      6  C   LIG    1        1.164   2.977   0.555  0.00  0.00    +0.030 A 
ATOM      7  C   LIG    1        1.318   1.786  -0.141  0.00  0.00    +0.160 A 
ATOM      8  C   LIG    1        0.219   1.186  -0.741  0.00  0.00    +0.050 A 
ATOM      9  C   LIG    1       -1.028   1.776  -0.650  0.00  0.00    +0.040 A 
ATOM     10  C   LIG    1       -1.186   2.960   0.047  0.00  0.00    +0.060 A 
ATOM     11  F   LIG    1       -2.407   3.532   0.137  0.00  0.00    -0.140 F 
BRANCH   5  13
ATOM     12  C   LIG    1        0.736   5.687   1.341  0.00  0.00    +0.550 C 
ATOM     13  N   LIG    1       -0.247   4.766   1.351  0.00  0.00    -0.670 N 
ATOM     14  H   LIG    1       -1.065   4.935   1.844  0.00  0.00    +0.420 HD
ATOM     15  O   LIG    1        1.719   5.521   0.644  0.00  0.00    -0.520 OA
BRANCH  12  17
ATOM     16  C   LIG    1        1.592   7.803   2.164  0.00  0.00    +0.160 C 
ATOM     17  C   LIG    1        0.622   6.894   2.174  0.00  0.00    -0.090 C 
ENDBRANCH  12  17
ENDBRANCH   5  13
ENDBRANCH   1   7
BRANCH   3  18
ATOM     18  C   LIG    1        4.037  -0.797  -0.472  0.00  0.00    +0.250 C 
ATOM     19  C   LIG    1        5.009  -0.350   0.622  0.00  0.00    +0.060 C 
BRANCH  18  20
ATOM     20  N   LIG    1        3.894  -2.254  -0.432  0.00  0.00    -0.720 N 
ATOM     21  H   LIG    1        3.162  -2.657   0.060  0.00  0.00    +0.410 HD
ATOM     22  C   LIG    1        4.781  -3.036  -1.080  0.00  0.00    +0.520 C 
ATOM     23  O   LIG    1        5.697  -2.533  -1.696  0.00  0.00    -0.530 OA
BRANCH  22  24
ATOM     24  C   LIG    1        4.634  -4.535  -1.039  0.00  0.00    +0.060 C 
BRANCH  24  25
ATOM     25  C   LIG    1        5.761  -5.180  -1.849  0.00  0.00    +0.010 C 
ATOM     26  C   LIG    1        5.613  -4.799  -3.323  0.00  0.00    +0.010 C 
ATOM     27  C   LIG    1        6.740  -5.444  -4.132  0.00  0.00    +0.000 C 
ATOM     28  C   LIG    1        6.664  -6.965  -3.989  0.00  0.00    +0.000 C 
ATOM     29  C   LIG    1        6.812  -7.347  -2.514  0.00  0.00    +0.000 C 
ATOM     30  C   LIG    1        5.685  -6.702  -1.705  0.00  0.00    +0.000 C 
ENDBRANCH  24  25
ENDBRANCH  22  24
ENDBRANCH  18  20
ENDBRANCH   3  18
TORSDOF 7
