REMARK  Name = ZINCpk000000of6j.0
REMARK                            x       y       z     vdW  Elec       q    Type
REMARK                         _______ _______ _______ _____ _____    ______ ____
ROOT
ATOM      1  N   LIG    1       -0.219   1.233   4.858  0.00  0.00    -0.560 N 
ATOM      2  C   LIG    1        0.771   1.897   5.466  0.00  0.00    +0.710 C 
ATOM      3  N   LIG    1        1.253   1.235   6.534  0.00  0.00    -0.710 N 
ATOM      4  H   LIG    1        1.968   1.526   7.122  0.00  0.00    +0.440 HD
ATOM      5  C   LIG    1        0.483  -0.016   6.637  0.00  0.00    +0.130 C 
ATOM      6  C   LIG    1        1.405  -1.229   6.494  0.00  0.00    +0.080 C 
ATOM      7  O   LIG    1        1.188   2.976   5.095  0.00  0.00    -0.540 OA
ATOM      8  C   LIG    1       -0.487   0.066   5.476  0.00  0.00    +0.540 C 
ATOM      9  O   LIG    1       -1.329  -0.750   5.165  0.00  0.00    -0.460 OA
ENDROOT
BRANCH   1  10
ATOM     10  C   LIG    1       -0.927   1.718   3.671  0.00  0.00    +0.360 C 
BRANCH  10  13
ATOM     11  N   LIG    1       -0.698   1.558   1.213  0.00  0.00    -0.730 N 
ATOM     12  H   LIG    1       -1.495   2.106   1.135  0.00  0.00    +0.400 HD
ATOM     13  C   LIG    1       -0.222   1.232   2.431  0.00  0.00    +0.500 C 
ATOM     14  O   LIG    1        0.774   0.548   2.529  0.00  0.00    -0.530 OA
BRANCH  11  15
ATOM     15  C   LIG    1       -0.013   1.086   0.008  0.00  0.00    +0.260 C 
BRANCH  15  16
ATOM     16  C   LIG    1       -0.753   1.593  -1.232  0.00  0.00    +0.010 C 
BRANCH  16  18
ATOM     17  C   LIG    1       -0.777   1.606  -3.730  0.00  0.00    +0.010 C 
ATOM     18  C   LIG    1       -0.037   1.099  -2.490  0.00  0.00    +0.020 C 
ENDBRANCH  16  18
ENDBRANCH  15  16
ENDBRANCH  11  15
ENDBRANCH  10  13
ENDBRANCH   1  10
BRANCH   5  19
ATOM     19  C   LIG    1       -0.276  -0.073   7.964  0.00  0.00    +0.110 C 
BRANCH  19  20
ATOM     20  C   LIG    1        0.695   0.081   9.106  0.00  0.00    -0.130 A 
ATOM     21  C   LIG    1        1.284  -1.038   9.666  0.00  0.00    +0.060 A 
ATOM     22  C   LIG    1        2.179  -0.900  10.709  0.00  0.00    -0.080 A 
ATOM     23  C   LIG    1        2.479   0.362  11.202  0.00  0.00    +0.130 A 
ATOM     24  C   LIG    1        1.883   1.482  10.641  0.00  0.00    -0.020 A 
ATOM     25  C   LIG    1        0.993   1.339   9.595  0.00  0.00    +0.060 A 
BRANCH  23  26
ATOM     26  O   LIG    1        3.356   0.500  12.231  0.00  0.00    -0.320 OA
ATOM     27  C   LIG    1        3.931  -0.697  12.758  0.00  0.00    +0.250 C 
ENDBRANCH  23  26
ENDBRANCH  19  20
ENDBRANCH   5  19
TORSDOF 8
