REMARK  Name = ZINCpe00000MJLCX.0
REMARK                            x       y       z     vdW  Elec       q    Type
REMARK                         _______ _______ _______ _____ _____    ______ ____
ROOT
ATOM      1  N   LIG    1        2.026  -1.450  -0.501  0.00  0.00    -0.570 NA
ATOM      2  C   LIG    1        1.439  -0.290  -0.212  0.00  0.00    +0.430 A 
ATOM      3  N   LIG    1        1.999   0.936  -0.061  0.00  0.00    -0.520 N 
ATOM      4  H   LIG    1        2.943   1.143  -0.147  0.00  0.00    +0.490 HD
ATOM      5  O   LIG    1        1.123   1.728   0.199  0.00  0.00    +0.280 OA
ATOM      6  N   LIG    1        0.002   1.287   0.266  0.00  0.00    -0.230 NA
ATOM      7  C   LIG    1        0.004  -0.006   0.029  0.00  0.00    -0.020 A 
ENDROOT
BRANCH   7   8
ATOM      8  C   LIG    1       -1.141  -0.945   0.007  0.00  0.00    +0.610 C 
ATOM      9  N   LIG    1       -2.399  -0.476   0.123  0.00  0.00    -0.600 N 
ATOM     10  C   LIG    1       -2.670   0.971   0.142  0.00  0.00    +0.260 C 
ATOM     11  C   LIG    1       -3.771   1.266  -0.888  0.00  0.00    +0.220 C 
ATOM     12  O   LIG    1       -4.888   0.408  -0.641  0.00  0.00    -0.380 OA
ATOM     13  C   LIG    1       -4.601  -0.984  -0.790  0.00  0.00    +0.220 C 
ATOM     14  C   LIG    1       -3.543  -1.395   0.240  0.00  0.00    +0.280 C 
ATOM     15  O   LIG    1       -0.947  -2.138  -0.115  0.00  0.00    -0.480 OA
ENDBRANCH   7   8
BRANCH   1  16
ATOM     16  C   LIG    1        3.349  -1.501  -0.684  0.00  0.00    +0.540 C 
ATOM     17  O   LIG    1        4.018  -0.487  -0.587  0.00  0.00    -0.560 OA
BRANCH  16  20
ATOM     18  C   LIG    1        5.989  -4.061  -1.499  0.00  0.00    -0.070 A 
ATOM     19  C   LIG    1        5.380  -2.845  -1.197  0.00  0.00    +0.160 A 
ATOM     20  C   LIG    1        4.002  -2.791  -1.006  0.00  0.00    -0.130 A 
ATOM     21  C   LIG    1        3.237  -3.954  -1.111  0.00  0.00    +0.170 A 
ATOM     22  C   LIG    1        3.841  -5.157  -1.417  0.00  0.00    -0.010 A 
ATOM     23  C   LIG    1        5.210  -5.221  -1.608  0.00  0.00    +0.180 A 
ATOM     24  F   LIG    1        5.796  -6.402  -1.901  0.00  0.00    -0.120 F 
BRANCH  18  26
ATOM     25  N   LIG    1        8.529  -4.178  -1.856  0.00  0.00    -0.390 NA
ATOM     26  C   LIG    1        7.405  -4.126  -1.698  0.00  0.00    +0.250 C 
ENDBRANCH  18  26
ENDBRANCH  16  20
ENDBRANCH   1  16
TORSDOF 4
