REMARK  Name = ZINCpe00000MJLCX.1
REMARK                            x       y       z     vdW  Elec       q    Type
REMARK                         _______ _______ _______ _____ _____    ______ ____
ROOT
ATOM      1  C   LIG    1        2.539   1.027   0.615  0.00  0.00    +0.560 C 
ATOM      2  N   LIG    1        2.539  -0.310   0.442  0.00  0.00    -0.620 N 
ATOM      3  H   LIG    1        1.712  -0.809   0.523  0.00  0.00    +0.440 HD
ATOM      4  O   LIG    1        3.576   1.653   0.514  0.00  0.00    -0.470 OA
ENDROOT
BRANCH   1   7
ATOM      5  C   LIG    1        0.085   3.771   1.399  0.00  0.00    -0.060 A 
ATOM      6  C   LIG    1        1.278   3.114   1.105  0.00  0.00    +0.180 A 
ATOM      7  C   LIG    1        1.279   1.731   0.927  0.00  0.00    -0.150 A 
ATOM      8  C   LIG    1        0.086   1.012   1.043  0.00  0.00    +0.130 A 
ATOM      9  C   LIG    1       -1.094   1.667   1.328  0.00  0.00    +0.010 A 
ATOM     10  C   LIG    1       -1.103   3.039   1.512  0.00  0.00    +0.180 A 
ATOM     11  F   LIG    1       -2.262   3.674   1.796  0.00  0.00    -0.110 F 
BRANCH   5  13
ATOM     12  N   LIG    1        0.067   6.317   1.731  0.00  0.00    -0.380 NA
ATOM     13  C   LIG    1        0.075   5.191   1.584  0.00  0.00    +0.240 C 
ENDBRANCH   5  13
ENDBRANCH   1   7
BRANCH   2  14
ATOM     14  C   LIG    1        3.727  -0.973   0.149  0.00  0.00    +0.280 A 
ATOM     15  N   LIG    1        4.932  -0.474   0.003  0.00  0.00    -0.330 NA
ATOM     16  O   LIG    1        5.709  -1.365  -0.249  0.00  0.00    +0.350 OA
ATOM     17  N   LIG    1        5.241  -2.477  -0.311  0.00  0.00    -0.300 NA
ATOM     18  C   LIG    1        3.949  -2.420  -0.071  0.00  0.00    -0.050 A 
BRANCH  18  19
ATOM     19  C   LIG    1        2.963  -3.526  -0.033  0.00  0.00    +0.610 C 
ATOM     20  N   LIG    1        3.379  -4.803  -0.141  0.00  0.00    -0.590 N 
ATOM     21  C   LIG    1        4.813  -5.133  -0.169  0.00  0.00    +0.260 C 
ATOM     22  C   LIG    1        5.071  -6.237   0.870  0.00  0.00    +0.220 C 
ATOM     23  O   LIG    1        4.166  -7.319   0.638  0.00  0.00    -0.380 OA
ATOM     24  C   LIG    1        2.787  -6.974   0.794  0.00  0.00    +0.220 C 
ATOM     25  C   LIG    1        2.413  -5.908  -0.242  0.00  0.00    +0.280 C 
ATOM     26  O   LIG    1        1.780  -3.281   0.096  0.00  0.00    -0.520 OA
ENDBRANCH  18  19
ENDBRANCH   2  14
TORSDOF 4
