REMARK  Name = ZINCpe000000XOwm.0
REMARK                            x       y       z     vdW  Elec       q    Type
REMARK                         _______ _______ _______ _____ _____    ______ ____
ROOT
ATOM      1  C   LIG    1        1.353  -0.021  -6.214  0.00  0.00    +0.220 C 
ENDROOT
BRANCH   1   2
ATOM      2  N   LIG    1        0.890   0.691  -5.015  0.00  0.00    -0.520 NA
ATOM      3  C   LIG    1       -0.566   0.569  -4.860  0.00  0.00    +0.190 C 
ATOM      4  C   LIG    1       -1.018   1.388  -3.648  0.00  0.00    +0.190 C 
ATOM      5  N   LIG    1       -0.320   0.907  -2.447  0.00  0.00    -0.530 NA
ATOM      6  C   LIG    1        1.136   1.029  -2.603  0.00  0.00    +0.190 C 
ATOM      7  C   LIG    1        1.587   0.210  -3.815  0.00  0.00    +0.190 C 
BRANCH   5   8
ATOM      8  C   LIG    1       -0.783   1.619  -1.249  0.00  0.00    +0.160 C 
ATOM      9  C   LIG    1       -0.040   1.099  -0.006  0.00  0.00    +0.080 C 
ATOM     10  C   LIG    1       -0.772   1.603   1.252  0.00  0.00    -0.310 C 
ATOM     11  S   LIG    1       -2.514   1.811   0.743  0.00  0.00    +2.390 S 
ATOM     12  O   LIG    1       -3.317   0.836   1.394  0.00  0.00    -0.930 OA
ATOM     13  O   LIG    1       -2.866   3.185   0.821  0.00  0.00    -0.930 OA
ATOM     14  C   LIG    1       -2.290   1.339  -1.014  0.00  0.00    -0.300 C 
ENDBRANCH   5   8
ENDBRANCH   1   2
BRANCH   1  17
ATOM     15  N   LIG    1        3.436  -0.215  -7.534  0.00  0.00    -0.670 N 
ATOM     16  H   LIG    1        2.995  -0.888  -8.077  0.00  0.00    +0.410 HD
ATOM     17  C   LIG    1        2.796   0.325  -6.478  0.00  0.00    +0.520 C 
ATOM     18  O   LIG    1        3.381   1.090  -5.741  0.00  0.00    -0.500 OA
BRANCH  15  23
ATOM     19  C   LIG    1        8.713   1.444  -8.804  0.00  0.00    +0.100 C 
ATOM     20  C   LIG    1        7.312   1.002  -8.467  0.00  0.00    -0.080 A 
ATOM     21  C   LIG    1        6.474   1.846  -7.762  0.00  0.00    +0.020 A 
ATOM     22  C   LIG    1        5.187   1.447  -7.456  0.00  0.00    +0.060 A 
ATOM     23  C   LIG    1        4.738   0.193  -7.848  0.00  0.00    +0.110 A 
ATOM     24  C   LIG    1        5.583  -0.653  -8.557  0.00  0.00    +0.070 A 
ATOM     25  F   LIG    1        5.148  -1.872  -8.946  0.00  0.00    -0.140 F 
ATOM     26  C   LIG    1        6.868  -0.246  -8.865  0.00  0.00    +0.010 A 
ENDBRANCH  15  23
ENDBRANCH   1  17
TORSDOF 4
