REMARK  Name = ZINCbw0000000HaK.0
REMARK                            x       y       z     vdW  Elec       q    Type
REMARK                         _______ _______ _______ _____ _____    ______ ____
ROOT
ATOM      1  C   LIG    1       -1.165  -0.659   2.084  0.00  0.00    +0.000 C 
ATOM      2  C   LIG    1       -1.210   0.673   2.137  0.00  0.00    +0.120 A 
ATOM      3  S   LIG    1       -1.939   1.668   3.408  0.00  0.00    +0.010 S 
ATOM      4  C   LIG    1       -1.528   3.212   2.650  0.00  0.00    -0.170 A 
ATOM      5  C   LIG    1       -1.760   4.521   3.036  0.00  0.00    +0.090 A 
ATOM      6  C   LIG    1       -1.308   5.564   2.249  0.00  0.00    +0.000 A 
ATOM      7  C   LIG    1       -0.639   5.286   1.071  0.00  0.00    +0.060 A 
ATOM      8  C   LIG    1       -0.410   3.986   0.681  0.00  0.00    -0.010 A 
ATOM      9  C   LIG    1       -0.851   2.912   1.469  0.00  0.00    +0.160 A 
ATOM     10  N   LIG    1       -0.698   1.558   1.213  0.00  0.00    -0.550 N 
ATOM     11  C   LIG    1       -0.013   1.086   0.008  0.00  0.00    +0.310 C 
ENDROOT
TORSDOF 0
