REMARK  Name = ZINCrD00000fMTQ7.0
REMARK                            x       y       z     vdW  Elec       q    Type
REMARK                         _______ _______ _______ _____ _____    ______ ____
ROOT
ATOM      1  C   LIG    1       -0.158   2.150   2.341  0.00  0.00    -0.060 A 
ATOM      2  C   LIG    1       -0.721   1.574   1.244  0.00  0.00    +0.080 A 
ATOM      3  C   LIG    1       -0.013   1.089   0.006  0.00  0.00    +0.140 C 
ATOM      4  C   LIG    1       -0.756   1.601  -1.231  0.00  0.00    +0.020 C 
ATOM      5  C   LIG    1       -1.844   0.605  -1.618  0.00  0.00    +0.010 C 
ATOM      6  C   LIG    1       -2.422  -0.065  -0.372  0.00  0.00    +0.030 C 
ATOM      7  C   LIG    1       -3.062   0.990   0.533  0.00  0.00    +0.280 C 
ATOM      8  N   LIG    1       -2.056   1.510   1.464  0.00  0.00    -0.440 N 
ATOM      9  C   LIG    1       -2.290   2.029   2.706  0.00  0.00    +0.240 A 
ATOM     10  N   LIG    1       -1.147   2.414   3.222  0.00  0.00    -0.440 NA
ENDROOT
BRANCH   1  12
ATOM     11  O   LIG    1        2.074   2.149   1.662  0.00  0.00    -0.540 OA
ATOM     12  C   LIG    1        1.275   2.434   2.534  0.00  0.00    +0.620 C 
ATOM     13  N   LIG    1        1.701   3.010   3.676  0.00  0.00    -0.610 N 
ATOM     14  C   LIG    1        3.110   3.353   4.005  0.00  0.00    +0.270 C 
ATOM     15  C   LIG    1        3.122   3.365   5.534  0.00  0.00    -0.020 C 
ATOM     16  C   LIG    1        4.191   4.199   6.213  0.00  0.00    +0.020 C 
ATOM     17  C   LIG    1        3.874   4.178   7.720  0.00  0.00    +0.210 C 
ATOM     18  O   LIG    1        2.542   4.600   7.992  0.00  0.00    -0.390 OA
ATOM     19  C   LIG    1        1.486   3.920   7.290  0.00  0.00    +0.240 C 
ATOM     20  C   LIG    1        1.771   4.090   5.813  0.00  0.00    -0.060 C 
ATOM     21  C   LIG    1        0.842   3.416   4.815  0.00  0.00    +0.280 C 
ENDBRANCH   1  12
BRANCH   9  22
ATOM     22  C   LIG    1       -3.613   2.137   3.360  0.00  0.00    -0.010 A 
ATOM     23  C   LIG    1       -4.779   2.096   2.595  0.00  0.00    +0.010 A 
ATOM     24  C   LIG    1       -6.009   2.192   3.212  0.00  0.00    +0.010 A 
ATOM     25  C   LIG    1       -6.088   2.340   4.586  0.00  0.00    +0.020 A 
ATOM     26  C   LIG    1       -4.935   2.387   5.349  0.00  0.00    +0.010 A 
ATOM     27  C   LIG    1       -3.699   2.287   4.745  0.00  0.00    +0.050 A 
ENDBRANCH   9  22
TORSDOF 2
