REMARK  Name = ZINCbu0000001N4U.0
REMARK                            x       y       z     vdW  Elec       q    Type
REMARK                         _______ _______ _______ _____ _____    ______ ____
ROOT
ATOM      1  C   LIG    1        3.715   1.484  -0.025  0.00  0.00    +0.280 C 
ATOM      2  C   LIG    1        4.304   1.364   1.392  0.00  0.00    +0.080 C 
ATOM      3  C   LIG    1        5.465   0.351   1.262  0.00  0.00    +0.070 C 
ATOM      4  C   LIG    1        5.812   0.413  -0.247  0.00  0.00    +0.280 C 
ATOM      5  N   LIG    1        4.483   0.570  -0.898  0.00  0.00    -0.520 N 
ATOM      6  H   LIG    1        4.588   0.972  -1.817  0.00  0.00    +0.440 HD
ATOM      7  H   LIG    1        4.019  -0.324  -0.959  0.00  0.00    +0.420 HD
ENDROOT
BRANCH   1  12
ATOM      8  C   LIG    1       -1.297   2.123   0.020  0.00  0.00    +0.140 C 
ATOM      9  C   LIG    1       -0.016   1.330   0.009  0.00  0.00    -0.100 A 
ATOM     10  C   LIG    1        0.002  -0.004   0.002  0.00  0.00    +0.010 A 
ATOM     11  S   LIG    1        1.667  -0.571  -0.017  0.00  0.00    +0.100 S 
ATOM     12  C   LIG    1        2.262   1.084  -0.014  0.00  0.00    -0.270 A 
ATOM     13  C   LIG    1        1.231   1.930   0.001  0.00  0.00    +0.090 A 
ENDBRANCH   1  12
TORSDOF 1
