REMARK  Name = ZINCpe000000ZuVM.0
REMARK                            x       y       z     vdW  Elec       q    Type
REMARK                         _______ _______ _______ _____ _____    ______ ____
ROOT
ATOM      1  O   LIG    1       -3.579  -0.340   1.954  0.00  0.00    -0.500 OA
ATOM      2  C   LIG    1       -2.551   0.260   2.202  0.00  0.00    +0.590 C 
ATOM      3  N   LIG    1       -2.282   1.424   1.578  0.00  0.00    -0.600 N 
ATOM      4  C   LIG    1       -1.126   2.223   1.995  0.00  0.00    +0.350 C 
ATOM      5  C   LIG    1       -0.116   2.302   0.846  0.00  0.00    -0.320 C 
ATOM      6  S   LIG    1       -0.927   3.027  -0.610  0.00  0.00    +2.410 S 
ATOM      7  C   LIG    1       -2.347   1.914  -0.817  0.00  0.00    -0.440 C 
ATOM      8  C   LIG    1       -3.239   2.423  -1.950  0.00  0.00    +0.060 C 
ATOM      9  C   LIG    1       -4.435   1.482  -2.113  0.00  0.00    +0.030 C 
ATOM     10  C   LIG    1       -5.236   1.439  -0.810  0.00  0.00    +0.010 C 
ATOM     11  C   LIG    1       -4.340   0.940   0.327  0.00  0.00    +0.080 C 
ATOM     12  O   LIG    1       -0.066   2.880  -1.731  0.00  0.00    -0.930 OA
ATOM     13  O   LIG    1       -1.408   4.319  -0.266  0.00  0.00    -0.930 OA
ATOM     14  C   LIG    1       -3.146   1.881   0.489  0.00  0.00    +0.260 C 
ENDROOT
BRANCH   2  15
ATOM     15  C   LIG    1       -1.594  -0.289   3.189  0.00  0.00    +0.000 A 
ATOM     16  C   LIG    1       -2.012  -1.254   4.110  0.00  0.00    +0.150 A 
ATOM     17  C   LIG    1       -1.080  -1.737   5.014  0.00  0.00    +0.040 A 
ATOM     18  C   LIG    1        0.217  -1.232   4.950  0.00  0.00    +0.320 A 
ATOM     19  N   LIG    1        0.526  -0.315   4.041  0.00  0.00    -0.250 NA
ATOM     20  N   LIG    1       -0.334   0.130   3.199  0.00  0.00    -0.170 NA
BRANCH  18  21
ATOM     21  N   LIG    1        1.189  -1.689   5.840  0.00  0.00    -0.420 N 
ATOM     22  C   LIG    1        2.474  -1.222   5.955  0.00  0.00    +0.160 A 
ATOM     23  C   LIG    1        3.062  -1.937   6.933  0.00  0.00    +0.160 A 
ATOM     24  N   LIG    1        2.170  -2.824   7.399  0.00  0.00    -0.470 NA
ATOM     25  C   LIG    1        1.044  -2.686   6.754  0.00  0.00    +0.420 A 
ENDBRANCH  18  21
ENDBRANCH   2  15
TORSDOF 2
