REMARK  Name = ZINCrH000004n7xP.0
REMARK                            x       y       z     vdW  Elec       q    Type
REMARK                         _______ _______ _______ _____ _____    ______ ____
ROOT
ATOM      1  C   LIG    1        0.690  -3.257  -0.022  0.00  0.00    -0.030 C 
ATOM      2  C   LIG    1        0.088  -3.561   1.105  0.00  0.00    -0.050 C 
ATOM      3  C   LIG    1       -0.858  -4.720   1.252  0.00  0.00    +0.310 C 
ATOM      4  N   LIG    1       -1.175  -5.257  -0.079  0.00  0.00    -0.620 N 
ATOM      5  C   LIG    1       -0.061  -5.405  -1.031  0.00  0.00    +0.280 C 
ATOM      6  C   LIG    1       -2.434  -5.600  -0.414  0.00  0.00    +0.530 C 
ATOM      7  O   LIG    1       -2.668  -6.041  -1.520  0.00  0.00    -0.530 OA
ATOM      8  C   LIG    1        0.514  -4.013  -1.306  0.00  0.00    +0.060 C 
ENDROOT
BRANCH   1  16
ATOM      9  C   LIG    1       -0.017   1.377   0.010  0.00  0.00    +0.100 A 
ATOM     10  C   LIG    1        1.177   2.094   0.002  0.00  0.00    -0.050 A 
ATOM     11  C   LIG    1        2.388   1.439  -0.013  0.00  0.00    +0.030 A 
ATOM     12  C   LIG    1        2.426   0.048  -0.021  0.00  0.00    +0.060 A 
ATOM     13  N   LIG    1        3.459  -0.867  -0.035  0.00  0.00    -0.590 N 
ATOM     14  H   LIG    1        4.402  -0.640  -0.043  0.00  0.00    +0.420 HD
ATOM     15  C   LIG    1        2.962  -2.138  -0.037  0.00  0.00    +0.250 A 
ATOM     16  C   LIG    1        1.605  -2.099  -0.024  0.00  0.00    -0.160 A 
ATOM     17  C   LIG    1        1.223  -0.676  -0.013  0.00  0.00    -0.050 A 
ATOM     18  C   LIG    1        0.002  -0.004   0.002  0.00  0.00    +0.020 A 
BRANCH   9  20
ATOM     19  C   LIG    1       -1.152   3.467   0.026  0.00  0.00    +0.230 C 
ATOM     20  O   LIG    1       -1.205   2.039   0.019  0.00  0.00    -0.320 OA
ENDBRANCH   9  20
ENDBRANCH   1  16
BRANCH   6  21
ATOM     21  C   LIG    1       -3.551  -5.437   0.584  0.00  0.00    +0.110 C 
BRANCH  21  22
ATOM     22  C   LIG    1       -4.848  -5.889  -0.035  0.00  0.00    -0.100 A 
ATOM     23  C   LIG    1       -5.691  -4.967  -0.625  0.00  0.00    +0.030 A 
ATOM     24  C   LIG    1       -6.879  -5.383  -1.198  0.00  0.00    +0.000 A 
ATOM     25  C   LIG    1       -7.232  -6.719  -1.172  0.00  0.00    +0.030 A 
ATOM     26  C   LIG    1       -6.395  -7.644  -0.579  0.00  0.00    -0.020 A 
ATOM     27  C   LIG    1       -5.200  -7.231  -0.008  0.00  0.00    +0.120 A 
BRANCH  27  28
ATOM     28  O   LIG    1       -4.375  -8.139   0.577  0.00  0.00    -0.490 OA
ATOM     29  H   LIG    1       -4.548  -8.278   1.518  0.00  0.00    +0.390 HD
ENDBRANCH  27  28
ENDBRANCH  21  22
ENDBRANCH   6  21
TORSDOF 5
