REMARK  Name = ZINCvU00000007Px.0
REMARK                            x       y       z     vdW  Elec       q    Type
REMARK                         _______ _______ _______ _____ _____    ______ ____
ROOT
ATOM      1  C   LIG    1       -3.198   1.502  -0.040  0.00  0.00    -0.130 A 
ATOM      2  C   LIG    1       -3.359   2.895  -0.021  0.00  0.00    +0.190 A 
ATOM      3  C   LIG    1       -2.251   3.711  -0.013  0.00  0.00    -0.050 A 
ATOM      4  C   LIG    1       -0.976   3.153  -0.025  0.00  0.00    +0.210 A 
ATOM      5  C   LIG    1       -0.816   1.771  -0.044  0.00  0.00    -0.080 A 
ATOM      6  C   LIG    1       -1.908   0.951  -0.057  0.00  0.00    +0.190 A 
ENDROOT
BRANCH   1  13
ATOM      7  O   LIG    1       -7.071  -0.768  -0.332  0.00  0.00    -0.410 OA
ATOM      8  C   LIG    1       -6.909   0.438  -0.302  0.00  0.00    +0.490 C 
ATOM      9  O   LIG    1       -7.858   1.395  -0.386  0.00  0.00    -0.280 OA
ATOM     10  C   LIG    1       -7.263   2.601  -0.313  0.00  0.00    +0.350 C 
ATOM     11  N   LIG    1       -5.970   2.490  -0.180  0.00  0.00    -0.480 NA
ATOM     12  C   LIG    1       -5.635   1.167  -0.167  0.00  0.00    -0.090 C 
ATOM     13  C   LIG    1       -4.371   0.626  -0.048  0.00  0.00    +0.250 C 
BRANCH  10  14
ATOM     14  C   LIG    1       -7.984   3.888  -0.370  0.00  0.00    -0.040 A 
ATOM     15  C   LIG    1       -7.280   5.091  -0.280  0.00  0.00    +0.100 A 
ATOM     16  C   LIG    1       -7.959   6.290  -0.338  0.00  0.00    +0.050 A 
ATOM     17  C   LIG    1       -9.337   6.302  -0.476  0.00  0.00    -0.060 A 
ATOM     18  C   LIG    1      -10.041   5.113  -0.560  0.00  0.00    +0.060 A 
ATOM     19 BR   LIG    1      -10.261   7.951  -0.548  0.00  0.00    -0.030 Br
ATOM     20  C   LIG    1       -9.374   3.908  -0.508  0.00  0.00    +0.090 A 
ENDBRANCH  10  14
ENDBRANCH   1  13
BRANCH   5  21
ATOM     21  N   LIG    1        0.544   1.187  -0.056  0.00  0.00    +0.030 N 
ATOM     22  O   LIG    1        1.520   1.915  -0.054  0.00  0.00    -0.130 OA
ATOM     23  O   LIG    1        0.687  -0.023  -0.073  0.00  0.00    -0.170 OA
ENDBRANCH   5  21
BRANCH   4  24
ATOM     24  O   LIG    1        0.115   3.959  -0.017  0.00  0.00    -0.210 OA
BRANCH  24  25
ATOM     25  C   LIG    1       -0.084   5.302  -0.093  0.00  0.00    +0.050 A 
ATOM     26  C   LIG    1        0.152   5.973  -1.284  0.00  0.00    +0.070 A 
ATOM     27  C   LIG    1       -0.055   7.336  -1.361  0.00  0.00    +0.010 A 
ATOM     28  C   LIG    1       -0.487   8.035  -0.247  0.00  0.00    +0.110 A 
ATOM     29  C   LIG    1       -0.718   7.368   0.944  0.00  0.00    +0.010 A 
ATOM     30  F   LIG    1       -0.684   9.370  -0.322  0.00  0.00    -0.130 F 
ATOM     31  C   LIG    1       -0.517   6.004   1.023  0.00  0.00    +0.040 A 
ENDBRANCH  24  25
ENDBRANCH   4  24
TORSDOF 5
