REMARK  Name = ZINCvU0000000Djj.0
REMARK                            x       y       z     vdW  Elec       q    Type
REMARK                         _______ _______ _______ _____ _____    ______ ____
ROOT
ATOM      1  C   LIG    1       -1.935   2.864   2.806  0.00  0.00    -0.140 A 
ATOM      2  C   LIG    1       -2.748   1.853   3.328  0.00  0.00    +0.060 A 
ATOM      3  C   LIG    1       -3.679   2.152   4.288  0.00  0.00    -0.010 A 
ATOM      4  C   LIG    1       -3.824   3.463   4.736  0.00  0.00    -0.060 A 
ATOM      5  C   LIG    1       -3.019   4.473   4.213  0.00  0.00    +0.030 A 
ATOM      6  C   LIG    1       -2.082   4.179   3.257  0.00  0.00    +0.100 A 
ENDROOT
BRANCH   1   9
ATOM      7  C   LIG    1       -2.294   0.642   1.106  0.00  0.00    +0.290 C 
ATOM      8  N   LIG    1       -1.133   1.518   0.928  0.00  0.00    -0.600 N 
ATOM      9  C   LIG    1       -0.928   2.545   1.777  0.00  0.00    +0.560 C 
ATOM     10  O   LIG    1        0.088   3.208   1.694  0.00  0.00    -0.530 OA
BRANCH   8  11
ATOM     11  C   LIG    1       -0.196   1.277  -0.171  0.00  0.00    +0.360 C 
BRANCH  11  12
ATOM     12  C   LIG    1       -0.737   1.893  -1.436  0.00  0.00    -0.100 A 
ATOM     13  C   LIG    1       -1.502   1.227  -2.278  0.00  0.00    -0.010 A 
ATOM     14  S   LIG    1       -1.964   2.221  -3.646  0.00  0.00    +0.090 S 
ATOM     15  C   LIG    1       -1.067   3.603  -3.031  0.00  0.00    -0.140 A 
ATOM     16  C   LIG    1       -0.904   4.889  -3.557  0.00  0.00    +0.040 A 
ATOM     17  C   LIG    1       -0.144   5.818  -2.887  0.00  0.00    +0.030 A 
ATOM     18  C   LIG    1        0.466   5.486  -1.685  0.00  0.00    +0.010 A 
ATOM     19  C   LIG    1        0.321   4.240  -1.155  0.00  0.00    +0.070 A 
ATOM     20  C   LIG    1       -0.458   3.268  -1.818  0.00  0.00    -0.070 A 
ENDBRANCH  11  12
ENDBRANCH   8  11
ENDBRANCH   1   9
BRANCH   4  21
ATOM     21  S   LIG    1       -5.027   3.845   5.965  0.00  0.00    -0.080 S 
BRANCH  21  22
ATOM     22  C   LIG    1       -5.789   2.234   6.305  0.00  0.00    +0.120 C 
BRANCH  22  23
ATOM     23  C   LIG    1       -6.858   2.395   7.354  0.00  0.00    -0.050 A 
ATOM     24  C   LIG    1       -6.535   2.260   8.693  0.00  0.00    +0.020 A 
ATOM     25  C   LIG    1       -7.508   2.411   9.659  0.00  0.00    +0.050 A 
ATOM     26  C   LIG    1       -8.823   2.690   9.283  0.00  0.00    -0.130 A 
ATOM     27  C   LIG    1       -9.143   2.819   7.931  0.00  0.00    +0.080 A 
ATOM     28  C   LIG    1       -8.160   2.672   6.975  0.00  0.00    +0.030 A 
BRANCH  26  29
ATOM     29  C   LIG    1       -9.872   2.846  10.313  0.00  0.00    +0.560 C 
ATOM     30  O   LIG    1      -11.017   3.089   9.983  0.00  0.00    -0.540 OA
ATOM     31  N   LIG    1       -9.560   2.720  11.618  0.00  0.00    -0.850 N 
ATOM     32  H   LIG    1      -10.248   2.823  12.294  0.00  0.00    +0.410 HD
ATOM     33  H   LIG    1       -8.646   2.527  11.882  0.00  0.00    +0.400 HD
ENDBRANCH  26  29
ENDBRANCH  22  23
ENDBRANCH  21  22
ENDBRANCH   4  21
TORSDOF 7
