REMARK  Name = ZINCrD000000Btlw.0
REMARK                            x       y       z     vdW  Elec       q    Type
REMARK                         _______ _______ _______ _____ _____    ______ ____
ROOT
ATOM      1  C   LIG    1        1.240   1.709  -0.004  0.00  0.00    +0.310 C 
ENDROOT
BRANCH   1   2
ATOM      2  C   LIG    1        2.179   0.820   0.772  0.00  0.00    +0.520 C 
ATOM      3  N   LIG    1        3.233   1.355   1.418  0.00  0.00    -0.600 N 
ATOM      4  C   LIG    1        3.425   2.811   1.462  0.00  0.00    +0.270 C 
ATOM      5  C   LIG    1        3.575   3.241   2.929  0.00  0.00    +0.010 C 
ATOM      6  C   LIG    1        4.707   2.439   3.576  0.00  0.00    +0.020 C 
ATOM      7  C   LIG    1        4.361   0.948   3.543  0.00  0.00    +0.010 C 
ATOM      8  C   LIG    1        4.217   0.493   2.088  0.00  0.00    +0.270 C 
ATOM      9  O   LIG    1        1.984  -0.376   0.814  0.00  0.00    -0.530 OA
ENDBRANCH   1   2
BRANCH   1  12
ATOM     10  O   LIG    1       -1.113   2.966  -0.401  0.00  0.00    -0.580 OA
ATOM     11  C   LIG    1       -1.168   1.752  -0.369  0.00  0.00    +0.710 C 
ATOM     12  N   LIG    1       -0.047   1.030  -0.173  0.00  0.00    -0.730 N 
ATOM     13  H   LIG    1       -0.091   0.061  -0.149  0.00  0.00    +0.410 HD
ATOM     14  N   LIG    1       -2.352   1.127  -0.531  0.00  0.00    -0.740 N 
ATOM     15  H   LIG    1       -2.396   0.158  -0.506  0.00  0.00    +0.400 HD
BRANCH  14  16
ATOM     16  C   LIG    1       -3.571   1.911  -0.744  0.00  0.00    +0.340 C 
BRANCH  16  17
ATOM     17  C   LIG    1       -4.747   0.981  -0.894  0.00  0.00    -0.150 A 
ATOM     18  C   LIG    1       -5.649   0.834   0.142  0.00  0.00    +0.070 A 
ATOM     19  C   LIG    1       -6.728  -0.019   0.004  0.00  0.00    +0.000 A 
ATOM     20  C   LIG    1       -6.905  -0.727  -1.170  0.00  0.00    +0.060 A 
ATOM     21  C   LIG    1       -6.003  -0.583  -2.207  0.00  0.00    -0.020 A 
ATOM     22  C   LIG    1       -4.926   0.276  -2.073  0.00  0.00    +0.120 A 
ATOM     23  F   LIG    1       -4.047   0.422  -3.088  0.00  0.00    -0.130 F 
ENDBRANCH  16  17
ENDBRANCH  14  16
ENDBRANCH   1  12
BRANCH   1  24
ATOM     24  C   LIG    1        1.834   2.006  -1.357  0.00  0.00    -0.100 A 
ATOM     25  C   LIG    1        1.869   1.022  -2.327  0.00  0.00    +0.030 A 
ATOM     26  C   LIG    1        2.410   1.296  -3.570  0.00  0.00    +0.000 A 
ATOM     27  C   LIG    1        2.922   2.551  -3.839  0.00  0.00    +0.010 A 
ATOM     28  C   LIG    1        2.892   3.533  -2.867  0.00  0.00    +0.010 A 
ATOM     29  C   LIG    1        2.347   3.261  -1.626  0.00  0.00    +0.020 A 
ENDBRANCH   1  24
TORSDOF 5
