REMARK  Name = ZINCkj00000y7Mkc.1
REMARK                            x       y       z     vdW  Elec       q    Type
REMARK                         _______ _______ _______ _____ _____    ______ ____
ROOT
ATOM      1  N   LIG    1       -1.192   2.002   0.019  0.00  0.00    -0.740 N 
ATOM      2  H   LIG    1       -2.026   1.505   0.020  0.00  0.00    +0.400 HD
ATOM      3  C   LIG    1       -0.016   1.344   0.009  0.00  0.00    +0.700 C 
ATOM      4  N   LIG    1        0.002  -0.004   0.002  0.00  0.00    -0.760 N 
ATOM      5  H   LIG    1       -0.831  -0.500   0.007  0.00  0.00    +0.390 HD
ATOM      6  O   LIG    1        1.028   1.966   0.003  0.00  0.00    -0.580 OA
ENDROOT
BRANCH   1   7
ATOM      7  C   LIG    1       -1.212   3.466   0.027  0.00  0.00    +0.320 C 
BRANCH   7   8
ATOM      8  C   LIG    1       -2.662   3.957   0.036  0.00  0.00    +0.100 C 
ATOM      9  C   LIG    1       -3.415   3.343  -1.145  0.00  0.00    +0.020 C 
ATOM     10  C   LIG    1       -2.685   5.482  -0.081  0.00  0.00    +0.030 C 
BRANCH   8  12
ATOM     11  C   LIG    1       -4.654   3.974   1.369  0.00  0.00    +0.210 C 
ATOM     12  O   LIG    1       -3.289   3.563   1.258  0.00  0.00    -0.380 OA
ENDBRANCH   8  12
ENDBRANCH   7   8
ENDBRANCH   1   7
BRANCH   4  13
ATOM     13  C   LIG    1        1.281  -0.719  -0.014  0.00  0.00    +0.320 C 
BRANCH  13  14
ATOM     14  C   LIG    1        1.021  -2.227  -0.020  0.00  0.00    -0.020 C 
ATOM     15  C   LIG    1        2.351  -2.973  -0.162  0.00  0.00    +0.080 C 
ATOM     16  C   LIG    1        2.072  -4.462  -0.405  0.00  0.00    +0.190 C 
ATOM     17  C   LIG    1        1.073  -4.929   0.626  0.00  0.00    +0.310 C 
ATOM     18  N   LIG    1        0.789  -6.156   0.952  0.00  0.00    -0.470 N 
ATOM     19  C   LIG    1       -0.151  -6.153   1.910  0.00  0.00    +0.230 C 
ATOM     20  C   LIG    1       -0.461  -4.870   2.187  0.00  0.00    +0.250 C 
ATOM     21  H   LIG    1        1.193  -6.948   0.564  0.00  0.00    +0.460 HD
ATOM     22  N   LIG    1        0.312  -4.096   1.375  0.00  0.00    -0.400 N 
ATOM     23  C   LIG    1        0.345  -2.634   1.294  0.00  0.00    +0.330 C 
ENDBRANCH  13  14
ENDBRANCH   4  13
TORSDOF 5
