REMARK  Name = ZINCrH00000No4Rw.0
REMARK                            x       y       z     vdW  Elec       q    Type
REMARK                         _______ _______ _______ _____ _____    ______ ____
ROOT
ATOM      1  O   LIG    1        0.726   0.575  -2.534  0.00  0.00    -0.510 OA
ATOM      2  C   LIG    1       -0.268   1.258  -2.409  0.00  0.00    +0.510 C 
ATOM      3  N   LIG    1       -0.721   1.571  -1.179  0.00  0.00    -0.720 N 
ATOM      4  H   LIG    1       -1.516   2.118  -1.079  0.00  0.00    +0.400 HD
ENDROOT
BRANCH   3   5
ATOM      5  C   LIG    1       -0.013   1.086   0.008  0.00  0.00    +0.270 C 
BRANCH   5   6
ATOM      6  C   LIG    1       -0.729   1.579   1.267  0.00  0.00    -0.070 C 
ATOM      7  C   LIG    1       -2.164   1.050   1.278  0.00  0.00    +0.030 C 
ATOM      8  C   LIG    1       -2.880   1.543   2.537  0.00  0.00    -0.020 C 
ATOM      9  C   LIG    1       -2.901   3.073   2.545  0.00  0.00    +0.010 C 
ATOM     10  C   LIG    1       -1.466   3.603   2.534  0.00  0.00    -0.020 C 
ATOM     11  C   LIG    1       -0.726   3.096   3.774  0.00  0.00    +0.010 C 
ATOM     12  C   LIG    1       -0.705   1.566   3.765  0.00  0.00    -0.020 C 
ATOM     13  C   LIG    1       -2.140   1.036   3.776  0.00  0.00    +0.010 C 
ATOM     14  C   LIG    1       -0.750   3.109   1.275  0.00  0.00    +0.030 C 
ATOM     15  C   LIG    1        0.011   1.072   2.506  0.00  0.00    +0.040 C 
ENDBRANCH   5   6
ENDBRANCH   3   5
BRANCH   2  16
ATOM     16  C   LIG    1       -0.997   1.758  -3.630  0.00  0.00    +0.250 C 
BRANCH  16  17
ATOM     17  O   LIG    1       -0.328   1.297  -4.806  0.00  0.00    -0.320 OA
BRANCH  17  18
ATOM     18  C   LIG    1       -0.857   1.659  -5.993  0.00  0.00    +0.500 C 
ATOM     19  O   LIG    1       -1.859   2.347  -6.028  0.00  0.00    -0.510 OA
BRANCH  18  20
ATOM     20  C   LIG    1       -0.225   1.223  -7.238  0.00  0.00    -0.040 C 
ATOM     21  C   LIG    1       -0.754   1.585  -8.425  0.00  0.00    +0.150 C 
BRANCH  21  22
ATOM     22  C   LIG    1       -0.119   1.147  -9.678  0.00  0.00    -0.050 A 
ATOM     23  C   LIG    1       -0.664   1.520 -10.910  0.00  0.00    +0.040 A 
ATOM     24  C   LIG    1       -0.064   1.106 -12.081  0.00  0.00    +0.050 A 
ATOM     25  C   LIG    1        1.077   0.324 -12.039  0.00  0.00    +0.000 A 
ATOM     26  C   LIG    1        1.624  -0.051 -10.822  0.00  0.00    +0.100 A 
ATOM     27  F   LIG    1        2.737  -0.816 -10.791  0.00  0.00    -0.130 F 
ATOM     28  C   LIG    1        1.037   0.360  -9.642  0.00  0.00    +0.010 A 
ENDBRANCH  21  22
ENDBRANCH  18  20
ENDBRANCH  17  18
ENDBRANCH  16  17
ENDBRANCH   2  16
TORSDOF 7
