REMARK  Name = ZINCkj00000y7HfO.0
REMARK                            x       y       z     vdW  Elec       q    Type
REMARK                         _______ _______ _______ _____ _____    ______ ____
ROOT
ATOM      1  O   LIG    1       -3.544   1.423  -0.995  0.00  0.00    -0.930 OA
ATOM      2  S   LIG    1       -2.732   0.848   0.020  0.00  0.00    +2.700 S 
ATOM      3  O   LIG    1       -2.378  -0.528   0.045  0.00  0.00    -0.930 OA
ENDROOT
BRANCH   2   4
ATOM      4  C   LIG    1       -1.219   1.750   0.017  0.00  0.00    -0.710 A 
ATOM      5  C   LIG    1       -0.013   1.076   0.008  0.00  0.00    +0.180 A 
ATOM      6  C   LIG    1        1.177   1.784   0.000  0.00  0.00    +0.050 A 
ATOM      7  C   LIG    1        1.158   3.170   0.008  0.00  0.00    +0.160 A 
ATOM      8  C   LIG    1       -0.051   3.845   0.023  0.00  0.00    -0.010 A 
ATOM      9  F   LIG    1        2.318   3.862   0.000  0.00  0.00    -0.100 F 
ATOM     10  F   LIG    1        2.356   1.124  -0.014  0.00  0.00    -0.110 F 
ATOM     11  C   LIG    1       -1.239   3.135   0.031  0.00  0.00    +0.210 A 
ATOM     12  F   LIG    1       -2.419   3.793   0.046  0.00  0.00    -0.110 F 
ENDBRANCH   2   4
BRANCH   2  13
ATOM     13  N   LIG    1       -3.489   1.163   1.458  0.00  0.00    -1.120 NA
ATOM     14  H   LIG    1       -3.624   0.450   2.102  0.00  0.00    +0.420 HD
BRANCH  13  15
ATOM     15  C   LIG    1       -3.953   2.519   1.760  0.00  0.00    +0.300 C 
BRANCH  15  16
ATOM     16  C   LIG    1       -4.925   2.475   2.941  0.00  0.00    +0.000 C 
ATOM     17  C   LIG    1       -5.314   3.902   3.337  0.00  0.00    +0.050 C 
ATOM     18  C   LIG    1       -6.346   3.844   4.467  0.00  0.00    +0.060 C 
ATOM     19  C   LIG    1       -7.551   3.020   4.009  0.00  0.00    +0.250 C 
ATOM     20  N   LIG    1       -7.118   1.659   3.670  0.00  0.00    -0.500 N 
ATOM     21  H   LIG    1       -7.922   1.104   3.418  0.00  0.00    +0.430 HD
ATOM     22  H   LIG    1       -6.660   1.244   4.468  0.00  0.00    +0.430 HD
ATOM     23  C   LIG    1       -6.183   1.701   2.539  0.00  0.00    +0.260 C 
ENDBRANCH  15  16
ENDBRANCH  13  15
ENDBRANCH   2  13
TORSDOF 4
