REMARK  Name = ZINCpk00000easdq.0
REMARK                            x       y       z     vdW  Elec       q    Type
REMARK                         _______ _______ _______ _____ _____    ______ ____
ROOT
ATOM      1  N   LIG    1        1.625   3.298   0.004  0.00  0.00    -0.670 N 
ATOM      2  H   LIG    1        0.881   3.918  -0.060  0.00  0.00    +0.410 HD
ATOM      3  C   LIG    1        1.396   1.969   0.001  0.00  0.00    +0.520 C 
ATOM      4  O   LIG    1        2.329   1.194  -0.003  0.00  0.00    -0.490 OA
ENDROOT
BRANCH   1   8
ATOM      5  C   LIG    1        5.531   4.738   0.286  0.00  0.00    +0.090 A 
ATOM      6  C   LIG    1        5.271   3.570  -0.412  0.00  0.00    -0.010 A 
ATOM      7  C   LIG    1        3.977   3.093  -0.505  0.00  0.00    +0.040 A 
ATOM      8  C   LIG    1        2.935   3.783   0.100  0.00  0.00    +0.140 A 
ATOM      9  C   LIG    1        3.192   4.957   0.796  0.00  0.00    -0.050 A 
ATOM     10  C   LIG    1        4.489   5.432   0.894  0.00  0.00    +0.120 A 
BRANCH   5  12
ATOM     11  C   LIG    1        7.824   4.444  -0.271  0.00  0.00    +0.240 C 
ATOM     12  O   LIG    1        6.805   5.207   0.377  0.00  0.00    -0.310 OA
ENDBRANCH   5  12
BRANCH  10  13
ATOM     13  O   LIG    1        4.743   6.579   1.580  0.00  0.00    -0.300 OA
ATOM     14  C   LIG    1        3.626   7.238   2.178  0.00  0.00    +0.240 C 
ENDBRANCH  10  13
ENDBRANCH   1   8
BRANCH   3  15
ATOM     15  C   LIG    1       -0.018   1.448   0.003  0.00  0.00    +0.270 C 
BRANCH  15  16
ATOM     16  O   LIG    1        0.002  -0.004  -0.001  0.00  0.00    -0.330 OA
BRANCH  16  17
ATOM     17  C   LIG    1       -1.186  -0.629   0.001  0.00  0.00    +0.450 C 
ATOM     18  O   LIG    1       -2.208   0.015   0.005  0.00  0.00    -0.490 OA
BRANCH  17  19
ATOM     19  C   LIG    1       -1.245  -2.135  -0.003  0.00  0.00    +0.390 C 
BRANCH  19  20
ATOM     20  N   LIG    1       -2.644  -2.569  -0.001  0.00  0.00    -0.520 N 
ATOM     21  C   LIG    1       -3.314  -2.774  -1.146  0.00  0.00    +0.480 A 
ATOM     22  S   LIG    1       -4.898  -3.268  -0.684  0.00  0.00    +0.030 S 
ATOM     23  C   LIG    1       -4.581  -3.175   1.058  0.00  0.00    -0.030 A 
ATOM     24  O   LIG    1       -2.889  -2.638  -2.280  0.00  0.00    -0.470 OA
ATOM     25  C   LIG    1       -3.317  -2.788   1.163  0.00  0.00    +0.100 A 
ATOM     26  C   LIG    1       -2.660  -2.594   2.506  0.00  0.00    +0.170 C 
ENDBRANCH  19  20
ENDBRANCH  17  19
ENDBRANCH  16  17
ENDBRANCH  15  16
ENDBRANCH   3  15
TORSDOF 8
