REMARK  Name = ZINCpe000027pHjN.0
REMARK                            x       y       z     vdW  Elec       q    Type
REMARK                         _______ _______ _______ _____ _____    ______ ____
ROOT
ATOM      1  N   LIG    1        3.587   3.142  -0.493  0.00  0.00    -0.610 N 
ATOM      2  C   LIG    1        4.180   3.207   0.714  0.00  0.00    +0.520 C 
ATOM      3  C   LIG    1        3.107   4.022   1.382  0.00  0.00    +0.280 C 
ATOM      4  O   LIG    1        5.229   2.758   1.125  0.00  0.00    -0.470 OA
ATOM      5  C   LIG    1        2.458   3.932   0.001  0.00  0.00    +0.300 C 
ENDROOT
BRANCH   5   6
ATOM      6  C   LIG    1        1.160   3.166   0.008  0.00  0.00    -0.120 A 
ATOM      7  C   LIG    1        1.175   1.784   0.000  0.00  0.00    +0.020 A 
ATOM      8  C   LIG    1       -0.013   1.076   0.008  0.00  0.00    -0.030 A 
ATOM      9  C   LIG    1       -1.222   1.752   0.017  0.00  0.00    +0.120 A 
ATOM     10  C   LIG    1       -1.237   3.144   0.030  0.00  0.00    +0.110 A 
ATOM     11  C   LIG    1       -0.043   3.847   0.023  0.00  0.00    -0.010 A 
BRANCH  10  12
ATOM     12  O   LIG    1       -2.421   3.812   0.044  0.00  0.00    -0.300 OA
ATOM     13  C   LIG    1       -2.360   5.240   0.050  0.00  0.00    +0.240 C 
ENDBRANCH  10  12
BRANCH   9  14
ATOM     14  O   LIG    1       -2.391   1.058   0.019  0.00  0.00    -0.300 OA
ATOM     15  C   LIG    1       -2.298  -0.368   0.012  0.00  0.00    +0.240 C 
ENDBRANCH   9  14
ENDBRANCH   5   6
BRANCH   3  16
ATOM     16  N   LIG    1        2.381   3.314   2.439  0.00  0.00    -0.290 N 
ATOM     17  C   LIG    1        2.488   2.007   2.745  0.00  0.00    +0.410 A 
ATOM     18  N   LIG    1        1.671   1.788   3.746  0.00  0.00    -0.300 NA
ATOM     19  N   LIG    1        1.093   2.901   4.040  0.00  0.00    -0.060 NA
ATOM     20  N   LIG    1        1.524   3.827   3.256  0.00  0.00    -0.080 NA
ENDBRANCH   3  16
BRANCH   1  21
ATOM     21  C   LIG    1        3.931   2.529  -1.778  0.00  0.00    +0.330 C 
BRANCH  21  22
ATOM     22  C   LIG    1        4.725   3.527  -2.623  0.00  0.00    +0.020 C 
BRANCH  22  23
ATOM     23  C   LIG    1        5.085   2.887  -3.965  0.00  0.00    +0.160 C 
BRANCH  23  25
ATOM     24  C   LIG    1        6.214   3.319  -6.035  0.00  0.00    +0.200 C 
ATOM     25  O   LIG    1        5.827   3.820  -4.754  0.00  0.00    -0.390 OA
ENDBRANCH  23  25
ENDBRANCH  22  23
ENDBRANCH  21  22
ENDBRANCH   1  21
TORSDOF 8
