REMARK  Name = ZINCnE000001HY91.1
REMARK                            x       y       z     vdW  Elec       q    Type
REMARK                         _______ _______ _______ _____ _____    ______ ____
ROOT
ATOM      1  C   LIG    1       -0.808   7.337   1.300  0.00  0.00    +0.130 A 
ATOM      2  C   LIG    1        0.172   8.067   1.863  0.00  0.00    -0.190 A 
ATOM      3  S   LIG    1       -0.225   9.772   1.662  0.00  0.00    -0.020 S 
ATOM      4  C   LIG    1       -1.707   9.328   0.820  0.00  0.00    +0.380 A 
ATOM      5  N   LIG    1       -1.790   8.036   0.749  0.00  0.00    -0.550 NA
ENDROOT
BRANCH   1   9
ATOM      6  C   LIG    1       -0.749   3.086   1.275  0.00  0.00    -0.100 A 
ATOM      7  C   LIG    1        0.283   3.786   1.874  0.00  0.00    +0.000 A 
ATOM      8  C   LIG    1        0.272   5.166   1.879  0.00  0.00    +0.010 A 
ATOM      9  C   LIG    1       -0.787   5.854   1.291  0.00  0.00    -0.000 A 
ATOM     10  C   LIG    1       -1.827   5.144   0.694  0.00  0.00    +0.040 A 
ATOM     11  C   LIG    1       -1.803   3.764   0.689  0.00  0.00    +0.000 A 
BRANCH   6  13
ATOM     12  C   LIG    1       -0.013   1.086   0.008  0.00  0.00    +0.010 C 
ATOM     13  C   LIG    1       -0.729   1.579   1.267  0.00  0.00    +0.060 C 
ENDBRANCH   6  13
ENDBRANCH   1   9
BRANCH   4  14
ATOM     14  N   LIG    1       -2.638  10.222   0.307  0.00  0.00    -0.660 NA
ATOM     15  C   LIG    1       -2.441  11.549   0.438  0.00  0.00    +0.440 C 
ATOM     16  O   LIG    1       -1.450  11.962   1.003  0.00  0.00    -0.600 OA
BRANCH  15  17
ATOM     17  C   LIG    1       -3.450  12.520  -0.118  0.00  0.00    +0.340 C 
BRANCH  17  18
ATOM     18  N   LIG    1       -3.010  13.891   0.150  0.00  0.00    -0.590 N 
ATOM     19  C   LIG    1       -2.177  14.595  -0.798  0.00  0.00    +0.280 C 
ATOM     20  C   LIG    1       -1.838  16.011  -0.314  0.00  0.00    +0.130 C 
ATOM     21  S   LIG    1       -2.681  16.138   1.294  0.00  0.00    -0.200 S 
ATOM     22  C   LIG    1       -3.373  14.512   1.268  0.00  0.00    +0.560 C 
ATOM     23  O   LIG    1       -4.073  14.034   2.140  0.00  0.00    -0.490 OA
ENDBRANCH  17  18
ENDBRANCH  15  17
ENDBRANCH   4  14
TORSDOF 5
