REMARK  Name = ZINCpk00001AZiED.0
REMARK                            x       y       z     vdW  Elec       q    Type
REMARK                         _______ _______ _______ _____ _____    ______ ____
ROOT
ATOM      1  S   LIG    1       -0.372   6.996  -1.562  0.00  0.00    +2.740 S 
ATOM      2  O   LIG    1       -0.847   7.596  -2.760  0.00  0.00    -0.910 OA
ATOM      3  O   LIG    1        0.927   7.233  -1.037  0.00  0.00    -0.910 OA
ENDROOT
BRANCH   1   4
ATOM      4  N   LIG    1       -1.442   7.419  -0.371  0.00  0.00    -0.850 NA
ATOM      5  O   LIG    1       -2.821   7.700  -0.560  0.00  0.00    -0.100 OA
ATOM      6  C   LIG    1       -3.497   7.419   0.680  0.00  0.00    +0.160 C 
ATOM      7  C   LIG    1       -4.685   8.382   0.842  0.00  0.00    +0.060 C 
ATOM      8  C   LIG    1       -4.176   9.620   1.582  0.00  0.00    +0.020 C 
ATOM      9  C   LIG    1       -2.664   9.414   1.794  0.00  0.00    +0.030 C 
ATOM     10  C   LIG    1       -2.462   7.883   1.752  0.00  0.00    +0.040 C 
ATOM     11  C   LIG    1       -1.121   7.558   1.059  0.00  0.00    +0.270 C 
BRANCH  11  12
ATOM     12  C   LIG    1       -0.143   8.686   1.267  0.00  0.00    +0.460 C 
ATOM     13  O   LIG    1        0.002   9.525   0.409  0.00  0.00    -0.480 OA
BRANCH  12  14
ATOM     14  O   LIG    1        0.566   8.759   2.404  0.00  0.00    -0.350 OA
ATOM     15  C   LIG    1        1.489   9.872   2.535  0.00  0.00    +0.280 C 
ENDBRANCH  12  14
ENDBRANCH  11  12
ENDBRANCH   1   4
BRANCH   1  20
ATOM     16  N   LIG    1       -0.294   4.584  -2.942  0.00  0.00    -0.300 N 
ATOM     17  N   LIG    1       -0.505   3.222  -2.693  0.00  0.00    -0.240 NA
ATOM     18  C   LIG    1       -0.834   3.082  -1.435  0.00  0.00    +0.090 A 
ATOM     19  C   LIG    1       -0.848   4.350  -0.844  0.00  0.00    +0.000 A 
ATOM     20  C   LIG    1       -0.507   5.254  -1.790  0.00  0.00    -0.490 A 
BRANCH  18  21
ATOM     21  C   LIG    1       -1.150   1.781  -0.743  0.00  0.00    +0.040 C 
ATOM     22  C   LIG    1       -0.013   1.086   0.008  0.00  0.00    +0.040 C 
ATOM     23  C   LIG    1       -1.136   1.773   0.788  0.00  0.00    +0.050 C 
ENDBRANCH  18  21
BRANCH  16  25
ATOM     24  C   LIG    1       -1.167   5.536  -5.019  0.00  0.00    +0.060 C 
ATOM     25  C   LIG    1        0.091   5.176  -4.225  0.00  0.00    +0.310 C 
ENDBRANCH  16  25
ENDBRANCH   1  20
TORSDOF 6
