REMARK  Name = ZINCrH000004udSo.0
REMARK                            x       y       z     vdW  Elec       q    Type
REMARK                         _______ _______ _______ _____ _____    ______ ____
ROOT
ATOM      1  O   LIG    1        0.688   7.345   2.306  0.00  0.00    -0.520 OA
ATOM      2  C   LIG    1        0.764   6.976   3.459  0.00  0.00    +0.520 C 
ATOM      3  N   LIG    1        0.587   5.676   3.764  0.00  0.00    -0.730 N 
ATOM      4  H   LIG    1        0.647   5.381   4.686  0.00  0.00    +0.400 HD
ENDROOT
BRANCH   2   5
ATOM      5  C   LIG    1        1.056   7.973   4.551  0.00  0.00    +0.080 C 
BRANCH   5   6
ATOM      6  C   LIG    1        1.210   9.346   3.950  0.00  0.00    -0.070 A 
ATOM      7  C   LIG    1        2.106   9.552   2.917  0.00  0.00    +0.040 A 
ATOM      8  C   LIG    1        2.244  10.811   2.362  0.00  0.00    +0.000 A 
ATOM      9  C   LIG    1        1.493  11.866   2.847  0.00  0.00    +0.000 A 
ATOM     10  C   LIG    1        0.602  11.661   3.883  0.00  0.00    +0.000 A 
ATOM     11  C   LIG    1        0.460  10.401   4.434  0.00  0.00    +0.010 A 
ENDBRANCH   5   6
BRANCH   5  12
ATOM     12  C   LIG    1        2.332   7.587   5.255  0.00  0.00    -0.080 A 
ATOM     13  C   LIG    1        3.475   7.329   4.521  0.00  0.00    +0.010 A 
ATOM     14  C   LIG    1        4.646   6.979   5.167  0.00  0.00    +0.000 A 
ATOM     15  C   LIG    1        4.672   6.878   6.545  0.00  0.00    +0.000 A 
ATOM     16  C   LIG    1        3.527   7.130   7.278  0.00  0.00    +0.000 A 
ATOM     17  C   LIG    1        2.357   7.485   6.633  0.00  0.00    +0.010 A 
ENDBRANCH   5  12
ENDBRANCH   2   5
BRANCH   3  18
ATOM     18  C   LIG    1        0.302   4.707   2.702  0.00  0.00    +0.260 C 
BRANCH  18  19
ATOM     19  C   LIG    1        0.146   3.312   3.313  0.00  0.00    -0.010 C 
BRANCH  19  20
ATOM     20  C   LIG    1       -0.152   2.301   2.204  0.00  0.00    +0.290 C 
BRANCH  20  21
ATOM     21  N   LIG    1       -0.301   0.966   2.789  0.00  0.00    -0.610 N 
ATOM     22  C   LIG    1        0.876   0.094   2.932  0.00  0.00    +0.280 C 
ATOM     23  C   LIG    1        1.244   0.008   4.415  0.00  0.00    +0.010 C 
ATOM     24  C   LIG    1        0.458  -1.093   5.103  0.00  0.00    +0.020 C 
ATOM     25  C   LIG    1       -1.033  -0.819   5.191  0.00  0.00    +0.040 C 
ATOM     26  C   LIG    1       -1.668  -0.827   3.799  0.00  0.00    +0.050 C 
ATOM     27  C   LIG    1       -1.503   0.548   3.187  0.00  0.00    +0.520 C 
ATOM     28  O   LIG    1       -2.469   1.270   3.055  0.00  0.00    -0.550 OA
ENDBRANCH  20  21
ENDBRANCH  19  20
ENDBRANCH  18  19
ENDBRANCH   3  18
TORSDOF 7
