REMARK  Name = ZINCpk000000pJ6M.0
REMARK                            x       y       z     vdW  Elec       q    Type
REMARK                         _______ _______ _______ _____ _____    ______ ____
ROOT
ATOM      1  N   LIG    1        2.290   1.196   0.032  0.00  0.00    -0.500 N 
ATOM      2  H   LIG    1        2.851   1.351   0.808  0.00  0.00    +0.430 HD
ATOM      3  C   LIG    1        2.829   0.708  -1.102  0.00  0.00    +0.520 C 
ATOM      4  O   LIG    1        2.128   0.515  -2.073  0.00  0.00    -0.480 OA
ENDROOT
BRANCH   1   9
ATOM      5  C   LIG    1       -1.100   2.546   0.146  0.00  0.00    +0.130 C 
ATOM      6  N   LIG    1       -1.272   1.085   0.223  0.00  0.00    -0.710 N 
ATOM      7  H   LIG    1       -2.111   0.602   0.286  0.00  0.00    +0.440 HD
ATOM      8  C   LIG    1       -0.037   0.551   0.189  0.00  0.00    +0.710 C 
ATOM      9  N   LIG    1        0.920   1.481   0.091  0.00  0.00    -0.380 N 
ATOM     10  O   LIG    1        0.183  -0.643   0.236  0.00  0.00    -0.520 OA
ATOM     11  C   LIG    1       -1.649   3.227   1.402  0.00  0.00    +0.100 C 
ATOM     12  C   LIG    1        0.402   2.725   0.057  0.00  0.00    +0.530 C 
ATOM     13  O   LIG    1        1.012   3.769  -0.027  0.00  0.00    -0.450 OA
BRANCH   5  15
ATOM     14  C   LIG    1       -3.297   2.906  -0.989  0.00  0.00    +0.050 C 
ATOM     15  C   LIG    1       -1.784   3.099  -1.106  0.00  0.00    +0.050 C 
ENDBRANCH   5  15
ENDBRANCH   1   9
BRANCH   3  16
ATOM     16  C   LIG    1        4.303   0.403  -1.165  0.00  0.00    +0.190 C 
ATOM     17  C   LIG    1        4.630  -0.736  -0.196  0.00  0.00    +0.060 C 
BRANCH  16  18
ATOM     18  O   LIG    1        4.652   0.011  -2.495  0.00  0.00    -0.280 OA
BRANCH  18  19
ATOM     19  C   LIG    1        5.944   0.196  -2.873  0.00  0.00    +0.120 A 
ATOM     20  C   LIG    1        6.882   0.638  -1.949  0.00  0.00    -0.040 A 
ATOM     21  C   LIG    1        8.199   0.829  -2.327  0.00  0.00    +0.050 A 
ATOM     22  C   LIG    1        8.591   0.580  -3.625  0.00  0.00    +0.030 A 
ATOM     23  C   LIG    1        7.655   0.133  -4.564  0.00  0.00    -0.130 A 
ATOM     24  C   LIG    1        6.326  -0.062  -4.178  0.00  0.00    +0.050 A 
BRANCH  23  25
ATOM     25  C   LIG    1        8.069  -0.134  -5.951  0.00  0.00    +0.390 C 
ATOM     26  O   LIG    1        7.256  -0.521  -6.763  0.00  0.00    -0.450 OA
ATOM     27  C   LIG    1        9.505   0.073  -6.362  0.00  0.00    +0.090 C 
ENDBRANCH  23  25
ENDBRANCH  18  19
ENDBRANCH  16  18
ENDBRANCH   3  16
TORSDOF 6
