REMARK  Name = ZINCrg00001Jdv6K.0
REMARK                            x       y       z     vdW  Elec       q    Type
REMARK                         _______ _______ _______ _____ _____    ______ ____
ROOT
ATOM      1  C   LIG    1       -3.586   5.678   1.620  0.00  0.00    +0.250 C 
ATOM      2  C   LIG    1       -2.291   5.380   0.845  0.00  0.00    +0.310 C 
ATOM      3  N   LIG    1       -1.207   6.183   1.427  0.00  0.00    -0.600 N 
ATOM      4  C   LIG    1       -1.374   7.640   1.516  0.00  0.00    +0.250 C 
ATOM      5  C   LIG    1       -2.666   7.939   2.287  0.00  0.00    +0.290 C 
ATOM      6  C   LIG    1       -1.466   8.234   0.109  0.00  0.00    +0.050 C 
ATOM      7  C   LIG    1       -0.077   5.593   1.865  0.00  0.00    +0.570 C 
ATOM      8  O   LIG    1        0.774   6.254   2.429  0.00  0.00    -0.520 OA
ATOM      9  N   LIG    1       -3.753   7.135   1.710  0.00  0.00    -0.600 N 
ATOM     10  C   LIG    1       -4.883   7.724   1.271  0.00  0.00    +0.570 C 
ATOM     11  O   LIG    1       -5.807   7.044   0.871  0.00  0.00    -0.500 OA
ENDROOT
BRANCH   7  12
ATOM     12  C   LIG    1        0.128   4.144   1.661  0.00  0.00    -0.190 A 
ATOM     13  C   LIG    1       -0.348   3.513   0.506  0.00  0.00    +0.100 A 
ATOM     14  C   LIG    1       -0.130   2.154   0.363  0.00  0.00    -0.030 A 
ATOM     15  C   LIG    1        0.545   1.469   1.357  0.00  0.00    +0.290 A 
ATOM     16  N   LIG    1        0.979   2.088   2.438  0.00  0.00    -0.480 NA
ATOM     17  C   LIG    1        0.800   3.381   2.617  0.00  0.00    +0.330 A 
ENDBRANCH   7  12
BRANCH  10  18
ATOM     18  C   LIG    1       -4.998   9.198   1.276  0.00  0.00    -0.180 A 
ATOM     19  C   LIG    1       -6.240   9.814   1.470  0.00  0.00    +0.130 A 
ATOM     20  C   LIG    1       -6.294  11.197   1.466  0.00  0.00    -0.020 A 
ATOM     21  C   LIG    1       -5.130  11.920   1.275  0.00  0.00    +0.290 A 
ATOM     22  N   LIG    1       -3.973  11.312   1.095  0.00  0.00    -0.480 NA
ATOM     23  C   LIG    1       -3.870   9.999   1.095  0.00  0.00    +0.290 A 
ENDBRANCH  10  18
BRANCH   1  24
ATOM     24  C   LIG    1       -4.760   5.078   0.890  0.00  0.00    +0.480 C 
ATOM     25  O   LIG    1       -4.961   5.362  -0.267  0.00  0.00    -0.480 OA
BRANCH  24  27
ATOM     26  C   LIG    1       -6.692   3.690   0.760  0.00  0.00    +0.270 C 
ATOM     27  O   LIG    1       -5.582   4.229   1.525  0.00  0.00    -0.360 OA
ENDBRANCH  24  27
ENDBRANCH   1  24
TORSDOF 4
