REMARK  Name = ZINCpk000004OdGU.0
REMARK                            x       y       z     vdW  Elec       q    Type
REMARK                         _______ _______ _______ _____ _____    ______ ____
ROOT
ATOM      1  C   LIG    1       -1.671   0.792   1.723  0.00  0.00    +0.510 C 
ATOM      2  N   LIG    1       -0.688   1.552   1.198  0.00  0.00    -0.600 N 
ATOM      3  C   LIG    1       -0.346   2.825   1.863  0.00  0.00    +0.250 C 
ATOM      4  C   LIG    1       -0.110   3.962   0.852  0.00  0.00    +0.020 C 
ATOM      5  C   LIG    1       -1.127   3.885  -0.260  0.00  0.00    +0.030 C 
ATOM      6  C   LIG    1       -0.563   3.047  -1.404  0.00  0.00    +0.010 C 
ATOM      7  C   LIG    1       -0.761   1.598  -1.248  0.00  0.00    +0.250 C 
ATOM      8  C   LIG    1       -0.013   1.086   0.008  0.00  0.00    +0.280 C 
ATOM      9  O   LIG    1       -1.971  -0.259   1.196  0.00  0.00    -0.480 OA
ENDROOT
BRANCH   1  14
ATOM     10  C   LIG    1       -2.108   0.828   6.777  0.00  0.00    +0.180 C 
ATOM     11  C   LIG    1       -2.383   0.741   5.298  0.00  0.00    +0.080 C 
ATOM     12  N   LIG    1       -3.433   0.251   4.762  0.00  0.00    -0.290 NA
ATOM     13  O   LIG    1       -3.409   0.298   3.348  0.00  0.00    -0.170 OA
ATOM     14  C   LIG    1       -2.395   1.248   2.963  0.00  0.00    +0.130 C 
ATOM     15  C   LIG    1       -1.459   1.220   4.195  0.00  0.00    +0.080 C 
ENDBRANCH   1  14
BRANCH   7  16
ATOM     16  N   LIG    1       -0.244   0.911  -2.434  0.00  0.00    -0.690 N 
ATOM     17  H   LIG    1        0.455   1.322  -2.966  0.00  0.00    +0.410 HD
BRANCH  16  18
ATOM     18  C   LIG    1       -0.754  -0.324  -2.795  0.00  0.00    +0.570 A 
ATOM     19  N   LIG    1       -1.705  -0.871  -2.053  0.00  0.00    -0.540 NA
ATOM     20  C   LIG    1       -2.220  -2.050  -2.372  0.00  0.00    +0.400 A 
ATOM     21  C   LIG    1       -1.742  -2.706  -3.487  0.00  0.00    -0.310 A 
ATOM     22  C   LIG    1       -2.069  -4.025  -4.141  0.00  0.00    +0.290 C 
ATOM     23  O   LIG    1       -1.537  -3.948  -5.477  0.00  0.00    -0.350 OA
ATOM     24  C   LIG    1       -0.421  -3.042  -5.382  0.00  0.00    +0.310 C 
ATOM     25  C   LIG    1       -0.740  -2.107  -4.241  0.00  0.00    +0.180 A 
ATOM     26  N   LIG    1       -0.274  -0.931  -3.873  0.00  0.00    -0.550 NA
ENDBRANCH  16  18
ENDBRANCH   7  16
TORSDOF 3
