REMARK  Name = ZINCpe000000UIgA.0
REMARK                            x       y       z     vdW  Elec       q    Type
REMARK                         _______ _______ _______ _____ _____    ______ ____
ROOT
ATOM      1  C   LIG    1       -2.857   1.558   4.111  0.00  0.00    +0.530 C 
ATOM      2  N   LIG    1       -3.810   2.247   4.769  0.00  0.00    -0.610 N 
ATOM      3  C   LIG    1       -4.710   3.176   4.064  0.00  0.00    +0.280 C 
ATOM      4  C   LIG    1       -6.141   2.657   4.221  0.00  0.00    +0.070 C 
ATOM      5  C   LIG    1       -6.401   2.260   5.643  0.00  0.00    -0.010 C 
ATOM      6  C   LIG    1       -5.463   2.007   6.524  0.00  0.00    -0.110 C 
ATOM      7  C   LIG    1       -3.998   2.096   6.219  0.00  0.00    +0.340 C 
ATOM      8  O   LIG    1       -2.130   0.799   4.716  0.00  0.00    -0.530 OA
ENDROOT
BRANCH   1  11
ATOM      9  N   LIG    1       -0.906   1.639   1.029  0.00  0.00    -0.610 N 
ATOM     10  C   LIG    1       -1.548   0.847   2.085  0.00  0.00    +0.290 C 
ATOM     11  C   LIG    1       -2.696   1.730   2.622  0.00  0.00    +0.000 C 
ATOM     12  C   LIG    1       -2.187   3.150   2.282  0.00  0.00    +0.070 C 
ATOM     13  C   LIG    1       -1.238   2.938   1.123  0.00  0.00    +0.510 C 
ATOM     14  O   LIG    1       -0.838   3.813   0.384  0.00  0.00    -0.470 OA
BRANCH   9  18
ATOM     15  C   LIG    1        1.783   2.938  -2.070  0.00  0.00    +0.160 C 
ATOM     16  N   LIG    1        0.833   2.688  -0.978  0.00  0.00    -0.450 NA
ATOM     17  C   LIG    1        1.388   1.724  -0.002  0.00  0.00    +0.150 C 
ATOM     18  C   LIG    1       -0.013   1.086   0.008  0.00  0.00    +0.230 C 
ATOM     19  C   LIG    1       -0.200   1.711  -1.386  0.00  0.00    +0.170 C 
ENDBRANCH   9  18
ENDBRANCH   1  11
BRANCH   6  20
ATOM     20  C   LIG    1       -5.872   1.608   7.888  0.00  0.00    -0.010 A 
ATOM     21  C   LIG    1       -5.582   2.419   8.991  0.00  0.00    -0.020 A 
ATOM     22  C   LIG    1       -5.987   2.011  10.245  0.00  0.00    +0.260 A 
ATOM     23  N   LIG    1       -6.630   0.871  10.412  0.00  0.00    -0.490 NA
ATOM     24  C   LIG    1       -6.918   0.075   9.400  0.00  0.00    +0.260 A 
ATOM     25  C   LIG    1       -6.556   0.407   8.111  0.00  0.00    -0.020 A 
ENDBRANCH   6  20
TORSDOF 3
