REMARK  Name = ZINCvU0000000EwB.0
REMARK                            x       y       z     vdW  Elec       q    Type
REMARK                         _______ _______ _______ _____ _____    ______ ____
ROOT
ATOM      1  C   LIG    1        2.968   3.318   2.797  0.00  0.00    +0.150 A 
ATOM      2  N   LIG    1        3.453   3.828   1.688  0.00  0.00    -0.290 NA
ATOM      3  N   LIG    1        4.603   4.356   1.915  0.00  0.00    -0.250 NA
ATOM      4  C   LIG    1        4.920   4.217   3.172  0.00  0.00    +0.200 A 
ATOM      5  N   LIG    1        3.888   3.555   3.782  0.00  0.00    -0.420 N 
ENDROOT
BRANCH   5   6
ATOM      6  C   LIG    1        3.793   3.194   5.134  0.00  0.00    +0.090 A 
ATOM      7  C   LIG    1        3.724   4.176   6.113  0.00  0.00    +0.070 A 
ATOM      8  C   LIG    1        3.626   3.818   7.443  0.00  0.00    +0.010 A 
ATOM      9  C   LIG    1        3.608   2.481   7.802  0.00  0.00    +0.120 A 
ATOM     10  C   LIG    1        3.683   1.500   6.828  0.00  0.00    +0.010 A 
ATOM     11  F   LIG    1        3.518   2.133   9.104  0.00  0.00    -0.130 F 
ATOM     12  C   LIG    1        3.775   1.854   5.496  0.00  0.00    +0.070 A 
ENDBRANCH   5   6
BRANCH   4  13
ATOM     13  C   LIG    1        6.185   4.700   3.833  0.00  0.00    +0.230 C 
ATOM     14  C   LIG    1        6.115   6.217   4.019  0.00  0.00    +0.070 C 
BRANCH  13  15
ATOM     15  N   LIG    1        7.338   4.363   2.987  0.00  0.00    -0.530 NA
ATOM     16  C   LIG    1        7.384   2.922   2.708  0.00  0.00    +0.190 C 
ATOM     17  C   LIG    1        8.592   4.821   3.601  0.00  0.00    +0.210 C 
ENDBRANCH  13  15
ENDBRANCH   4  13
BRANCH   1  18
ATOM     18  S   LIG    1        1.423   2.491   2.982  0.00  0.00    +0.090 S 
BRANCH  18  19
ATOM     19  C   LIG    1        0.810   2.586   1.282  0.00  0.00    +0.110 C 
BRANCH  19  22
ATOM     20  N   LIG    1       -1.191   1.867   0.018  0.00  0.00    -0.680 N 
ATOM     21  H   LIG    1       -0.827   2.320  -0.759  0.00  0.00    +0.420 HD
ATOM     22  C   LIG    1       -0.540   1.922   1.197  0.00  0.00    +0.550 C 
ATOM     23  O   LIG    1       -1.039   1.433   2.188  0.00  0.00    -0.500 OA
BRANCH  20  29
ATOM     24  C   LIG    1       -6.103   1.790   0.261  0.00  0.00    +0.120 C 
ATOM     25  C   LIG    1       -4.788   1.092   0.027  0.00  0.00    -0.060 A 
ATOM     26  C   LIG    1       -4.767  -0.253  -0.291  0.00  0.00    +0.060 A 
ATOM     27  C   LIG    1       -3.562  -0.897  -0.507  0.00  0.00    +0.050 A 
ATOM     28  C   LIG    1       -2.375  -0.196  -0.411  0.00  0.00    -0.030 A 
ATOM     29  C   LIG    1       -2.392   1.155  -0.086  0.00  0.00    +0.150 A 
ATOM     30 CL   LIG    1       -0.864  -1.004  -0.690  0.00  0.00    -0.040 Cl
ATOM     31  C   LIG    1       -3.604   1.798   0.130  0.00  0.00    -0.020 A 
ATOM     32 CL   LIG    1       -3.631   3.488   0.530  0.00  0.00    -0.040 Cl
ENDBRANCH  20  29
ENDBRANCH  19  22
ENDBRANCH  18  19
ENDBRANCH   1  18
TORSDOF 7
