REMARK  Name = ZINCvU0000000B0H.0
REMARK                            x       y       z     vdW  Elec       q    Type
REMARK                         _______ _______ _______ _____ _____    ______ ____
ROOT
ATOM      1  C   LIG    1        1.308  -0.418   0.044  0.00  0.00    +0.320 C 
ATOM      2  N   LIG    1        2.125   0.603   0.025  0.00  0.00    -0.510 NA
ATOM      3  C   LIG    1        1.399   1.760   0.019  0.00  0.00    -0.030 C 
ATOM      4  C   LIG    1       -0.018   1.350   0.038  0.00  0.00    +0.530 C 
ATOM      5  O   LIG    1       -0.996   2.075   0.035  0.00  0.00    -0.460 OA
ATOM      6  C   LIG    1        1.886   3.036  -0.000  0.00  0.00    +0.200 C 
ATOM      7  N   LIG    1       -0.002  -0.001   0.052  0.00  0.00    -0.510 N 
ENDROOT
BRANCH   6   8
ATOM      8  C   LIG    1        3.331   3.271   0.098  0.00  0.00    -0.070 A 
ATOM      9  C   LIG    1        4.222   2.192   0.085  0.00  0.00    +0.100 A 
ATOM     10  C   LIG    1        5.578   2.421   0.177  0.00  0.00    +0.030 A 
ATOM     11  C   LIG    1        6.061   3.715   0.282  0.00  0.00    -0.010 A 
ATOM     12  C   LIG    1        5.184   4.790   0.296  0.00  0.00    -0.040 A 
ATOM     13 CL   LIG    1        5.801   6.408   0.428  0.00  0.00    -0.040 Cl
ATOM     14 CL   LIG    1        7.770   3.993   0.397  0.00  0.00    -0.040 Cl
ATOM     15  C   LIG    1        3.826   4.578   0.200  0.00  0.00    +0.080 A 
ENDBRANCH   6   8
BRANCH   7  16
ATOM     16  C   LIG    1       -1.129  -0.836   0.074  0.00  0.00    +0.070 A 
ATOM     17  C   LIG    1       -1.703  -1.259  -1.116  0.00  0.00    +0.070 A 
ATOM     18  C   LIG    1       -2.811  -2.085  -1.093  0.00  0.00    +0.020 A 
ATOM     19  C   LIG    1       -3.354  -2.482   0.115  0.00  0.00    +0.070 A 
ATOM     20  C   LIG    1       -2.788  -2.060   1.304  0.00  0.00    +0.000 A 
ATOM     21  C   LIG    1       -1.676  -1.237   1.287  0.00  0.00    +0.120 A 
ATOM     22  F   LIG    1       -1.123  -0.824   2.449  0.00  0.00    -0.130 F 
ENDBRANCH   7  16
BRANCH   1  23
ATOM     23  S   LIG    1        1.818  -2.104   0.058  0.00  0.00    +0.100 S 
BRANCH  23  24
ATOM     24  C   LIG    1        3.615  -1.889   0.037  0.00  0.00    +0.070 C 
BRANCH  24  26
ATOM     25  O   LIG    1        3.609  -4.250   0.064  0.00  0.00    -0.440 OA
ATOM     26  C   LIG    1        4.283  -3.240   0.046  0.00  0.00    +0.440 C 
BRANCH  26  27
ATOM     27  C   LIG    1        5.693  -3.332   0.033  0.00  0.00    -0.100 A 
ATOM     28  C   LIG    1        6.439  -4.498   0.038  0.00  0.00    +0.070 A 
ATOM     29  C   LIG    1        7.783  -4.121   0.021  0.00  0.00    -0.070 A 
ATOM     30  C   LIG    1        7.836  -2.765   0.005  0.00  0.00    +0.230 A 
ATOM     31  N   LIG    1        6.579  -2.276   0.006  0.00  0.00    -0.530 N 
ATOM     32  H   LIG    1        6.339  -1.336  -0.008  0.00  0.00    +0.420 HD
ENDBRANCH  26  27
ENDBRANCH  24  26
ENDBRANCH  23  24
ENDBRANCH   1  23
TORSDOF 6
