REMARK  Name = ZINCrD000000A7dM.0
REMARK                            x       y       z     vdW  Elec       q    Type
REMARK                         _______ _______ _______ _____ _____    ______ ____
ROOT
ATOM      1  C   LIG    1        4.443   3.735   1.765  0.00  0.00    +0.500 A 
ATOM      2  N   LIG    1        4.941   2.933   2.687  0.00  0.00    -0.550 NA
ATOM      3  C   LIG    1        5.674   3.428   3.693  0.00  0.00    +0.190 A 
ATOM      4  C   LIG    1        6.217   2.605   4.689  0.00  0.00    +0.030 A 
ATOM      5  C   LIG    1        6.957   3.160   5.692  0.00  0.00    +0.070 A 
ATOM      6  C   LIG    1        7.181   4.533   5.743  0.00  0.00    +0.000 A 
ATOM      7  C   LIG    1        6.666   5.363   4.790  0.00  0.00    +0.070 A 
ATOM      8  C   LIG    1        5.904   4.826   3.747  0.00  0.00    -0.180 A 
ATOM      9  C   LIG    1        5.344   5.639   2.729  0.00  0.00    +0.290 A 
ATOM     10  N   LIG    1        4.638   5.051   1.773  0.00  0.00    -0.520 NA
ENDROOT
BRANCH   1  16
ATOM     11  O   LIG    1        0.499  -0.073  -0.695  0.00  0.00    -0.540 OA
ATOM     12  C   LIG    1        0.484   1.140  -0.718  0.00  0.00    +0.550 C 
ATOM     13  N   LIG    1        1.629   1.831  -0.554  0.00  0.00    -0.620 N 
ATOM     14  C   LIG    1        1.635   3.302  -0.585  0.00  0.00    +0.290 C 
ATOM     15  C   LIG    1        2.364   3.807   0.670  0.00  0.00    +0.210 C 
ATOM     16  N   LIG    1        3.692   3.184   0.743  0.00  0.00    -0.460 N 
ATOM     17  C   LIG    1        3.588   1.726   0.893  0.00  0.00    +0.220 C 
ATOM     18  C   LIG    1        2.908   1.135  -0.346  0.00  0.00    +0.290 C 
BRANCH  12  19
ATOM     19  C   LIG    1       -0.814   1.873  -0.935  0.00  0.00    -0.070 C 
ATOM     20  C   LIG    1       -1.859   1.806   0.180  0.00  0.00    +0.060 C 
ATOM     21  C   LIG    1       -2.079   1.032  -1.121  0.00  0.00    +0.070 C 
ENDBRANCH  12  19
ENDBRANCH   1  16
BRANCH   9  22
ATOM     22  C   LIG    1        5.548   7.105   2.730  0.00  0.00    -0.060 A 
ATOM     23  C   LIG    1        4.479   7.961   2.463  0.00  0.00    +0.060 A 
ATOM     24  C   LIG    1        4.674   9.327   2.470  0.00  0.00    +0.010 A 
ATOM     25  C   LIG    1        5.930   9.848   2.730  0.00  0.00    +0.030 A 
ATOM     26  C   LIG    1        6.995   9.004   2.990  0.00  0.00    +0.010 A 
ATOM     27  C   LIG    1        6.811   7.636   2.991  0.00  0.00    +0.040 A 
ENDBRANCH   9  22
TORSDOF 3
