REMARK  Name = ZINCrD0000074zY8.0
REMARK                            x       y       z     vdW  Elec       q    Type
REMARK                         _______ _______ _______ _____ _____    ______ ____
ROOT
ATOM      1  C   LIG    1        1.709  -1.884  -0.024  0.00  0.00    +0.420 C 
ENDROOT
BRANCH   1   5
ATOM      2  C   LIG    1        1.207   1.675  -0.001  0.00  0.00    +0.210 A 
ATOM      3  N   LIG    1       -0.014   1.209   0.009  0.00  0.00    -0.360 NA
ATOM      4  O   LIG    1        0.002  -0.004   0.002  0.00  0.00    +0.100 OA
ATOM      5  C   LIG    1        1.264  -0.445  -0.012  0.00  0.00    +0.180 A 
ATOM      6  N   LIG    1        2.041   0.610  -0.014  0.00  0.00    -0.440 NA
BRANCH   2  11
ATOM      7  C   LIG    1        2.756   7.224   0.014  0.00  0.00    +0.110 C 
ATOM      8  C   LIG    1        2.350   5.773   0.010  0.00  0.00    -0.100 A 
ATOM      9  C   LIG    1        3.319   4.786  -0.005  0.00  0.00    +0.050 A 
ATOM     10  C   LIG    1        2.953   3.455  -0.003  0.00  0.00    +0.060 A 
ATOM     11  C   LIG    1        1.605   3.105   0.003  0.00  0.00    -0.000 A 
ATOM     12  C   LIG    1        0.631   4.101   0.018  0.00  0.00    +0.030 A 
ATOM     13  C   LIG    1        1.007   5.431   0.021  0.00  0.00    +0.100 A 
ATOM     14  F   LIG    1        0.065   6.399   0.035  0.00  0.00    -0.130 F 
ENDBRANCH   2  11
ENDBRANCH   1   5
BRANCH   1  15
ATOM     15  O   LIG    1        1.865  -2.353   1.342  0.00  0.00    -0.350 OA
BRANCH  15  16
ATOM     16  C   LIG    1        2.262  -3.631   1.508  0.00  0.00    +0.530 C 
ATOM     17  O   LIG    1        2.471  -4.333   0.539  0.00  0.00    -0.490 OA
BRANCH  16  18
ATOM     18  C   LIG    1        2.441  -4.176   2.867  0.00  0.00    -0.130 A 
ATOM     19  C   LIG    1        2.206  -3.368   3.982  0.00  0.00    +0.100 A 
ATOM     20  C   LIG    1        2.370  -3.882   5.250  0.00  0.00    +0.020 A 
ATOM     21  C   LIG    1        2.780  -5.198   5.425  0.00  0.00    +0.090 A 
ATOM     22  O   LIG    1        2.944  -5.681   6.686  0.00  0.00    -0.300 OA
ATOM     23  C   LIG    1        2.989  -7.104   6.829  0.00  0.00    +0.230 C 
ATOM     24  C   LIG    1        3.932  -7.666   5.757  0.00  0.00    +0.230 C 
ATOM     25  O   LIG    1        3.417  -7.301   4.472  0.00  0.00    -0.300 OA
ATOM     26  C   LIG    1        3.020  -6.008   4.317  0.00  0.00    +0.040 A 
ATOM     27  C   LIG    1        2.852  -5.500   3.042  0.00  0.00    +0.110 A 
ENDBRANCH  16  18
ENDBRANCH  15  16
ENDBRANCH   1  15
TORSDOF 5
