REMARK  Name = ZINCbw0000000Hbc.0
REMARK                            x       y       z     vdW  Elec       q    Type
REMARK                         _______ _______ _______ _____ _____    ______ ____
ROOT
ATOM      1  C   LIG    1        0.486  -0.122   1.953  0.00  0.00    +0.160 C 
ATOM      2  C   LIG    1        0.458  -1.572   1.465  0.00  0.00    +0.060 C 
ENDROOT
BRANCH   1   4
ATOM      3  C   LIG    1        0.666   0.399   4.332  0.00  0.00    +0.020 C 
ATOM      4  C   LIG    1       -0.075  -0.051   3.350  0.00  0.00    -0.080 C 
ENDBRANCH   1   4
BRANCH   1   5
ATOM      5  O   LIG    1        1.834   0.353   1.957  0.00  0.00    -0.550 OA
ATOM      6  H   LIG    1        1.928   1.268   2.256  0.00  0.00    +0.370 HD
ENDBRANCH   1   5
BRANCH   1   7
ATOM      7  C   LIG    1       -0.358   0.747   1.019  0.00  0.00    +0.010 C 
BRANCH   7   8
ATOM      8  C   LIG    1        0.134   0.578  -0.419  0.00  0.00    +0.060 C 
BRANCH   8   9
ATOM      9  C   LIG    1       -0.697   1.434  -1.339  0.00  0.00    -0.060 C 
ATOM     10  C   LIG    1       -0.123   2.351  -2.077  0.00  0.00    -0.130 C 
ATOM     11  C   LIG    1       -0.933   3.116  -3.092  0.00  0.00    +0.070 C 
ATOM     12  C   LIG    1        1.346   2.642  -1.911  0.00  0.00    +0.080 C 
ENDBRANCH   8   9
ENDBRANCH   7   8
ENDBRANCH   1   7
TORSDOF 5
