REMARK  Name = ZINCqH0000001zwQ.0
REMARK                            x       y       z     vdW  Elec       q    Type
REMARK                         _______ _______ _______ _____ _____    ______ ____
ROOT
ATOM      1  C   LIG    1       -1.258   5.912  -0.066  0.00  0.00    +0.360 A 
ATOM      2  N   LIG    1       -1.318   7.218  -0.057  0.00  0.00    -0.520 NA
ATOM      3  C   LIG    1       -0.195   7.985   0.034  0.00  0.00    +0.180 A 
ATOM      4  C   LIG    1        1.038   7.345   0.126  0.00  0.00    -0.340 A 
ATOM      5  C   LIG    1        1.085   5.934   0.122  0.00  0.00    +0.580 A 
ATOM      6  O   LIG    1        2.153   5.349   0.201  0.00  0.00    -0.510 OA
ATOM      7  S   LIG    1        2.318   8.546   0.232  0.00  0.00    +0.230 S 
ATOM      8  C   LIG    1        1.154   9.858   0.149  0.00  0.00    +0.010 A 
ATOM      9  C   LIG    1       -0.081   9.380   0.050  0.00  0.00    +0.030 A 
ATOM     10  N   LIG    1       -0.069   5.243   0.028  0.00  0.00    -0.470 N 
ENDROOT
BRANCH  10  11
ATOM     11  C   LIG    1       -0.050   3.842   0.022  0.00  0.00    +0.090 A 
ATOM     12  C   LIG    1       -0.137   3.140   1.216  0.00  0.00    +0.040 A 
ATOM     13  C   LIG    1       -0.118   1.759   1.207  0.00  0.00    +0.030 A 
ATOM     14  C   LIG    1       -0.011   1.076   0.009  0.00  0.00    +0.030 A 
ATOM     15  C   LIG    1        0.081   1.772  -1.181  0.00  0.00    +0.030 A 
ATOM     16  C   LIG    1        0.056   3.153  -1.179  0.00  0.00    +0.040 A 
ENDBRANCH  10  11
BRANCH   1  17
ATOM     17  S   LIG    1       -2.752   4.988  -0.195  0.00  0.00    +0.100 S 
BRANCH  17  18
ATOM     18  C   LIG    1       -3.952   6.340  -0.286  0.00  0.00    +0.100 C 
BRANCH  18  21
ATOM     19  N   LIG    1       -6.404   6.598  -0.487  0.00  0.00    -0.720 N 
ATOM     20  H   LIG    1       -6.273   7.559  -0.471  0.00  0.00    +0.400 HD
ATOM     21  C   LIG    1       -5.343   5.771  -0.404  0.00  0.00    +0.530 C 
ATOM     22  O   LIG    1       -5.506   4.570  -0.424  0.00  0.00    -0.520 OA
BRANCH  19  23
ATOM     23  C   LIG    1       -7.756   6.045  -0.602  0.00  0.00    +0.240 C 
ATOM     24  C   LIG    1       -8.061   5.744  -2.070  0.00  0.00    +0.020 C 
BRANCH  23  26
ATOM     25  C   LIG    1       -8.763   8.303  -0.959  0.00  0.00    +0.020 C 
ATOM     26  C   LIG    1       -8.769   7.059  -0.068  0.00  0.00    -0.020 C 
ATOM     27  C   LIG    1      -10.166   6.435  -0.071  0.00  0.00    +0.030 C 
ENDBRANCH  23  26
ENDBRANCH  19  23
ENDBRANCH  18  21
ENDBRANCH  17  18
ENDBRANCH   1  17
TORSDOF 6
