REMARK  Name = ZINC650000003VOn.1
REMARK                            x       y       z     vdW  Elec       q    Type
REMARK                         _______ _______ _______ _____ _____    ______ ____
ROOT
ATOM      1  C   LIG    1        3.509   0.688  -0.027  0.00  0.00    +0.140 C 
ATOM      2  C   LIG    1        2.002   0.667  -0.013  0.00  0.00    +0.040 A 
ATOM      3  N   LIG    1        1.198   1.720  -0.000  0.00  0.00    -0.390 NA
ATOM      4  N   LIG    1       -0.015   1.283   0.009  0.00  0.00    -0.200 NA
ATOM      5  N   LIG    1        0.002  -0.004   0.002  0.00  0.00    -0.200 NA
ATOM      6  N   LIG    1        1.227  -0.407  -0.012  0.00  0.00    -0.390 NA
ENDROOT
TORSDOF 0
