REMARK  Name = ZINCrD000000D8gZ.1
REMARK                            x       y       z     vdW  Elec       q    Type
REMARK                         _______ _______ _______ _____ _____    ______ ____
ROOT
ATOM      1  C   LIG    1        6.230   2.298   0.674  0.00  0.00    +0.130 A 
ATOM      2  C   LIG    1        5.813   1.401  -0.299  0.00  0.00    +0.060 A 
ATOM      3  C   LIG    1        4.529   0.890  -0.262  0.00  0.00    +0.010 A 
ATOM      4  C   LIG    1        3.657   1.279   0.738  0.00  0.00    -0.040 A 
ATOM      5  C   LIG    1        4.068   2.173   1.710  0.00  0.00    +0.020 A 
ATOM      6  C   LIG    1        5.352   2.684   1.682  0.00  0.00    +0.110 A 
ATOM      7  F   LIG    1        5.753   3.557   2.631  0.00  0.00    -0.120 F 
ENDROOT
BRANCH   1  14
ATOM      8  O   LIG    1        8.501   2.328   2.849  0.00  0.00    -0.940 OA
ATOM      9  S   LIG    1        8.849   2.218   1.475  0.00  0.00    +2.560 S 
ATOM     10  C   LIG    1       10.095   3.479   1.002  0.00  0.00    -0.320 C 
ATOM     11  C   LIG    1        9.169   4.657   0.583  0.00  0.00    +0.090 C 
ATOM     12  C   LIG    1        7.988   3.973  -0.136  0.00  0.00    +0.260 C 
ATOM     13  O   LIG    1        9.131   0.961   0.875  0.00  0.00    -0.950 OA
ATOM     14  N   LIG    1        7.530   2.813   0.642  0.00  0.00    -0.950 N 
ENDBRANCH   1  14
BRANCH   4  15
ATOM     15  C   LIG    1        2.256   0.723   0.771  0.00  0.00    +0.230 C 
BRANCH  15  16
ATOM     16  N   LIG    1        1.364   1.597  -0.002  0.00  0.00    -0.660 NA
ATOM     17  H   LIG    1        1.700   1.712  -0.947  0.00  0.00    +0.350 HD
BRANCH  16  18
ATOM     18  C   LIG    1       -0.013   1.086   0.008  0.00  0.00    +0.190 C 
ATOM     19  C   LIG    1       -0.758   1.595  -1.226  0.00  0.00    +0.020 C 
ATOM     20  C   LIG    1       -0.340   3.017  -1.563  0.00  0.00    +0.000 C 
ATOM     21  C   LIG    1       -0.769   4.037  -0.529  0.00  0.00    +0.210 C 
ATOM     22  O   LIG    1       -0.106   3.811   0.719  0.00  0.00    -0.310 OA
ATOM     23  C   LIG    1       -0.713   2.924   1.555  0.00  0.00    +0.130 A 
ATOM     24  C   LIG    1       -1.345   3.380   2.704  0.00  0.00    -0.010 A 
ATOM     25  C   LIG    1       -1.999   2.483   3.527  0.00  0.00    +0.030 A 
ATOM     26  C   LIG    1       -2.024   1.138   3.210  0.00  0.00    -0.010 A 
ATOM     27  C   LIG    1       -1.387   0.682   2.069  0.00  0.00    +0.020 A 
ATOM     28  C   LIG    1       -0.729   1.578   1.251  0.00  0.00    -0.110 A 
ENDBRANCH  16  18
ENDBRANCH  15  16
ENDBRANCH   4  15
TORSDOF 4
