REMARK  Name = ZINCkj000005lUkW.1
REMARK                            x       y       z     vdW  Elec       q    Type
REMARK                         _______ _______ _______ _____ _____    ______ ____
ROOT
ATOM      1  O   LIG    1       -4.744   2.611  -1.033  0.00  0.00    -0.510 OA
ATOM      2  C   LIG    1       -3.888   3.475  -1.038  0.00  0.00    +0.580 C 
ATOM      3  N   LIG    1       -2.592   3.140  -0.882  0.00  0.00    -0.730 N 
ATOM      4  H   LIG    1       -1.909   3.828  -0.885  0.00  0.00    +0.400 HD
ENDROOT
BRANCH   2   5
ATOM      5  C   LIG    1       -4.268   4.890  -1.214  0.00  0.00    -0.140 A 
ATOM      6  C   LIG    1       -3.287   5.884  -1.214  0.00  0.00    +0.070 A 
ATOM      7  C   LIG    1       -3.643   7.204  -1.385  0.00  0.00    +0.040 A 
ATOM      8  C   LIG    1       -4.977   7.553  -1.545  0.00  0.00    +0.070 A 
ATOM      9  O   LIG    1       -5.577   8.764  -1.722  0.00  0.00    -0.300 OA
ATOM     10  C   LIG    1       -6.968   8.555  -1.415  0.00  0.00    +0.440 C 
ATOM     11  O   LIG    1       -7.179   7.162  -1.714  0.00  0.00    -0.300 OA
ATOM     12  C   LIG    1       -5.963   6.565  -1.540  0.00  0.00    +0.030 A 
ATOM     13  C   LIG    1       -5.612   5.239  -1.376  0.00  0.00    +0.110 A 
ENDBRANCH   2   5
BRANCH   3  14
ATOM     14  C   LIG    1       -2.214   1.735  -0.707  0.00  0.00    +0.260 C 
ATOM     15  C   LIG    1       -2.230   1.356   0.792  0.00  0.00    +0.070 C 
ATOM     16  C   LIG    1       -0.741   1.501   1.203  0.00  0.00    +0.270 C 
ATOM     17  N   LIG    1       -0.012   1.005   0.008  0.00  0.00    -0.370 N 
ATOM     18  H   LIG    1        0.002  -0.004   0.002  0.00  0.00    +0.430 HD
ATOM     19  C   LIG    1       -0.761   1.511  -1.163  0.00  0.00    +0.280 C 
BRANCH  17  20
ATOM     20  C   LIG    1        1.360   1.531  -0.003  0.00  0.00    +0.090 C 
ATOM     21  C   LIG    1        2.497   0.535  -0.241  0.00  0.00    +0.100 C 
ATOM     22  C   LIG    1        2.280   1.128   1.152  0.00  0.00    +0.100 C 
ENDBRANCH  17  20
ENDBRANCH   3  14
TORSDOF 3
