REMARK  Name = ZINCkj000005lUkW.0
REMARK                            x       y       z     vdW  Elec       q    Type
REMARK                         _______ _______ _______ _____ _____    ______ ____
ROOT
ATOM      1  O   LIG    1        3.718  -1.892  -0.045  0.00  0.00    -0.510 OA
ATOM      2  C   LIG    1        3.697  -0.676  -0.038  0.00  0.00    +0.580 C 
ATOM      3  N   LIG    1        4.853   0.017  -0.045  0.00  0.00    -0.730 N 
ATOM      4  H   LIG    1        4.836   0.987  -0.039  0.00  0.00    +0.400 HD
ENDROOT
BRANCH   2   5
ATOM      5  C   LIG    1        2.407   0.040  -0.021  0.00  0.00    -0.140 A 
ATOM      6  C   LIG    1        2.381   1.436  -0.013  0.00  0.00    +0.070 A 
ATOM      7  C   LIG    1        1.175   2.103   0.002  0.00  0.00    +0.040 A 
ATOM      8  C   LIG    1       -0.017   1.392   0.010  0.00  0.00    +0.070 A 
ATOM      9  O   LIG    1       -1.315   1.808   0.030  0.00  0.00    -0.300 OA
ATOM     10  C   LIG    1       -2.091   0.668  -0.387  0.00  0.00    +0.440 C 
ATOM     11  O   LIG    1       -1.286  -0.457   0.012  0.00  0.00    -0.300 OA
ATOM     12  C   LIG    1        0.002  -0.004   0.002  0.00  0.00    +0.030 A 
ATOM     13  C   LIG    1        1.207  -0.678  -0.013  0.00  0.00    +0.110 A 
ENDBRANCH   2   5
BRANCH   3  14
ATOM     14  C   LIG    1        6.134  -0.693  -0.062  0.00  0.00    +0.260 C 
ATOM     15  C   LIG    1        6.590  -1.011   1.381  0.00  0.00    +0.070 C 
ATOM     16  C   LIG    1        8.120  -0.764   1.321  0.00  0.00    +0.280 C 
ATOM     17  N   LIG    1        8.241   0.411   0.421  0.00  0.00    -0.370 N 
ATOM     18  H   LIG    1        8.043   1.261   0.928  0.00  0.00    +0.420 HD
ATOM     19  C   LIG    1        7.237   0.208  -0.646  0.00  0.00    +0.280 C 
BRANCH  17  20
ATOM     20  C   LIG    1        9.590   0.470  -0.157  0.00  0.00    +0.100 C 
ATOM     21  C   LIG    1       10.473   1.658   0.228  0.00  0.00    +0.100 C 
ATOM     22  C   LIG    1        9.874   1.573  -1.178  0.00  0.00    +0.090 C 
ENDBRANCH  17  20
ENDBRANCH   3  14
TORSDOF 3
