REMARK  Name = ZINCkj000005iA5n.1
REMARK                            x       y       z     vdW  Elec       q    Type
REMARK                         _______ _______ _______ _____ _____    ______ ____
ROOT
ATOM      1  C   LIG    1        1.187   3.321   0.027  0.00  0.00    +0.230 C 
ATOM      2  C   LIG    1        1.260   1.931   0.022  0.00  0.00    -0.100 C 
ATOM      3  C   LIG    1        0.091   1.197   0.026  0.00  0.00    +0.370 C 
ATOM      4  N   LIG    1       -1.084   1.798   0.031  0.00  0.00    -0.430 NA
ATOM      5  C   LIG    1       -1.194   3.113   0.041  0.00  0.00    +0.120 C 
ATOM      6  H   LIG    1       -1.889   1.257   0.030  0.00  0.00    +0.450 HD
ATOM      7  C   LIG    1        2.598   1.236   0.011  0.00  0.00    +0.170 C 
ATOM      8  C   LIG    1       -0.073   3.916   0.037  0.00  0.00    -0.080 C 
ATOM      9  C   LIG    1       -0.208   5.417   0.044  0.00  0.00    +0.170 C 
ENDROOT
BRANCH   1  11
ATOM     10  C   LIG    1        2.844   4.444  -1.253  0.00  0.00    +0.280 C 
ATOM     11  O   LIG    1        2.314   4.078   0.023  0.00  0.00    -0.320 OA
ENDBRANCH   1  11
BRANCH   5  12
ATOM     12  C   LIG    1       -2.562   3.745   0.052  0.00  0.00    +0.410 C 
BRANCH  12  13
ATOM     13  N   LIG    1       -2.918   4.160  -1.307  0.00  0.00    -0.420 N 
ATOM     14  C   LIG    1       -2.204   3.908  -2.447  0.00  0.00    +0.150 A 
ATOM     15  C   LIG    1       -2.886   4.466  -3.466  0.00  0.00    +0.190 A 
ATOM     16  N   LIG    1       -3.987   5.043  -2.962  0.00  0.00    -0.380 NA
ATOM     17  C   LIG    1       -4.016   4.859  -1.670  0.00  0.00    -0.320 A 
BRANCH  17  18
ATOM     18  S   LIG    1       -5.276   5.431  -0.579  0.00  0.00    +2.520 S 
ATOM     19  O   LIG    1       -5.166   4.584   0.557  0.00  0.00    -0.930 OA
ATOM     20  O   LIG    1       -6.452   5.438  -1.376  0.00  0.00    -0.890 OA
ATOM     21  C   LIG    1       -4.779   7.125  -0.162  0.00  0.00    -0.210 C 
ENDBRANCH  17  18
ENDBRANCH  12  13
ENDBRANCH   5  12
TORSDOF 4
