REMARK  Name = ZINCvU0000000570.0
REMARK                            x       y       z     vdW  Elec       q    Type
REMARK                         _______ _______ _______ _____ _____    ______ ____
ROOT
ATOM      1  N   LIG    1        2.477  13.647   0.054  0.00  0.00    -0.620 N 
ATOM      2  H   LIG    1        1.700  14.227   0.066  0.00  0.00    +0.430 HD
ATOM      3  C   LIG    1        2.319  12.308   0.048  0.00  0.00    +0.520 C 
ATOM      4  O   LIG    1        3.290  11.583   0.034  0.00  0.00    -0.480 OA
ENDROOT
BRANCH   1   8
ATOM      5  C   LIG    1        5.305  15.805   0.040  0.00  0.00    +0.130 A 
ATOM      6  C   LIG    1        6.176  14.780   0.024  0.00  0.00    -0.110 A 
ATOM      7  S   LIG    1        5.256  13.277   0.024  0.00  0.00    +0.210 S 
ATOM      8  C   LIG    1        3.754  14.195   0.045  0.00  0.00    +0.270 A 
ATOM      9  N   LIG    1        4.024  15.463   0.045  0.00  0.00    -0.490 NA
BRANCH   5  14
ATOM     10  C   LIG    1        7.024  21.302   0.056  0.00  0.00    +0.090 C 
ATOM     11  C   LIG    1        6.574  19.863   0.052  0.00  0.00    -0.080 A 
ATOM     12  C   LIG    1        5.224  19.563   0.064  0.00  0.00    +0.010 A 
ATOM     13  C   LIG    1        4.806  18.248   0.060  0.00  0.00    +0.050 A 
ATOM     14  C   LIG    1        5.748  17.221   0.044  0.00  0.00    -0.030 A 
ATOM     15  C   LIG    1        7.107  17.529   0.037  0.00  0.00    +0.030 A 
ATOM     16  C   LIG    1        7.513  18.848   0.036  0.00  0.00    +0.010 A 
ENDBRANCH   5  14
ENDBRANCH   1   8
BRANCH   3  17
ATOM     17  C   LIG    1        0.934  11.713   0.058  0.00  0.00    +0.300 C 
BRANCH  17  18
ATOM     18  O   LIG    1        1.030  10.264   0.048  0.00  0.00    -0.330 OA
BRANCH  18  19
ATOM     19  C   LIG    1       -0.128   9.575   0.056  0.00  0.00    +0.520 C 
ATOM     20  O   LIG    1       -1.188  10.168   0.070  0.00  0.00    -0.500 OA
BRANCH  19  21
ATOM     21  C   LIG    1       -0.108   8.099   0.047  0.00  0.00    -0.130 A 
ATOM     22  C   LIG    1       -1.308   7.383   0.054  0.00  0.00    +0.090 A 
ATOM     23  C   LIG    1       -1.288   6.007   0.046  0.00  0.00    +0.010 A 
ATOM     24  C   LIG    1       -0.070   5.327   0.031  0.00  0.00    -0.000 A 
ATOM     25  C   LIG    1        1.129   6.040   0.029  0.00  0.00    +0.010 A 
ATOM     26  C   LIG    1        1.111   7.416   0.031  0.00  0.00    +0.090 A 
BRANCH  24  27
ATOM     27  C   LIG    1       -0.050   3.844   0.023  0.00  0.00    -0.060 A 
ATOM     28  C   LIG    1        1.165   3.161   0.008  0.00  0.00    +0.030 A 
ATOM     29  C   LIG    1        1.177   1.781   0.000  0.00  0.00    +0.010 A 
ATOM     30  C   LIG    1       -0.013   1.076   0.008  0.00  0.00    +0.020 A 
ATOM     31  C   LIG    1       -1.221   1.748   0.017  0.00  0.00    +0.010 A 
ATOM     32  C   LIG    1       -1.246   3.128   0.031  0.00  0.00    +0.030 A 
ENDBRANCH  24  27
ENDBRANCH  19  21
ENDBRANCH  18  19
ENDBRANCH  17  18
ENDBRANCH   3  17
TORSDOF 7
