REMARK  Name = ZINCnE000001GQeI.1
REMARK                            x       y       z     vdW  Elec       q    Type
REMARK                         _______ _______ _______ _____ _____    ______ ____
ROOT
ATOM      1  N   LIG    1       -2.933   0.683   1.282  0.00  0.00    -0.680 NA
ATOM      2  H   LIG    1       -2.219   0.187   1.794  0.00  0.00    +0.340 HD
ENDROOT
BRANCH   1   3
ATOM      3  C   LIG    1       -2.601   0.754  -0.148  0.00  0.00    +0.240 C 
BRANCH   3   8
ATOM      4  C   LIG    1       -0.078   3.517  -0.658  0.00  0.00    +0.080 A 
ATOM      5  C   LIG    1        1.087   2.764  -0.647  0.00  0.00    +0.160 A 
ATOM      6  N   LIG    1        1.041   1.457  -0.481  0.00  0.00    -0.450 NA
ATOM      7  C   LIG    1       -0.100   0.817  -0.320  0.00  0.00    +0.230 A 
ATOM      8  C   LIG    1       -1.303   1.498  -0.326  0.00  0.00    -0.080 A 
ATOM      9  C   LIG    1       -1.300   2.873  -0.492  0.00  0.00    +0.050 A 
BRANCH   4  10
ATOM     10  O   LIG    1       -0.026   4.864  -0.829  0.00  0.00    -0.310 OA
BRANCH  10  12
ATOM     11  C   LIG    1        1.126   6.961  -1.171  0.00  0.00    +0.070 C 
ATOM     12  C   LIG    1        1.268   5.448  -0.993  0.00  0.00    +0.170 C 
ENDBRANCH  10  12
ENDBRANCH   4  10
ENDBRANCH   3   8
ENDBRANCH   1   3
BRANCH   1  13
ATOM     13  C   LIG    1       -4.252   0.068   1.486  0.00  0.00    +0.210 C 
BRANCH  13  14
ATOM     14  C   LIG    1       -4.345  -0.464   2.893  0.00  0.00    -0.060 A 
ATOM     15  C   LIG    1       -3.808   0.258   3.942  0.00  0.00    +0.030 A 
ATOM     16  C   LIG    1       -3.898  -0.227   5.233  0.00  0.00    -0.010 A 
ATOM     17  C   LIG    1       -4.515  -1.442   5.474  0.00  0.00    -0.040 A 
ATOM     18  C   LIG    1       -5.048  -2.167   4.423  0.00  0.00    +0.010 A 
ATOM     19 CL   LIG    1       -4.623  -2.055   7.094  0.00  0.00    -0.090 Cl
ATOM     20  C   LIG    1       -4.962  -1.678   3.133  0.00  0.00    +0.100 A 
ENDBRANCH  13  14
BRANCH  13  21
ATOM     21  C   LIG    1       -5.343   1.117   1.265  0.00  0.00    -0.050 C 
BRANCH  21  22
ATOM     22  C   LIG    1       -6.695   0.453   1.310  0.00  0.00    +0.490 C 
ATOM     23  O   LIG    1       -7.708   1.130   1.274  0.00  0.00    -0.700 OA
ATOM     24  O   LIG    1       -6.775  -0.761   1.382  0.00  0.00    -0.690 OA
ENDBRANCH  21  22
ENDBRANCH  13  21
ENDBRANCH   1  13
TORSDOF 8
