REMARK  Name = ZINCqH0000038Jcx.0
REMARK                            x       y       z     vdW  Elec       q    Type
REMARK                         _______ _______ _______ _____ _____    ______ ____
ROOT
ATOM      1  C   LIG    1       -1.363   3.479  -2.511  0.00  0.00    +0.270 C 
ENDROOT
BRANCH   1   2
ATOM      2  N   LIG    1       -1.001   2.979  -1.178  0.00  0.00    -0.510 NA
ATOM      3  C   LIG    1       -1.921   3.491  -0.157  0.00  0.00    +0.230 C 
ATOM      4  C   LIG    1       -1.602   2.893   1.188  0.00  0.00    -0.080 A 
ATOM      5  C   LIG    1       -2.106   3.513   2.322  0.00  0.00    +0.000 A 
ATOM      6  C   LIG    1       -1.847   2.998   3.572  0.00  0.00    +0.000 A 
ATOM      7  C   LIG    1       -1.076   1.858   3.700  0.00  0.00    +0.000 A 
ATOM      8  C   LIG    1       -0.570   1.240   2.573  0.00  0.00    +0.000 A 
ATOM      9  C   LIG    1       -0.832   1.758   1.314  0.00  0.00    -0.070 A 
ATOM     10  C   LIG    1       -0.256   1.053   0.113  0.00  0.00    +0.100 C 
ATOM     11  C   LIG    1       -0.981   1.508  -1.154  0.00  0.00    +0.140 C 
BRANCH  11  12
ATOM     12  C   LIG    1       -0.241   0.984  -2.386  0.00  0.00    +0.180 C 
BRANCH  12  13
ATOM     13  O   LIG    1        1.116   1.430  -2.352  0.00  0.00    -0.550 OA
ATOM     14  H   LIG    1        1.646   1.134  -3.105  0.00  0.00    +0.370 HD
ENDBRANCH  12  13
ENDBRANCH  11  12
ENDBRANCH   1   2
BRANCH   1  21
ATOM     15  C   LIG    1       -3.697   5.504  -1.815  0.00  0.00    +0.160 C 
ATOM     16  C   LIG    1       -2.294   5.878  -2.220  0.00  0.00    +0.090 A 
ATOM     17  N   LIG    1       -1.831   7.096  -2.341  0.00  0.00    -0.260 NA
ATOM     18  N   LIG    1       -0.491   7.019  -2.740  0.00  0.00    -0.320 N 
ATOM     19  C   LIG    1       -0.164   5.706  -2.848  0.00  0.00    +0.150 A 
ATOM     20 CL   LIG    1        1.382   5.068  -3.313  0.00  0.00    +0.020 Cl
ATOM     21  C   LIG    1       -1.264   4.983  -2.527  0.00  0.00    -0.200 A 
BRANCH  18  22
ATOM     22  C   LIG    1        0.362   8.105  -2.983  0.00  0.00    +0.140 A 
ATOM     23  C   LIG    1        1.710   8.017  -2.661  0.00  0.00    +0.000 A 
ATOM     24  C   LIG    1        2.548   9.086  -2.908  0.00  0.00    +0.030 A 
ATOM     25  C   LIG    1        2.045  10.248  -3.465  0.00  0.00    +0.010 A 
ATOM     26  C   LIG    1        0.702  10.340  -3.782  0.00  0.00    +0.030 A 
ATOM     27  C   LIG    1       -0.140   9.272  -3.543  0.00  0.00    +0.020 A 
ENDBRANCH  18  22
ENDBRANCH   1  21
TORSDOF 5
