REMARK  Name = ZINCkj00000GeOtz.0
REMARK                            x       y       z     vdW  Elec       q    Type
REMARK                         _______ _______ _______ _____ _____    ______ ____
ROOT
ATOM      1  N   LIG    1       -3.047   2.332  -1.010  0.00  0.00    -0.480 N 
ATOM      2  H   LIG    1       -4.016   2.361  -1.289  0.00  0.00    +0.440 HD
ATOM      3  H   LIG    1       -2.523   3.010  -1.542  0.00  0.00    +0.440 HD
ENDROOT
BRANCH   1   4
ATOM      4  C   LIG    1       -2.507   0.989  -1.261  0.00  0.00    +0.180 C 
BRANCH   4   5
ATOM      5  C   LIG    1       -1.030   0.977  -0.961  0.00  0.00    +0.510 C 
ATOM      6  O   LIG    1       -0.420   2.022  -0.877  0.00  0.00    -0.520 OA
ATOM      7  N   LIG    1       -0.387  -0.194  -0.785  0.00  0.00    -0.820 N 
ATOM      8  H   LIG    1        0.576  -0.206  -0.668  0.00  0.00    +0.430 HD
ATOM      9  H   LIG    1       -0.887  -1.026  -0.780  0.00  0.00    +0.410 HD
ENDBRANCH   4   5
BRANCH   4  10
ATOM     10  C   LIG    1       -2.732   0.614  -2.728  0.00  0.00    +0.020 C 
ATOM     11  C   LIG    1       -2.152   1.707  -3.628  0.00  0.00    +0.060 C 
BRANCH  10  13
ATOM     12  C   LIG    1       -4.453  -0.003  -4.430  0.00  0.00    +0.050 C 
ATOM     13  C   LIG    1       -4.232   0.476  -2.994  0.00  0.00    +0.010 C 
ENDBRANCH  10  13
ENDBRANCH   4  10
ENDBRANCH   1   4
BRANCH   1  14
ATOM     14  C   LIG    1       -2.939   2.643   0.421  0.00  0.00    +0.270 C 
BRANCH  14  15
ATOM     15  C   LIG    1       -3.494   4.021   0.679  0.00  0.00    +0.510 C 
ATOM     16  N   LIG    1       -3.600   4.479   1.942  0.00  0.00    -0.580 N 
ATOM     17  O   LIG    1       -3.844   4.716  -0.251  0.00  0.00    -0.520 OA
BRANCH  16  18
ATOM     18  C   LIG    1       -4.244   5.769   2.201  0.00  0.00    +0.240 C 
ATOM     19  C   LIG    1       -5.674   5.743   1.659  0.00  0.00    +0.040 C 
ATOM     20  C   LIG    1       -3.455   6.881   1.506  0.00  0.00    +0.040 C 
ENDBRANCH  16  18
BRANCH  16  21
ATOM     21  C   LIG    1       -3.072   3.687   3.055  0.00  0.00    +0.280 C 
BRANCH  21  22
ATOM     22  C   LIG    1       -1.657   4.162   3.393  0.00  0.00    -0.030 C 
ATOM     23  C   LIG    1       -0.723   3.856   2.221  0.00  0.00    +0.020 C 
ATOM     24  C   LIG    1       -1.161   3.435   4.645  0.00  0.00    +0.040 C 
ENDBRANCH  21  22
ENDBRANCH  16  21
ENDBRANCH  14  15
ENDBRANCH   1  14
TORSDOF 9
