REMARK  Name = ZINCvU0000000D97.0
REMARK                            x       y       z     vdW  Elec       q    Type
REMARK                         _______ _______ _______ _____ _____    ______ ____
ROOT
ATOM      1  C   LIG    1       -6.490   2.051  -0.115  0.00  0.00    +0.360 A 
ATOM      2  N   LIG    1       -6.273   3.344  -0.073  0.00  0.00    -0.510 NA
ATOM      3  C   LIG    1       -7.221   4.231  -0.436  0.00  0.00    +0.090 A 
ATOM      4  C   LIG    1       -8.469   3.775  -0.856  0.00  0.00    -0.230 A 
ATOM      5  C   LIG    1       -9.361   4.866  -1.200  0.00  0.00    -0.030 A 
ATOM      6  C   LIG    1       -8.844   6.070  -1.057  0.00  0.00    -0.200 A 
ATOM      7  C   LIG    1       -9.579   7.352  -1.352  0.00  0.00    +0.150 C 
ATOM      8  C   LIG    1      -10.771   4.640  -1.683  0.00  0.00    +0.120 C 
ATOM      9  C   LIG    1       -8.690   2.365  -0.890  0.00  0.00    +0.570 A 
ATOM     10  O   LIG    1       -9.764   1.916  -1.250  0.00  0.00    -0.500 OA
ATOM     11  S   LIG    1       -7.190   5.989  -0.479  0.00  0.00    +0.200 S 
ATOM     12  N   LIG    1       -7.692   1.540  -0.518  0.00  0.00    -0.470 N 
ENDROOT
BRANCH  12  13
ATOM     13  C   LIG    1       -7.888   0.153  -0.543  0.00  0.00    +0.090 A 
ATOM     14  C   LIG    1       -7.228  -0.625  -1.485  0.00  0.00    +0.030 A 
ATOM     15  C   LIG    1       -7.418  -1.993  -1.504  0.00  0.00    +0.030 A 
ATOM     16  C   LIG    1       -8.273  -2.586  -0.593  0.00  0.00    +0.030 A 
ATOM     17  C   LIG    1       -8.936  -1.813   0.342  0.00  0.00    +0.030 A 
ATOM     18  C   LIG    1       -8.746  -0.445   0.370  0.00  0.00    +0.050 A 
ENDBRANCH  12  13
BRANCH   1  19
ATOM     19  S   LIG    1       -5.205   0.947   0.368  0.00  0.00    +0.120 S 
BRANCH  19  20
ATOM     20  C   LIG    1       -3.907   2.139   0.783  0.00  0.00    +0.120 C 
BRANCH  20  23
ATOM     21  N   LIG    1       -1.572   2.087   1.599  0.00  0.00    -0.660 N 
ATOM     22  H   LIG    1       -1.594   3.056   1.632  0.00  0.00    +0.410 HD
ATOM     23  C   LIG    1       -2.673   1.400   1.236  0.00  0.00    +0.530 C 
ATOM     24  O   LIG    1       -2.672   0.188   1.274  0.00  0.00    -0.500 OA
BRANCH  21  29
ATOM     25  C   LIG    1        3.194  -0.697   2.911  0.00  0.00    +0.100 C 
ATOM     26  C   LIG    1        1.928   0.043   2.563  0.00  0.00    -0.090 A 
ATOM     27  C   LIG    1        0.700  -0.558   2.765  0.00  0.00    +0.020 A 
ATOM     28  C   LIG    1       -0.463   0.117   2.448  0.00  0.00    +0.030 A 
ATOM     29  C   LIG    1       -0.397   1.402   1.926  0.00  0.00    +0.130 A 
ATOM     30  C   LIG    1        0.839   2.004   1.724  0.00  0.00    -0.110 A 
ATOM     31  C   LIG    1        0.915   3.398   1.158  0.00  0.00    +0.080 C 
ATOM     32  C   LIG    1        1.997   1.323   2.043  0.00  0.00    +0.030 A 
ENDBRANCH  21  29
ENDBRANCH  20  23
ENDBRANCH  19  20
ENDBRANCH   1  19
TORSDOF 5
