REMARK  Name = ZINCkj00000dDf0L.0
REMARK                            x       y       z     vdW  Elec       q    Type
REMARK                         _______ _______ _______ _____ _____    ______ ____
ROOT
ATOM      1  N   LIG    1        0.014   0.050  -0.462  0.00  0.00    -0.310 N 
ATOM      2  N   LIG    1       -0.027   1.318   0.128  0.00  0.00    -0.250 NA
ATOM      3  C   LIG    1        1.194   1.721   0.347  0.00  0.00    +0.280 A 
ATOM      4  C   LIG    1        2.075   0.712  -0.101  0.00  0.00    -0.240 A 
ATOM      5  C   LIG    1        1.299  -0.315  -0.600  0.00  0.00    +0.060 A 
ENDROOT
BRANCH   4   6
ATOM      6  C   LIG    1        3.548   0.749  -0.047  0.00  0.00    +0.600 C 
ATOM      7  N   LIG    1        4.196   1.928  -0.130  0.00  0.00    -0.610 N 
ATOM      8  C   LIG    1        3.439   3.182  -0.115  0.00  0.00    +0.280 C 
ATOM      9  O   LIG    1        4.178  -0.284   0.073  0.00  0.00    -0.500 OA
BRANCH   7  10
ATOM     10  C   LIG    1        5.657   1.955  -0.235  0.00  0.00    +0.270 C 
ATOM     11  C   LIG    1        6.089   2.711  -1.512  0.00  0.00    +0.070 C 
ATOM     12  C   LIG    1        6.394   4.137  -0.980  0.00  0.00    +0.270 C 
ATOM     13  N   LIG    1        7.017   3.881   0.343  0.00  0.00    -0.510 N 
ATOM     14  H   LIG    1        7.987   3.627   0.228  0.00  0.00    +0.440 HD
ATOM     15  H   LIG    1        6.938   4.698   0.929  0.00  0.00    +0.440 HD
ATOM     16  C   LIG    1        6.262   2.755   0.933  0.00  0.00    +0.270 C 
ENDBRANCH   7  10
ENDBRANCH   4   6
BRANCH   5  17
ATOM     17  C   LIG    1        1.801  -1.607  -1.190  0.00  0.00    +0.530 C 
ATOM     18  F   LIG    1        0.865  -2.620  -0.959  0.00  0.00    -0.170 F 
ATOM     19  F   LIG    1        3.018  -1.951  -0.591  0.00  0.00    -0.130 F 
ATOM     20  F   LIG    1        1.987  -1.449  -2.567  0.00  0.00    -0.160 F 
ENDBRANCH   5  17
BRANCH   1  22
ATOM     21  C   LIG    1       -1.520  -0.413  -2.310  0.00  0.00    +0.050 C 
ATOM     22  C   LIG    1       -1.149  -0.746  -0.864  0.00  0.00    +0.330 C 
ENDBRANCH   1  22
TORSDOF 4
