REMARK  Name = ZINCqH0000033xfo.0
REMARK                            x       y       z     vdW  Elec       q    Type
REMARK                         _______ _______ _______ _____ _____    ______ ____
ROOT
ATOM      1  C   LIG    1        8.414   1.172  -0.079  0.00  0.00    -0.200 A 
ATOM      2  C   LIG    1        7.105   0.731  -0.064  0.00  0.00    +0.060 A 
ATOM      3  S   LIG    1        7.047  -0.974  -0.073  0.00  0.00    +0.390 S 
ATOM      4  C   LIG    1        8.799  -1.095  -0.091  0.00  0.00    -0.370 A 
ATOM      5  C   LIG    1        9.352   0.152  -0.088  0.00  0.00    +0.050 A 
ATOM      6  C   LIG    1       10.839   0.397  -0.102  0.00  0.00    +0.140 C 
ENDROOT
BRANCH   2   7
ATOM      7  N   LIG    1        5.999   1.555  -0.048  0.00  0.00    -0.620 N 
ATOM      8  H   LIG    1        6.111   2.518  -0.044  0.00  0.00    +0.420 HD
ATOM      9  C   LIG    1        4.761   1.021  -0.039  0.00  0.00    +0.510 C 
ATOM     10  O   LIG    1        4.620  -0.183  -0.044  0.00  0.00    -0.470 OA
BRANCH   9  11
ATOM     11  C   LIG    1        3.553   1.921  -0.022  0.00  0.00    +0.270 C 
BRANCH  11  12
ATOM     12  O   LIG    1        2.366   1.125  -0.015  0.00  0.00    -0.290 OA
BRANCH  12  13
ATOM     13  C   LIG    1        1.179   1.786   0.000  0.00  0.00    +0.120 A 
ATOM     14  C   LIG    1       -0.013   1.076   0.008  0.00  0.00    -0.010 A 
ATOM     15  C   LIG    1       -1.218   1.751   0.017  0.00  0.00    +0.050 A 
ATOM     16  C   LIG    1       -1.237   3.133   0.030  0.00  0.00    -0.120 A 
ATOM     17  C   LIG    1       -0.051   3.844   0.023  0.00  0.00    +0.050 A 
ATOM     18  C   LIG    1       -2.553   3.867   0.046  0.00  0.00    +0.100 C 
ATOM     19  C   LIG    1        1.157   3.174   0.008  0.00  0.00    -0.080 A 
ENDBRANCH  12  13
ENDBRANCH  11  12
ENDBRANCH   9  11
ENDBRANCH   2   7
BRANCH   4  20
ATOM     20  C   LIG    1        9.526  -2.303  -0.105  0.00  0.00    +0.430 C 
ATOM     21  O   LIG    1       10.741  -2.280  -0.117  0.00  0.00    -0.460 OA
ATOM     22  C   LIG    1        8.797  -3.622  -0.106  0.00  0.00    +0.070 C 
ENDBRANCH   4  20
BRANCH   1  23
ATOM     23  C   LIG    1        8.778   2.594  -0.081  0.00  0.00    +0.530 C 
ATOM     24  O   LIG    1        8.943   3.181   0.971  0.00  0.00    -0.490 OA
BRANCH  23  25
ATOM     25  O   LIG    1        8.930   3.250  -1.250  0.00  0.00    -0.350 OA
BRANCH  25  27
ATOM     26  C   LIG    1        9.418   5.223  -2.590  0.00  0.00    +0.070 C 
ATOM     27  C   LIG    1        9.291   4.654  -1.176  0.00  0.00    +0.200 C 
ENDBRANCH  25  27
ENDBRANCH  23  25
ENDBRANCH   1  23
TORSDOF 8
