REMARK  Name = ZINCrH00000kvBJj.0
REMARK                            x       y       z     vdW  Elec       q    Type
REMARK                         _______ _______ _______ _____ _____    ______ ____
ROOT
ATOM      1  C   LIG    1        6.494   1.465   1.256  0.00  0.00    +0.510 C 
ATOM      2  N   LIG    1        7.825   1.623   1.399  0.00  0.00    -0.720 N 
ATOM      3  H   LIG    1        8.432   1.218   0.760  0.00  0.00    +0.400 HD
ATOM      4  O   LIG    1        5.738   1.899   2.100  0.00  0.00    -0.510 OA
ENDROOT
BRANCH   1   6
ATOM      5  C   LIG    1        6.367   1.494  -1.220  0.00  0.00    +0.070 C 
ATOM      6  C   LIG    1        5.945   0.750   0.049  0.00  0.00    +0.250 C 
BRANCH   6   7
ATOM      7  N   LIG    1        4.482   0.711   0.128  0.00  0.00    -0.560 N 
ATOM      8  C   LIG    1        3.693   1.799   0.179  0.00  0.00    +0.580 C 
ATOM      9  C   LIG    1        2.285   1.356   0.253  0.00  0.00    -0.130 A 
ATOM     10  C   LIG    1        1.067   2.012   0.325  0.00  0.00    +0.090 A 
ATOM     11  C   LIG    1       -0.107   1.277   0.383  0.00  0.00    +0.050 A 
ATOM     12  C   LIG    1       -0.070  -0.104   0.370  0.00  0.00    +0.040 A 
ATOM     13  C   LIG    1        1.141  -0.775   0.299  0.00  0.00    +0.100 A 
ATOM     14  C   LIG    1        2.322  -0.053   0.240  0.00  0.00    -0.140 A 
ATOM     15  O   LIG    1        4.074   2.952   0.166  0.00  0.00    -0.450 OA
ATOM     16  C   LIG    1        3.752  -0.419   0.159  0.00  0.00    +0.580 C 
ATOM     17  O   LIG    1        4.194  -1.550   0.126  0.00  0.00    -0.460 OA
ENDBRANCH   6   7
ENDBRANCH   1   6
BRANCH   2  18
ATOM     18  C   LIG    1        8.354   2.406   2.518  0.00  0.00    +0.340 C 
BRANCH  18  19
ATOM     19  C   LIG    1        8.287   3.895   2.175  0.00  0.00    -0.010 C 
ATOM     20  C   LIG    1        9.118   4.183   0.907  0.00  0.00    +0.010 C 
ATOM     21  C   LIG    1        9.764   5.564   1.182  0.00  0.00    +0.020 C 
ATOM     22  C   LIG    1       10.103   5.490   2.692  0.00  0.00    +0.000 C 
ATOM     23  C   LIG    1        8.913   4.726   3.309  0.00  0.00    +0.020 C 
ENDBRANCH  18  19
BRANCH  18  24
ATOM     24  C   LIG    1        9.786   2.013   2.774  0.00  0.00    -0.190 A 
ATOM     25  C   LIG    1       10.341   1.868   3.978  0.00  0.00    +0.020 A 
ATOM     26  C   LIG    1       11.675   1.500   3.966  0.00  0.00    +0.010 A 
ATOM     27  C   LIG    1       12.204   1.345   2.751  0.00  0.00    -0.040 A 
ATOM     28  S   LIG    1       10.980   1.666   1.530  0.00  0.00    +0.110 S 
ENDBRANCH  18  24
ENDBRANCH   2  18
TORSDOF 5
