REMARK  Name = ZINCrD000000ArlU.0
REMARK                            x       y       z     vdW  Elec       q    Type
REMARK                         _______ _______ _______ _____ _____    ______ ____
ROOT
ATOM      1  O   LIG    1       -0.450  -0.621   0.945  0.00  0.00    -0.500 OA
ATOM      2  C   LIG    1        0.046  -0.003   0.027  0.00  0.00    +0.520 C 
ATOM      3  N   LIG    1        0.631  -0.664  -0.992  0.00  0.00    -0.720 N 
ATOM      4  H   LIG    1        1.029  -0.169  -1.726  0.00  0.00    +0.400 HD
ENDROOT
BRANCH   3   5
ATOM      5  C   LIG    1        0.668  -2.128  -0.991  0.00  0.00    +0.290 C 
ATOM      6  C   LIG    1        0.757  -2.631  -2.430  0.00  0.00    +0.020 C 
ATOM      7  C   LIG    1        1.011  -4.143  -2.400  0.00  0.00    +0.030 C 
ATOM      8  C   LIG    1        2.430  -4.383  -1.888  0.00  0.00    +0.080 C 
ATOM      9  C   LIG    1        2.661  -3.635  -0.600  0.00  0.00    -0.070 A 
ATOM     10  C   LIG    1        3.738  -4.022   0.187  0.00  0.00    -0.010 A 
ATOM     11  C   LIG    1        4.011  -3.369   1.371  0.00  0.00    +0.010 A 
ATOM     12  C   LIG    1        3.205  -2.321   1.779  0.00  0.00    -0.010 A 
ATOM     13  C   LIG    1        2.133  -1.938   1.000  0.00  0.00    +0.020 A 
ATOM     14  C   LIG    1        1.856  -2.595  -0.192  0.00  0.00    -0.100 A 
ENDBRANCH   3   5
BRANCH   2  15
ATOM     15  C   LIG    1        0.009   1.503   0.026  0.00  0.00    +0.240 C 
BRANCH  15  16
ATOM     16  O   LIG    1       -0.659   1.964   1.202  0.00  0.00    -0.290 OA
BRANCH  16  17
ATOM     17  C   LIG    1       -0.779   3.309   1.357  0.00  0.00    +0.160 A 
ATOM     18  C   LIG    1       -0.259   4.167   0.398  0.00  0.00    -0.110 A 
ATOM     19  C   LIG    1       -0.385   5.535   0.551  0.00  0.00    +0.080 A 
ATOM     20  C   LIG    1       -1.019   6.052   1.664  0.00  0.00    -0.060 A 
ATOM     21  C   LIG    1       -1.536   5.198   2.629  0.00  0.00    +0.210 A 
ATOM     22  C   LIG    1       -1.415   3.825   2.475  0.00  0.00    -0.030 A 
BRANCH  21  23
ATOM     23  N   LIG    1       -2.178   5.722   3.757  0.00  0.00    -0.560 N 
ATOM     24  C   LIG    1       -2.253   7.153   4.077  0.00  0.00    +0.270 C 
ATOM     25  C   LIG    1       -2.644   7.221   5.570  0.00  0.00    +0.060 C 
ATOM     26  C   LIG    1       -3.376   5.873   5.766  0.00  0.00    +0.070 C 
ATOM     27  C   LIG    1       -2.810   4.981   4.683  0.00  0.00    +0.510 C 
ATOM     28  O   LIG    1       -2.911   3.773   4.655  0.00  0.00    -0.500 OA
ENDBRANCH  21  23
ENDBRANCH  16  17
ENDBRANCH  15  16
ENDBRANCH   2  15
TORSDOF 5
