REMARK  Name = ZINCtj00000s2ikG.0
REMARK                            x       y       z     vdW  Elec       q    Type
REMARK                         _______ _______ _______ _____ _____    ______ ____
ROOT
ATOM      1  C   LIG    1        2.243   2.279   2.758  0.00  0.00    +0.730 C 
ENDROOT
BRANCH   1   2
ATOM      2  N   LIG    1        1.084   1.624   2.413  0.00  0.00    -0.620 NA
ATOM      3  C   LIG    1       -0.232   2.188   2.751  0.00  0.00    +0.320 C 
ATOM      4  C   LIG    1       -1.056   1.109   3.460  0.00  0.00    +0.230 C 
ATOM      5  N   LIG    1       -1.095  -0.100   2.627  0.00  0.00    -0.470 N 
ATOM      6  C   LIG    1        0.249  -0.666   2.448  0.00  0.00    +0.200 C 
ATOM      7  C   LIG    1        1.128   0.340   1.697  0.00  0.00    +0.320 C 
BRANCH   5   8
ATOM      8  C   LIG    1       -1.966  -1.044   3.159  0.00  0.00    +0.300 A 
ATOM      9  C   LIG    1       -2.145  -2.260   2.508  0.00  0.00    -0.040 A 
ATOM     10  C   LIG    1       -3.012  -3.192   3.050  0.00  0.00    +0.090 A 
ATOM     11  C   LIG    1       -3.680  -2.871   4.224  0.00  0.00    -0.050 A 
ATOM     12  C   LIG    1       -3.458  -1.643   4.814  0.00  0.00    +0.290 A 
ATOM     13  N   LIG    1       -2.622  -0.775   4.277  0.00  0.00    -0.520 NA
ENDBRANCH   5   8
ENDBRANCH   1   2
BRANCH   1  14
ATOM     14  N   LIG    1        2.299   3.580   2.696  0.00  0.00    -0.640 NA
ATOM     15  H   LIG    1        1.510   4.088   2.452  0.00  0.00    +0.440 HD
BRANCH  14  16
ATOM     16  C   LIG    1        3.555   4.274   2.993  0.00  0.00    +0.230 C 
ATOM     17  C   LIG    1        4.428   4.308   1.737  0.00  0.00    +0.070 C 
BRANCH  16  18
ATOM     18  C   LIG    1        3.253   5.704   3.443  0.00  0.00    +0.210 C 
BRANCH  18  20
ATOM     19  C   LIG    1        2.344   7.786   2.678  0.00  0.00    +0.230 C 
ATOM     20  O   LIG    1        2.667   6.431   2.361  0.00  0.00    -0.390 OA
ENDBRANCH  18  20
ENDBRANCH  16  18
ENDBRANCH  14  16
ENDBRANCH   1  14
BRANCH   1  21
ATOM     21  N   LIG    1        3.341   1.562   3.169  0.00  0.00    -0.680 NA
ATOM     22  H   LIG    1        4.187   2.014   3.318  0.00  0.00    +0.440 HD
BRANCH  21  23
ATOM     23  C   LIG    1        3.235   0.117   3.383  0.00  0.00    +0.320 C 
BRANCH  23  24
ATOM     24  C   LIG    1        3.820  -0.241   4.751  0.00  0.00    +0.130 C 
ATOM     25  O   LIG    1        5.197   0.145   4.797  0.00  0.00    -0.380 OA
ATOM     26  C   LIG    1        5.846  -0.195   6.026  0.00  0.00    +0.220 C 
ATOM     27  C   LIG    1        5.740  -1.707   6.249  0.00  0.00    +0.200 C 
ATOM     28  O   LIG    1        4.363  -2.092   6.203  0.00  0.00    -0.360 OA
ATOM     29  C   LIG    1        3.712  -1.752   4.974  0.00  0.00    +0.090 C 
ATOM     30  C   LIG    1        4.389  -2.490   3.817  0.00  0.00    +0.040 C 
ATOM     31  C   LIG    1        2.238  -2.155   5.046  0.00  0.00    +0.070 C 
ENDBRANCH  23  24
ENDBRANCH  21  23
ENDBRANCH   1  21
TORSDOF 9
