REMARK  Name = ZINCnE000001PlSC.1
REMARK                            x       y       z     vdW  Elec       q    Type
REMARK                         _______ _______ _______ _____ _____    ______ ____
ROOT
ATOM      1  C   LIG    1        1.158   1.911   0.001  0.00  0.00    +0.150 A 
ATOM      2  C   LIG    1        2.235   1.102  -0.013  0.00  0.00    -0.310 A 
ATOM      3  S   LIG    1        1.671  -0.567  -0.017  0.00  0.00    +0.010 S 
ATOM      4  C   LIG    1        0.002  -0.004   0.002  0.00  0.00    +0.370 A 
ATOM      5  C   LIG    1        3.675   1.548  -0.024  0.00  0.00    +0.130 C 
ATOM      6  N   LIG    1       -0.015   1.293   0.009  0.00  0.00    -0.540 NA
ENDROOT
BRANCH   1  11
ATOM      7  C   LIG    1        2.388   7.186   0.577  0.00  0.00    +0.130 C 
ATOM      8  C   LIG    1        1.839   5.816   0.271  0.00  0.00    -0.210 A 
ATOM      9  C   LIG    1        0.749   5.572  -0.461  0.00  0.00    +0.000 A 
ATOM     10  C   LIG    1        0.435   4.236  -0.615  0.00  0.00    +0.020 A 
ATOM     11  C   LIG    1        1.275   3.385   0.008  0.00  0.00    -0.080 A 
ATOM     12  S   LIG    1        2.537   4.300   0.824  0.00  0.00    +0.110 S 
ENDBRANCH   1  11
BRANCH   4  13
ATOM     13  N   LIG    1       -1.120  -0.821   0.008  0.00  0.00    -0.640 NA
ATOM     14  C   LIG    1       -0.977  -2.161  -0.001  0.00  0.00    +0.480 C 
ATOM     15  O   LIG    1        0.133  -2.654  -0.013  0.00  0.00    -0.590 OA
BRANCH  14  16
ATOM     16  C   LIG    1       -2.177  -3.035   0.006  0.00  0.00    +0.020 A 
ATOM     17  C   LIG    1       -2.044  -4.412  -0.009  0.00  0.00    -0.060 A 
ATOM     18  C   LIG    1       -3.204  -5.211   0.004  0.00  0.00    +0.510 A 
ATOM     19  N   LIG    1       -4.420  -4.634   0.017  0.00  0.00    -0.500 N 
ATOM     20  C   LIG    1       -4.556  -3.283   0.026  0.00  0.00    +0.260 A 
ATOM     21  C   LIG    1       -5.618  -5.478   0.023  0.00  0.00    +0.300 C 
ATOM     22  O   LIG    1       -3.107  -6.427  -0.004  0.00  0.00    -0.570 OA
ATOM     23  C   LIG    1       -3.473  -2.474   0.021  0.00  0.00    -0.010 A 
ENDBRANCH  14  16
ENDBRANCH   4  13
TORSDOF 3
