REMARK  Name = ZINCrD000000COol.0
REMARK                            x       y       z     vdW  Elec       q    Type
REMARK                         _______ _______ _______ _____ _____    ______ ____
ROOT
ATOM      1  O   LIG    1       -4.287   1.462  -1.479  0.00  0.00    -0.510 OA
ATOM      2  C   LIG    1       -3.429   2.114  -0.923  0.00  0.00    +0.510 C 
ATOM      3  C   LIG    1       -2.472   1.432   0.022  0.00  0.00    +0.340 C 
ATOM      4  N   LIG    1       -1.195   2.161   0.019  0.00  0.00    -0.560 N 
ATOM      5  C   LIG    1       -1.240   3.564   0.033  0.00  0.00    +0.110 A 
ATOM      6  C   LIG    1       -0.228   4.307   0.607  0.00  0.00    +0.060 A 
ATOM      7  C   LIG    1       -0.304   5.689   0.602  0.00  0.00    +0.010 A 
ATOM      8  C   LIG    1       -1.385   6.325   0.020  0.00  0.00    +0.030 A 
ATOM      9  C   LIG    1       -2.398   5.586  -0.564  0.00  0.00    +0.000 A 
ATOM     10  C   LIG    1       -2.330   4.203  -0.566  0.00  0.00    +0.130 A 
ATOM     11  C   LIG    1       -0.018   1.503   0.010  0.00  0.00    +0.530 C 
ATOM     12  O   LIG    1        1.024   2.123   0.004  0.00  0.00    -0.500 OA
ATOM     13  N   LIG    1       -3.342   3.437  -1.155  0.00  0.00    -0.660 N 
ATOM     14  H   LIG    1       -3.989   3.865  -1.738  0.00  0.00    +0.420 HD
ENDROOT
BRANCH  11  15
ATOM     15  C   LIG    1        0.002  -0.004   0.002  0.00  0.00    +0.080 C 
BRANCH  15  16
ATOM     16  C   LIG    1        1.451  -0.494  -0.015  0.00  0.00    +0.230 C 
BRANCH  16  17
ATOM     17  C   LIG    1        1.472  -2.001  -0.023  0.00  0.00    +0.190 A 
ATOM     18  N   LIG    1        1.472  -2.773  -1.081  0.00  0.00    -0.470 NA
ATOM     19  C   LIG    1        1.494  -4.039  -0.606  0.00  0.00    +0.210 A 
ATOM     20  N   LIG    1        1.506  -3.962   0.699  0.00  0.00    -0.370 NA
ATOM     21  O   LIG    1        1.499  -2.801   1.048  0.00  0.00    +0.090 OA
BRANCH  19  22
ATOM     22  C   LIG    1        1.504  -5.283  -1.415  0.00  0.00    -0.020 A 
ATOM     23  C   LIG    1        1.484  -5.212  -2.807  0.00  0.00    +0.090 A 
ATOM     24  C   LIG    1        1.498  -6.372  -3.555  0.00  0.00    +0.030 A 
ATOM     25  C   LIG    1        1.522  -7.604  -2.925  0.00  0.00    -0.020 A 
ATOM     26  C   LIG    1        1.536  -7.680  -1.543  0.00  0.00    +0.030 A 
ATOM     27 CL   LIG    1        1.533  -9.060  -3.872  0.00  0.00    -0.060 Cl
ATOM     28  C   LIG    1        1.527  -6.526  -0.786  0.00  0.00    +0.070 A 
ENDBRANCH  19  22
ENDBRANCH  16  17
ENDBRANCH  15  16
ENDBRANCH  11  15
TORSDOF 4
