REMARK  Name = ZINCpe00000MJMr3.0
REMARK                            x       y       z     vdW  Elec       q    Type
REMARK                         _______ _______ _______ _____ _____    ______ ____
ROOT
ATOM      1  C   LIG    1       -1.188   2.225   0.047  0.00  0.00    +0.330 C 
ATOM      2  C   LIG    1       -1.399   2.828   1.436  0.00  0.00    +0.260 C 
ATOM      3  C   LIG    1       -2.572   3.814   1.371  0.00  0.00    +0.040 C 
ATOM      4  C   LIG    1       -2.152   5.007   0.509  0.00  0.00    +0.090 C 
ATOM      5  C   LIG    1       -1.548   4.522  -0.777  0.00  0.00    +0.520 C 
ATOM      6  O   LIG    1       -1.460   5.303  -1.701  0.00  0.00    -0.530 OA
ATOM      7  N   LIG    1       -1.101   3.281  -0.955  0.00  0.00    -0.560 N 
ENDROOT
BRANCH   1  13
ATOM      8  C   LIG    1       -0.947  -0.863   0.106  0.00  0.00    +0.320 C 
ATOM      9  N   LIG    1        0.175   0.078   0.064  0.00  0.00    -0.450 N 
ATOM     10  C   LIG    1        1.505  -0.244   0.041  0.00  0.00    +0.140 A 
ATOM     11  C   LIG    1        2.187   0.917   0.004  0.00  0.00    +0.140 A 
ATOM     12  N   LIG    1        1.297   1.921   0.004  0.00  0.00    -0.460 NA
ATOM     13  C   LIG    1        0.090   1.426   0.040  0.00  0.00    +0.190 A 
ENDBRANCH   1  13
BRANCH   2  14
ATOM     14  N   LIG    1       -1.707   1.761   2.393  0.00  0.00    -0.700 N 
ATOM     15  H   LIG    1       -2.100   0.930   2.083  0.00  0.00    +0.410 HD
ATOM     16  C   LIG    1       -1.444   1.935   3.703  0.00  0.00    +0.580 C 
ATOM     17  O   LIG    1       -0.952   2.975   4.091  0.00  0.00    -0.510 OA
BRANCH  16  18
ATOM     18  C   LIG    1       -1.756   0.854   4.672  0.00  0.00    +0.130 A 
ATOM     19  C   LIG    1       -1.489   1.021   6.031  0.00  0.00    -0.010 A 
ATOM     20  C   LIG    1       -1.799  -0.020   6.895  0.00  0.00    +0.340 A 
ATOM     21  N   LIG    1       -2.333  -1.125   6.405  0.00  0.00    -0.500 NA
ATOM     22  C   LIG    1       -2.573  -1.250   5.114  0.00  0.00    +0.500 A 
ATOM     23  N   LIG    1       -2.300  -0.288   4.259  0.00  0.00    -0.500 NA
ENDBRANCH  16  18
ENDBRANCH   2  14
BRANCH   7  24
ATOM     24  C   LIG    1       -0.485   2.955  -2.244  0.00  0.00    +0.190 C 
ATOM     25  C   LIG    1       -1.232   3.378  -3.510  0.00  0.00    +0.050 C 
ATOM     26  C   LIG    1       -1.177   1.901  -3.110  0.00  0.00    +0.000 C 
ENDBRANCH   7  24
TORSDOF 4
