REMARK  Name = ZINCrD00000F5LwW.1
REMARK                            x       y       z     vdW  Elec       q    Type
REMARK                         _______ _______ _______ _____ _____    ______ ____
ROOT
ATOM      1  O   LIG    1       -6.021  -1.551   4.379  0.00  0.00    -0.630 OA
ATOM      2  C   LIG    1       -5.679  -1.981   3.295  0.00  0.00    +0.650 C 
ATOM      3  N   LIG    1       -4.622  -1.440   2.658  0.00  0.00    -0.630 N 
ATOM      4  C   LIG    1       -3.868  -0.327   3.255  0.00  0.00    +0.310 C 
ATOM      5  C   LIG    1       -3.736   0.787   2.211  0.00  0.00    +0.240 C 
ATOM      6  N   LIG    1       -3.140   0.239   0.986  0.00  0.00    -0.380 N 
ATOM      7  C   LIG    1       -4.043  -0.754   0.391  0.00  0.00    +0.240 C 
ATOM      8  H   LIG    1       -2.260  -0.200   1.208  0.00  0.00    +0.420 HD
ATOM      9  C   LIG    1       -4.190  -1.945   1.345  0.00  0.00    +0.320 C 
ATOM     10  N   LIG    1       -6.357  -3.000   2.730  0.00  0.00    -0.680 NA
ENDROOT
BRANCH   6  11
ATOM     11  C   LIG    1       -2.913   1.328   0.026  0.00  0.00    +0.160 C 
ATOM     12  C   LIG    1       -2.150   0.803  -1.212  0.00  0.00    +0.050 C 
ATOM     13  C   LIG    1       -0.819   1.616  -1.228  0.00  0.00    +0.020 C 
ATOM     14  C   LIG    1       -0.014   1.071  -0.009  0.00  0.00    +0.020 C 
ATOM     15  C   LIG    1       -0.774   1.595   1.230  0.00  0.00    +0.010 C 
ATOM     16  C   LIG    1       -1.313   2.993  -0.658  0.00  0.00    +0.050 C 
ATOM     17  C   LIG    1       -1.971   2.408   0.641  0.00  0.00    +0.010 C 
ENDBRANCH   6  11
BRANCH  10  18
ATOM     18  C   LIG    1       -7.447  -3.558   3.387  0.00  0.00    +0.350 A 
ATOM     19  N   LIG    1       -8.165  -4.538   2.933  0.00  0.00    -0.560 NA
ATOM     20  C   LIG    1       -9.167  -4.945   3.691  0.00  0.00    +0.110 A 
ATOM     21  C   LIG    1       -9.301  -4.278   4.839  0.00  0.00    -0.210 A 
ATOM     22  S   LIG    1       -8.032  -3.059   4.914  0.00  0.00    +0.030 S 
BRANCH  20  23
ATOM     23  C   LIG    1      -10.084  -6.072   3.293  0.00  0.00    +0.070 C 
ATOM     24  C   LIG    1      -11.501  -5.782   3.795  0.00  0.00    -0.010 C 
ATOM     25  C   LIG    1      -12.407  -6.969   3.457  0.00  0.00    +0.200 C 
ATOM     26  O   LIG    1      -11.873  -8.159   4.041  0.00  0.00    -0.390 OA
ATOM     27  C   LIG    1      -10.569  -8.505   3.571  0.00  0.00    +0.200 C 
ATOM     28  C   LIG    1       -9.589  -7.381   3.916  0.00  0.00    +0.000 C 
ENDBRANCH  20  23
ENDBRANCH  10  18
TORSDOF 3
