REMARK  Name = ZINCrg00000BzE0L.0
REMARK                            x       y       z     vdW  Elec       q    Type
REMARK                         _______ _______ _______ _____ _____    ______ ____
ROOT
ATOM      1  C   LIG    1       -4.194   0.244   2.144  0.00  0.00    -0.110 A 
ATOM      2  C   LIG    1       -4.931   0.552   0.999  0.00  0.00    +0.100 A 
ATOM      3  C   LIG    1       -6.277   0.281   0.935  0.00  0.00    +0.120 A 
ATOM      4  C   LIG    1       -6.940  -0.303   2.028  0.00  0.00    -0.090 A 
ATOM      5  C   LIG    1       -8.356  -0.672   2.185  0.00  0.00    +0.540 C 
ATOM      6  N   LIG    1       -8.737  -1.222   3.346  0.00  0.00    -0.890 N 
ATOM      7  S   LIG    1       -7.359  -1.303   4.289  0.00  0.00    +2.660 S 
ATOM      8  O   LIG    1       -7.520  -0.394   5.368  0.00  0.00    -0.910 OA
ATOM      9  O   LIG    1       -7.030  -2.677   4.446  0.00  0.00    -0.910 OA
ATOM     10  O   LIG    1       -9.155  -0.484   1.288  0.00  0.00    -0.450 OA
ATOM     11  C   LIG    1       -6.182  -0.598   3.169  0.00  0.00    -0.630 A 
ATOM     12  C   LIG    1       -4.844  -0.337   3.238  0.00  0.00    +0.220 A 
ENDROOT
BRANCH   1  14
ATOM     13  O   LIG    1       -2.228   0.848   3.257  0.00  0.00    -0.520 OA
ATOM     14  C   LIG    1       -2.744   0.535   2.201  0.00  0.00    +0.560 C 
ATOM     15  N   LIG    1       -1.995   0.453   1.084  0.00  0.00    -0.610 N 
ATOM     16  C   LIG    1       -2.572  -0.037  -0.177  0.00  0.00    +0.230 C 
ATOM     17  C   LIG    1       -1.665  -1.140  -0.732  0.00  0.00    +0.230 C 
ATOM     18  N   LIG    1       -0.290  -0.634  -0.833  0.00  0.00    -0.670 NA
ATOM     19  H   LIG    1       -0.240   0.154  -1.462  0.00  0.00    +0.350 HD
ATOM     20  C   LIG    1        0.250  -0.288   0.489  0.00  0.00    +0.180 C 
ATOM     21  C   LIG    1       -0.578   0.850   1.093  0.00  0.00    +0.270 C 
BRANCH  20  22
ATOM     22  C   LIG    1        1.706   0.160   0.345  0.00  0.00    +0.030 C 
BRANCH  22  23
ATOM     23  C   LIG    1        2.555  -1.015  -0.143  0.00  0.00    +0.380 C 
ATOM     24  F   LIG    1        3.902  -0.639  -0.166  0.00  0.00    -0.210 F 
ATOM     25  F   LIG    1        2.151  -1.380  -1.432  0.00  0.00    -0.190 F 
ENDBRANCH  22  23
ENDBRANCH  20  22
ENDBRANCH   1  14
BRANCH   6  26
ATOM     26  C   LIG    1      -10.086  -1.661   3.714  0.00  0.00    +0.220 C 
ATOM     27  C   LIG    1      -11.150  -1.672   2.615  0.00  0.00    +0.070 C 
ATOM     28  C   LIG    1      -11.196  -0.608   3.713  0.00  0.00    +0.030 C 
ENDBRANCH   6  26
TORSDOF 4
