REMARK  Name = ZINCqH0000037MQC.0
REMARK                            x       y       z     vdW  Elec       q    Type
REMARK                         _______ _______ _______ _____ _____    ______ ____
ROOT
ATOM      1  N   LIG    1       -3.604   3.393   0.053  0.00  0.00    -0.500 N 
ATOM      2  H   LIG    1       -3.572   2.423   0.048  0.00  0.00    +0.440 HD
ATOM      3  C   LIG    1       -4.793   4.027   0.068  0.00  0.00    +0.610 C 
ATOM      4  O   LIG    1       -4.833   5.244   0.074  0.00  0.00    -0.510 OA
ENDROOT
BRANCH   3   5
ATOM      5  C   LIG    1       -6.038   3.252   0.075  0.00  0.00    -0.060 A 
ATOM      6  C   LIG    1       -7.303   3.766   0.090  0.00  0.00    +0.060 A 
ATOM      7  C   LIG    1       -8.183   2.673   0.092  0.00  0.00    -0.010 A 
ATOM      8  C   LIG    1       -7.426   1.553   0.080  0.00  0.00    +0.010 A 
ATOM      9  O   LIG    1       -6.134   1.907   0.064  0.00  0.00    -0.160 OA
BRANCH   8  10
ATOM     10  C   LIG    1       -7.949   0.140   0.078  0.00  0.00    +0.330 C 
BRANCH  10  11
ATOM     11  O   LIG    1       -8.127  -0.300  -1.270  0.00  0.00    -0.310 OA
BRANCH  11  12
ATOM     12  C   LIG    1       -8.597  -1.562  -1.450  0.00  0.00    +0.140 A 
ATOM     13  C   LIG    1       -8.875  -2.363  -0.352  0.00  0.00    -0.050 A 
ATOM     14  C   LIG    1       -9.359  -3.644  -0.537  0.00  0.00    +0.070 A 
ATOM     15  C   LIG    1       -9.553  -4.133  -1.815  0.00  0.00    +0.010 A 
ATOM     16  C   LIG    1       -9.271  -3.339  -2.913  0.00  0.00    -0.050 A 
ATOM     17 BR   LIG    1       -9.539  -4.011  -4.660  0.00  0.00    -0.040 Br
ATOM     18  C   LIG    1       -8.793  -2.054  -2.732  0.00  0.00    +0.020 A 
ENDBRANCH  11  12
ENDBRANCH  10  11
ENDBRANCH   8  10
ENDBRANCH   3   5
BRANCH   1  19
ATOM     19  N   LIG    1       -2.415   4.133   0.046  0.00  0.00    -0.490 N 
ATOM     20  H   LIG    1       -2.447   5.103   0.051  0.00  0.00    +0.450 HD
BRANCH  19  26
ATOM     21  C   LIG    1        0.002  -0.004   0.002  0.00  0.00    +0.140 C 
ATOM     22  C   LIG    1       -0.018   1.503   0.010  0.00  0.00    +0.230 A 
ATOM     23  C   LIG    1        1.167   2.220   0.003  0.00  0.00    -0.130 A 
ATOM     24  C   LIG    1        1.104   3.605   0.010  0.00  0.00    +0.230 A 
ATOM     25  N   LIG    1       -0.079   4.197   0.024  0.00  0.00    -0.570 NA
ATOM     26  C   LIG    1       -1.194   3.481   0.031  0.00  0.00    +0.580 A 
ATOM     27  C   LIG    1        2.368   4.426   0.002  0.00  0.00    +0.140 C 
ATOM     28  N   LIG    1       -1.168   2.157   0.019  0.00  0.00    -0.580 NA
ENDBRANCH  19  26
ENDBRANCH   1  19
TORSDOF 6
