REMARK  Name = ZINCpk00000e9bTf.0
REMARK                            x       y       z     vdW  Elec       q    Type
REMARK                         _______ _______ _______ _____ _____    ______ ____
ROOT
ATOM      1  C   LIG    1       -2.410   0.458  -5.511  0.00  0.00    +0.510 C 
ATOM      2  O   LIG    1       -2.284   1.613  -5.868  0.00  0.00    -0.500 OA
ENDROOT
BRANCH   1   3
ATOM      3  C   LIG    1       -2.720  -0.591  -6.501  0.00  0.00    -0.120 A 
ATOM      4  C   LIG    1       -2.859  -1.920  -6.092  0.00  0.00    +0.130 A 
ATOM      5  C   LIG    1       -3.154  -2.896  -7.019  0.00  0.00    +0.010 A 
ATOM      6  C   LIG    1       -3.301  -2.562  -8.360  0.00  0.00    +0.170 A 
ATOM      7  C   LIG    1       -3.158  -1.241  -8.771  0.00  0.00    +0.030 A 
ATOM      8  C   LIG    1       -2.868  -0.259  -7.850  0.00  0.00    +0.130 A 
BRANCH   6   9
ATOM      9  N   LIG    1       -3.595  -3.557  -9.299  0.00  0.00    -0.340 N 
ATOM     10  C   LIG    1       -3.761  -4.878  -9.070  0.00  0.00    +0.470 A 
ATOM     11  N   LIG    1       -4.025  -5.441 -10.220  0.00  0.00    -0.320 NA
ATOM     12  N   LIG    1       -4.029  -4.568 -11.162  0.00  0.00    -0.030 NA
ATOM     13  N   LIG    1       -3.776  -3.397 -10.684  0.00  0.00    -0.070 NA
ENDBRANCH   6   9
ENDBRANCH   1   3
BRANCH   1  14
ATOM     14  O   LIG    1       -2.267   0.136  -4.210  0.00  0.00    -0.320 OA
BRANCH  14  15
ATOM     15  C   LIG    1       -1.962   1.220  -3.292  0.00  0.00    +0.180 C 
ATOM     16  C   LIG    1       -3.266   1.819  -2.761  0.00  0.00    +0.080 C 
BRANCH  15  23
ATOM     17  C   LIG    1        2.724   3.845   0.042  0.00  0.00    +0.020 C 
ATOM     18  C   LIG    1        1.340   3.200  -0.047  0.00  0.00    -0.020 C 
ATOM     19  C   LIG    1        0.667   3.617  -1.357  0.00  0.00    +0.020 C 
ATOM     20  C   LIG    1       -0.731   2.994  -1.429  0.00  0.00    +0.270 C 
ATOM     21  N   LIG    1       -0.614   1.541  -1.243  0.00  0.00    -0.610 N 
ATOM     22  C   LIG    1        0.094   1.035  -0.059  0.00  0.00    +0.280 C 
ATOM     23  C   LIG    1       -1.147   0.689  -2.141  0.00  0.00    +0.520 C 
ATOM     24  O   LIG    1       -0.971  -0.505  -2.023  0.00  0.00    -0.520 OA
ATOM     25  C   LIG    1        1.484   1.677  -0.004  0.00  0.00    +0.020 C 
ENDBRANCH  15  23
ENDBRANCH  14  15
ENDBRANCH   1  14
TORSDOF 5
