REMARK  Name = ZINCrH000004sLSh.0
REMARK                            x       y       z     vdW  Elec       q    Type
REMARK                         _______ _______ _______ _____ _____    ______ ____
ROOT
ATOM      1  N   LIG    1        1.901   3.182  -5.975  0.00  0.00    -1.060 N 
ATOM      2  H   LIG    1        2.857   3.126  -6.127  0.00  0.00    +0.440 HD
ENDROOT
BRANCH   1   8
ATOM      3  C   LIG    1        1.454   0.924  -6.730  0.00  0.00    -0.060 A 
ATOM      4  C   LIG    1        0.587   0.004  -7.320  0.00  0.00    +0.080 A 
ATOM      5  C   LIG    1       -0.659   0.411  -7.752  0.00  0.00    +0.000 A 
ATOM      6  C   LIG    1       -1.056   1.728  -7.596  0.00  0.00    +0.080 A 
ATOM      7  C   LIG    1       -0.210   2.648  -7.007  0.00  0.00    -0.010 A 
ATOM      8  C   LIG    1        1.046   2.256  -6.569  0.00  0.00    +0.220 A 
BRANCH   3  13
ATOM      9  C   LIG    1        5.514  -1.826  -5.702  0.00  0.00    +0.250 C 
ATOM     10  C   LIG    1        4.540  -0.683  -5.829  0.00  0.00    +0.170 A 
ATOM     11  N   LIG    1        4.739   0.544  -5.437  0.00  0.00    -0.280 NA
ATOM     12  N   LIG    1        3.698   1.253  -5.699  0.00  0.00    -0.290 NA
ATOM     13  C   LIG    1        2.791   0.496  -6.273  0.00  0.00    +0.220 A 
ATOM     14  O   LIG    1        3.307  -0.747  -6.360  0.00  0.00    -0.220 OA
ENDBRANCH   3  13
ENDBRANCH   1   8
BRANCH   1  15
ATOM     15  S   LIG    1        1.284   4.379  -5.011  0.00  0.00    +2.780 S 
ATOM     16  O   LIG    1        2.400   5.050  -4.441  0.00  0.00    -0.960 OA
ATOM     17  O   LIG    1        0.289   5.041  -5.780  0.00  0.00    -0.970 OA
BRANCH  15  18
ATOM     18  N   LIG    1        0.492   3.640  -3.758  0.00  0.00    -1.000 NA
ATOM     19  C   LIG    1        1.202   3.310  -2.515  0.00  0.00    +0.280 C 
ATOM     20  C   LIG    1        0.434   3.912  -1.334  0.00  0.00    +0.030 C 
ATOM     21  C   LIG    1       -1.018   3.431  -1.376  0.00  0.00    -0.050 C 
ATOM     22  C   LIG    1       -1.677   3.903  -2.674  0.00  0.00    +0.030 C 
ATOM     23  C   LIG    1       -1.051   1.902  -1.315  0.00  0.00    +0.020 C 
ATOM     24  C   LIG    1       -0.395   1.429  -0.016  0.00  0.00    +0.000 C 
ATOM     25  C   LIG    1       -1.158   2.004   1.179  0.00  0.00    +0.000 C 
ATOM     26  C   LIG    1       -1.124   3.532   1.119  0.00  0.00    +0.000 C 
ATOM     27  C   LIG    1       -1.780   4.005  -0.180  0.00  0.00    +0.010 C 
ATOM     28  C   LIG    1       -0.933   3.301  -3.869  0.00  0.00    +0.270 C 
ENDBRANCH  15  18
ENDBRANCH   1  15
TORSDOF 4
