REMARK  Name = ZINC650000002oCh.1
REMARK                            x       y       z     vdW  Elec       q    Type
REMARK                         _______ _______ _______ _____ _____    ______ ____
ROOT
ATOM      1  CA  LIG    1       -0.699   1.479   1.216  0.00  0.00    +0.180 C 
ENDROOT
BRANCH   1   2
ATOM      2  N   LIG    1       -0.012   1.005   0.008  0.00  0.00    -0.630 N 
ATOM      3  H1  LIG    1       -0.500   1.339  -0.810  0.00  0.00    +0.430 HD
ATOM      4  H2  LIG    1        0.935   1.354   0.000  0.00  0.00    +0.430 HD
ATOM      5  H3  LIG    1        0.002  -0.004   0.002  0.00  0.00    +0.440 HD
ENDBRANCH   1   2
BRANCH   1   7
ATOM      6  C   LIG    1        0.711   3.537   1.339  0.00  0.00    +0.040 C 
ATOM      7  C   LIG    1       -0.720   3.008   1.225  0.00  0.00    +0.050 C 
ENDBRANCH   1   7
BRANCH   1   8
ATOM      8  C   LIG    1       -2.135   0.949   1.227  0.00  0.00    +0.220 C 
BRANCH   8   9
ATOM      9  O   LIG    1       -2.116  -0.476   1.337  0.00  0.00    -0.580 OA
ATOM     10  H   LIG    1       -2.994  -0.881   1.349  0.00  0.00    +0.410 HD
ENDBRANCH   8   9
ENDBRANCH   1   8
TORSDOF 4
