REMARK  Name = ZINCqH0000008ZzM.0
REMARK                            x       y       z     vdW  Elec       q    Type
REMARK                         _______ _______ _______ _____ _____    ______ ____
ROOT
ATOM      1  N   LIG    1       -0.800   3.491   0.726  0.00  0.00    -0.530 NA
ATOM      2  C   LIG    1        0.609   3.897   0.810  0.00  0.00    +0.160 C 
ATOM      3  C   LIG    1        0.689   5.415   1.002  0.00  0.00    +0.280 C 
ATOM      4  N   LIG    1       -0.135   5.783   2.164  0.00  0.00    -0.610 N 
ATOM      5  C   LIG    1       -1.521   5.295   2.216  0.00  0.00    +0.300 C 
ATOM      6  C   LIG    1        0.368   6.547   3.154  0.00  0.00    +0.560 C 
ATOM      7  O   LIG    1       -0.347   6.901   4.071  0.00  0.00    -0.520 OA
ATOM      8  C   LIG    1       -1.514   3.782   1.977  0.00  0.00    +0.170 C 
ENDROOT
BRANCH   6   9
ATOM      9  C   LIG    1        1.786   6.952   3.126  0.00  0.00    -0.160 A 
ATOM     10  C   LIG    1        2.317   7.573   1.992  0.00  0.00    +0.050 A 
ATOM     11  C   LIG    1        3.642   7.950   1.972  0.00  0.00    +0.000 A 
ATOM     12  C   LIG    1        4.452   7.715   3.071  0.00  0.00    +0.050 A 
ATOM     13  C   LIG    1        3.941   7.103   4.198  0.00  0.00    -0.010 A 
ATOM     14  C   LIG    1        2.608   6.722   4.238  0.00  0.00    +0.150 A 
BRANCH  14  15
ATOM     15  O   LIG    1        2.103   6.125   5.346  0.00  0.00    -0.480 OA
ATOM     16  H   LIG    1        2.176   5.160   5.341  0.00  0.00    +0.390 HD
ENDBRANCH  14  15
ENDBRANCH   6   9
BRANCH   1  18
ATOM     17  C   LIG    1       -0.211   1.220   1.427  0.00  0.00    +0.000 C 
ATOM     18  C   LIG    1       -0.919   2.070   0.371  0.00  0.00    +0.180 C 
BRANCH  18  19
ATOM     19  C   LIG    1       -0.272   1.831  -0.995  0.00  0.00    +0.060 C 
BRANCH  19  20
ATOM     20  C   LIG    1       -1.057   2.583  -2.070  0.00  0.00    +0.080 C 
BRANCH  20  21
ATOM     21  S   LIG    1       -0.290   2.299  -3.689  0.00  0.00    -0.130 S 
BRANCH  21  22
ATOM     22  C   LIG    1       -1.313   3.228  -4.782  0.00  0.00    -0.080 A 
ATOM     23  C   LIG    1       -2.405   3.931  -4.285  0.00  0.00    -0.010 A 
ATOM     24  C   LIG    1       -3.201   4.663  -5.143  0.00  0.00    +0.030 A 
ATOM     25  C   LIG    1       -2.920   4.688  -6.497  0.00  0.00    -0.010 A 
ATOM     26  C   LIG    1       -1.839   3.985  -6.996  0.00  0.00    +0.030 A 
ATOM     27  C   LIG    1       -1.034   3.256  -6.143  0.00  0.00    +0.030 A 
ENDBRANCH  21  22
ENDBRANCH  20  21
ENDBRANCH  19  20
ENDBRANCH  18  19
ENDBRANCH   1  18
TORSDOF 7
