REMARK  Name = ZINCpe00000yZUBH.0
REMARK                            x       y       z     vdW  Elec       q    Type
REMARK                         _______ _______ _______ _____ _____    ______ ____
ROOT
ATOM      1  C   LIG    1       -0.759   1.932  -1.229  0.00  0.00    +0.010 C 
ENDROOT
BRANCH   1   7
ATOM      2  C   LIG    1        3.251   0.907   1.240  0.00  0.00    +0.520 C 
ATOM      3  N   LIG    1        2.077   1.568   1.255  0.00  0.00    -0.610 N 
ATOM      4  C   LIG    1        1.429   1.915   2.527  0.00  0.00    +0.260 C 
ATOM      5  C   LIG    1       -0.008   1.384   2.510  0.00  0.00    +0.030 C 
ATOM      6  C   LIG    1       -0.730   1.919   1.271  0.00  0.00    +0.050 C 
ATOM      7  C   LIG    1       -0.017   1.425   0.010  0.00  0.00    +0.130 C 
ATOM      8  C   LIG    1        1.420   1.956  -0.001  0.00  0.00    +0.260 C 
ATOM      9  O   LIG    1        3.776   0.627   0.183  0.00  0.00    -0.530 OA
BRANCH   7  10
ATOM     10  O   LIG    1        0.002  -0.004   0.002  0.00  0.00    -0.550 OA
ATOM     11  H   LIG    1        0.442  -0.387  -0.769  0.00  0.00    +0.380 HD
ENDBRANCH   7  10
BRANCH   2  12
ATOM     12  C   LIG    1        3.913   0.516   2.536  0.00  0.00    +0.050 C 
BRANCH  12  14
ATOM     13  C   LIG    1        5.831  -0.723   3.549  0.00  0.00    +0.040 C 
ATOM     14  C   LIG    1        5.222  -0.217   2.240  0.00  0.00    +0.190 C 
ATOM     15  F   LIG    1        6.117   0.660   1.617  0.00  0.00    -0.210 F 
ENDBRANCH  12  14
ENDBRANCH   2  12
ENDBRANCH   1   7
BRANCH   1  16
ATOM     16  C   LIG    1       -0.044   1.439  -2.488  0.00  0.00    +0.260 C 
BRANCH  16  17
ATOM     17  N   LIG    1       -0.754   1.925  -3.674  0.00  0.00    -0.720 N 
ATOM     18  H   LIG    1       -1.549   2.472  -3.574  0.00  0.00    +0.400 HD
ATOM     19  C   LIG    1       -0.302   1.613  -4.905  0.00  0.00    +0.560 C 
ATOM     20  O   LIG    1        0.694   0.928  -5.031  0.00  0.00    -0.530 OA
BRANCH  19  21
ATOM     21  C   LIG    1       -1.018   2.103  -6.102  0.00  0.00    -0.140 A 
ATOM     22  C   LIG    1       -2.163   2.890  -5.970  0.00  0.00    +0.220 A 
ATOM     23  N   LIG    1       -2.804   3.330  -7.033  0.00  0.00    -0.440 NA
ATOM     24  C   LIG    1       -2.400   3.051  -8.257  0.00  0.00    +0.210 A 
ATOM     25  C   LIG    1       -1.269   2.273  -8.477  0.00  0.00    +0.160 A 
ATOM     26  C   LIG    1       -0.556   1.790  -7.385  0.00  0.00    +0.050 A 
BRANCH  25  27
ATOM     27  N   LIG    1       -0.850   1.985  -9.778  0.00  0.00    -0.870 N 
ATOM     28  H   LIG    1       -0.060   1.442  -9.925  0.00  0.00    +0.400 HD
ATOM     29  H   LIG    1       -1.350   2.328 -10.536  0.00  0.00    +0.400 HD
ENDBRANCH  25  27
ENDBRANCH  19  21
ENDBRANCH  16  17
ENDBRANCH   1  16
TORSDOF 8
