REMARK  Name = ZINCqH0000006chr.0
REMARK                            x       y       z     vdW  Elec       q    Type
REMARK                         _______ _______ _______ _____ _____    ______ ____
ROOT
ATOM      1  N   LIG    1        6.241   3.375   0.400  0.00  0.00    -0.590 N 
ATOM      2  C   LIG    1        6.303   2.563   1.474  0.00  0.00    +0.570 C 
ATOM      3  O   LIG    1        7.026   1.586   1.456  0.00  0.00    -0.500 OA
ENDROOT
BRANCH   2   4
ATOM      4  C   LIG    1        5.493   2.861   2.674  0.00  0.00    -0.120 A 
ATOM      5  C   LIG    1        4.308   3.589   2.556  0.00  0.00    +0.040 A 
ATOM      6  C   LIG    1        3.552   3.859   3.678  0.00  0.00    +0.020 A 
ATOM      7  C   LIG    1        3.973   3.420   4.921  0.00  0.00    +0.070 A 
ATOM      8  C   LIG    1        5.151   2.703   5.046  0.00  0.00    -0.100 A 
ATOM      9 BR   LIG    1        5.716   2.108   6.750  0.00  0.00    -0.040 Br
ATOM     10  C   LIG    1        5.912   2.421   3.930  0.00  0.00    +0.120 A 
ENDBRANCH   2   4
BRANCH   1  11
ATOM     11  C   LIG    1        6.981   3.036  -0.819  0.00  0.00    +0.320 C 
BRANCH  11  12
ATOM     12  C   LIG    1        8.329   3.758  -0.815  0.00  0.00    +0.150 C 
BRANCH  12  14
ATOM     13  C   LIG    1       10.417   3.879   0.356  0.00  0.00    +0.200 C 
ATOM     14  O   LIG    1        9.130   3.267   0.262  0.00  0.00    -0.370 OA
ENDBRANCH  12  14
ENDBRANCH  11  12
ENDBRANCH   1  11
BRANCH   1  15
ATOM     15  C   LIG    1        5.434   4.597   0.451  0.00  0.00    +0.310 C 
BRANCH  15  16
ATOM     16  C   LIG    1        4.188   4.410  -0.374  0.00  0.00    +0.490 C 
ATOM     17  N   LIG    1        3.289   5.410  -0.474  0.00  0.00    -0.670 N 
ATOM     18  H   LIG    1        3.479   6.274  -0.076  0.00  0.00    +0.410 HD
ATOM     19  O   LIG    1        3.992   3.360  -0.949  0.00  0.00    -0.500 OA
BRANCH  17  20
ATOM     20  C   LIG    1        2.084   5.202  -1.153  0.00  0.00    +0.140 A 
ATOM     21  C   LIG    1        2.043   4.362  -2.258  0.00  0.00    +0.020 A 
ATOM     22  C   LIG    1        0.851   4.160  -2.926  0.00  0.00    +0.030 A 
ATOM     23  C   LIG    1       -0.299   4.796  -2.499  0.00  0.00    -0.010 A 
ATOM     24  C   LIG    1       -0.263   5.629  -1.396  0.00  0.00    -0.070 A 
ATOM     25  C   LIG    1       -1.521   6.316  -0.930  0.00  0.00    +0.090 C 
ATOM     26  C   LIG    1        0.925   5.836  -0.724  0.00  0.00    -0.110 A 
ATOM     27  C   LIG    1        0.965   6.748   0.475  0.00  0.00    +0.090 C 
ENDBRANCH  17  20
ENDBRANCH  15  16
ENDBRANCH   1  15
TORSDOF 7
