REMARK  Name = ZINCnE000001Kbtl.1
REMARK                            x       y       z     vdW  Elec       q    Type
REMARK                         _______ _______ _______ _____ _____    ______ ____
ROOT
ATOM      1  N   LIG    1        0.973  -4.237   0.443  0.00  0.00    -0.680 NA
ATOM      2  C   LIG    1        2.119  -3.527   0.420  0.00  0.00    +0.660 C 
ATOM      3  N   LIG    1        2.360  -2.669  -0.591  0.00  0.00    -0.610 N 
ATOM      4  C   LIG    1        1.377  -2.509  -1.666  0.00  0.00    +0.250 C 
ATOM      5  O   LIG    1        2.934  -3.660   1.312  0.00  0.00    -0.640 OA
ENDROOT
BRANCH   1   9
ATOM      6  C   LIG    1       -0.414  -6.637   2.661  0.00  0.00    +0.090 A 
ATOM      7  C   LIG    1        0.641  -6.570   3.475  0.00  0.00    -0.200 A 
ATOM      8  S   LIG    1        1.779  -5.406   2.801  0.00  0.00    +0.020 S 
ATOM      9  C   LIG    1        0.724  -5.121   1.486  0.00  0.00    +0.370 A 
ATOM     10  N   LIG    1       -0.344  -5.846   1.606  0.00  0.00    -0.570 NA
BRANCH   6  11
ATOM     11  C   LIG    1       -1.592  -7.538   2.926  0.00  0.00    +0.270 C 
BRANCH  11  13
ATOM     12  C   LIG    1       -2.440  -9.149   4.486  0.00  0.00    +0.190 C 
ATOM     13  O   LIG    1       -1.375  -8.260   4.140  0.00  0.00    -0.390 OA
ENDBRANCH  11  13
ENDBRANCH   6  11
ENDBRANCH   1   9
BRANCH   3  14
ATOM     14  C   LIG    1        3.605  -1.898  -0.616  0.00  0.00    +0.330 C 
BRANCH  14  15
ATOM     15  C   LIG    1        3.438  -0.633   0.228  0.00  0.00    -0.110 C 
ATOM     16  C   LIG    1        3.818  -0.716   1.708  0.00  0.00    +0.040 C 
ATOM     17  C   LIG    1        4.710   0.053   0.731  0.00  0.00    +0.010 C 
BRANCH  15  18
ATOM     18  C   LIG    1        2.272   0.247  -0.142  0.00  0.00    -0.030 A 
ATOM     19  C   LIG    1        2.376   1.119  -1.210  0.00  0.00    +0.000 A 
ATOM     20  C   LIG    1        1.307   1.927  -1.549  0.00  0.00    -0.010 A 
ATOM     21  C   LIG    1        0.134   1.862  -0.821  0.00  0.00    -0.010 A 
ATOM     22  C   LIG    1        0.029   0.990   0.246  0.00  0.00    +0.000 A 
ATOM     23  C   LIG    1        1.099   0.182   0.586  0.00  0.00    +0.030 A 
ENDBRANCH  15  18
ENDBRANCH  14  15
ENDBRANCH   3  14
TORSDOF 6
