REMARK  Name = ZINCpk000000mRDd.0
REMARK                            x       y       z     vdW  Elec       q    Type
REMARK                         _______ _______ _______ _____ _____    ______ ____
ROOT
ATOM      1  C   LIG    1       -0.546   1.537   0.222  0.00  0.00    +0.110 C 
ATOM      2  C   LIG    1       -0.402   0.039   0.136  0.00  0.00    +0.500 C 
ATOM      3  N   LIG    1        0.272  -0.629   1.093  0.00  0.00    -0.560 N 
ATOM      4  C   LIG    1        0.983   0.100   2.153  0.00  0.00    +0.280 C 
ATOM      5  C   LIG    1        2.362  -0.551   2.324  0.00  0.00    +0.020 C 
ATOM      6  C   LIG    1        2.174  -1.993   2.793  0.00  0.00    +0.090 C 
ATOM      7  C   LIG    1        1.206  -2.718   1.894  0.00  0.00    -0.060 A 
ATOM      8  C   LIG    1        1.221  -4.102   1.872  0.00  0.00    +0.020 A 
ATOM      9  C   LIG    1        0.329  -4.796   1.071  0.00  0.00    +0.100 A 
ATOM     10  C   LIG    1       -0.571  -4.109   0.276  0.00  0.00    -0.660 A 
ATOM     11  C   LIG    1       -0.586  -2.729   0.288  0.00  0.00    +0.130 A 
ATOM     12  C   LIG    1        0.301  -2.030   1.099  0.00  0.00    +0.140 A 
ATOM     13  O   LIG    1       -0.892  -0.565  -0.794  0.00  0.00    -0.480 OA
ENDROOT
BRANCH  10  14
ATOM     14  S   LIG    1       -1.696  -4.995  -0.751  0.00  0.00    +2.680 S 
ATOM     15  O   LIG    1       -2.680  -4.059  -1.169  0.00  0.00    -0.940 OA
ATOM     16  O   LIG    1       -2.010  -6.196  -0.059  0.00  0.00    -0.950 OA
BRANCH  14  17
ATOM     17  N   LIG    1       -0.868  -5.444  -2.113  0.00  0.00    -1.000 NA
ATOM     18  C   LIG    1       -0.303  -6.791  -2.206  0.00  0.00    +0.310 C 
ATOM     19  C   LIG    1       -1.011  -7.559  -3.334  0.00  0.00    +0.110 C 
ATOM     20  S   LIG    1       -0.809  -6.635  -4.886  0.00  0.00    -0.250 S 
ATOM     21  C   LIG    1       -1.451  -4.993  -4.446  0.00  0.00    +0.110 C 
ATOM     22  C   LIG    1       -0.703  -4.486  -3.208  0.00  0.00    +0.250 C 
BRANCH  22  23
ATOM     23  C   LIG    1       -1.272  -3.129  -2.789  0.00  0.00    +0.040 C 
BRANCH  23  24
ATOM     24  C   LIG    1       -0.923  -2.081  -3.848  0.00  0.00    +0.170 C 
BRANCH  24  25
ATOM     25  O   LIG    1       -1.361  -0.794  -3.406  0.00  0.00    -0.550 OA
ATOM     26  H   LIG    1       -1.172  -0.080  -4.030  0.00  0.00    +0.370 HD
ENDBRANCH  24  25
ENDBRANCH  23  24
ENDBRANCH  22  23
ENDBRANCH  14  17
ENDBRANCH  10  14
TORSDOF 5
