REMARK  Name = ZINCqH0000006YXO.0
REMARK                            x       y       z     vdW  Elec       q    Type
REMARK                         _______ _______ _______ _____ _____    ______ ____
ROOT
ATOM      1  C   LIG    1        1.620  -7.608  -4.012  0.00  0.00    -0.020 A 
ATOM      2  C   LIG    1        2.030  -8.812  -4.405  0.00  0.00    -0.020 A 
ATOM      3  S   LIG    1        3.767  -8.846  -4.646  0.00  0.00    +0.180 S 
ATOM      4  C   LIG    1        3.938  -7.160  -4.181  0.00  0.00    +0.120 A 
ATOM      5  N   LIG    1        5.021  -6.378  -4.088  0.00  0.00    -0.530 NA
ATOM      6  C   LIG    1        4.921  -5.123  -3.715  0.00  0.00    +0.560 A 
ATOM      7  N   LIG    1        3.761  -4.571  -3.412  0.00  0.00    -0.580 NA
ATOM      8  C   LIG    1        2.634  -5.265  -3.474  0.00  0.00    +0.490 A 
ATOM      9  C   LIG    1        2.687  -6.626  -3.866  0.00  0.00    -0.220 A 
ENDROOT
BRANCH   1  13
ATOM     10  C   LIG    1       -2.464  -6.705  -3.241  0.00  0.00    +0.140 A 
ATOM     11  C   LIG    1       -2.082  -7.172  -4.491  0.00  0.00    -0.010 A 
ATOM     12  C   LIG    1       -0.758  -7.466  -4.744  0.00  0.00    +0.080 A 
ATOM     13  C   LIG    1        0.197  -7.293  -3.743  0.00  0.00    -0.080 A 
ATOM     14  C   LIG    1       -0.191  -6.829  -2.487  0.00  0.00    +0.050 A 
ATOM     15  C   LIG    1       -1.516  -6.532  -2.242  0.00  0.00    -0.070 A 
BRANCH  10  17
ATOM     16  C   LIG    1       -4.092  -5.939  -1.687  0.00  0.00    +0.240 C 
ATOM     17  O   LIG    1       -3.769  -6.416  -2.994  0.00  0.00    -0.310 OA
ENDBRANCH  10  17
ENDBRANCH   1  13
BRANCH   8  18
ATOM     18  N   LIG    1        1.425  -4.673  -3.153  0.00  0.00    -0.700 N 
ATOM     19  H   LIG    1        0.597  -5.163  -3.279  0.00  0.00    +0.420 HD
BRANCH  18  20
ATOM     20  C   LIG    1        1.396  -3.307  -2.625  0.00  0.00    +0.290 C 
BRANCH  20  21
ATOM     21  C   LIG    1       -0.053  -2.896  -2.356  0.00  0.00    +0.190 C 
BRANCH  21  22
ATOM     22  C   LIG    1       -0.083  -1.490  -1.813  0.00  0.00    +0.180 A 
ATOM     23  N   LIG    1       -0.179  -0.385  -2.511  0.00  0.00    -0.470 NA
ATOM     24  C   LIG    1       -0.165   0.615  -1.611  0.00  0.00    +0.170 A 
ATOM     25  N   LIG    1       -0.071   0.075  -0.433  0.00  0.00    -0.380 NA
ATOM     26  C   LIG    1       -0.250   2.088  -1.914  0.00  0.00    +0.200 C 
ATOM     27  O   LIG    1       -0.023  -1.133  -0.526  0.00  0.00    +0.080 OA
ENDBRANCH  21  22
ENDBRANCH  20  21
ENDBRANCH  18  20
ENDBRANCH   8  18
TORSDOF 6
