REMARK  Name = ZINCvU000000040b.0
REMARK                            x       y       z     vdW  Elec       q    Type
REMARK                         _______ _______ _______ _____ _____    ______ ____
ROOT
ATOM      1  O   LIG    1        3.808  -1.652  -0.108  0.00  0.00    -0.430 OA
ATOM      2  C   LIG    1        3.671  -0.454   0.039  0.00  0.00    +0.400 C 
ATOM      3  C   LIG    1        4.878   0.418   0.285  0.00  0.00    +0.050 C 
ATOM      4  C   LIG    1        4.616   1.818  -0.281  0.00  0.00    +0.310 C 
ATOM      5  N   LIG    1        3.334   2.308   0.247  0.00  0.00    -0.520 N 
ATOM      6  C   LIG    1        2.220   1.511   0.095  0.00  0.00    +0.460 A 
ATOM      7  N   LIG    1        0.998   2.036   0.054  0.00  0.00    -0.520 NA
ATOM      8  C   LIG    1       -0.079   1.298  -0.107  0.00  0.00    +0.480 A 
ATOM      9  N   LIG    1       -0.027  -0.060  -0.244  0.00  0.00    -0.440 N 
ATOM     10  C   LIG    1       -0.996  -1.030  -0.426  0.00  0.00    +0.020 A 
ATOM     11  C   LIG    1       -2.378  -0.997  -0.541  0.00  0.00    +0.030 A 
ATOM     12  C   LIG    1       -3.082  -2.169  -0.722  0.00  0.00    +0.030 A 
ATOM     13  C   LIG    1       -2.417  -3.385  -0.791  0.00  0.00    +0.040 A 
ATOM     14  C   LIG    1       -1.046  -3.439  -0.679  0.00  0.00    +0.060 A 
ATOM     15  C   LIG    1       -0.317  -2.260  -0.495  0.00  0.00    +0.100 A 
ATOM     16  N   LIG    1        1.007  -2.000  -0.355  0.00  0.00    -0.460 NA
ATOM     17  C   LIG    1        1.191  -0.708  -0.207  0.00  0.00    +0.360 A 
ATOM     18  C   LIG    1        2.389   0.118  -0.021  0.00  0.00    -0.280 A 
ENDROOT
BRANCH   8  19
ATOM     19  C   LIG    1       -1.395   1.965  -0.147  0.00  0.00    -0.050 A 
ATOM     20  C   LIG    1       -1.718   2.817  -1.206  0.00  0.00    +0.080 A 
ATOM     21  C   LIG    1       -2.952   3.432  -1.240  0.00  0.00    +0.040 A 
ATOM     22  C   LIG    1       -3.865   3.216  -0.222  0.00  0.00    +0.060 A 
ATOM     23  C   LIG    1       -3.550   2.378   0.833  0.00  0.00    +0.050 A 
ATOM     24  C   LIG    1       -2.322   1.751   0.877  0.00  0.00    -0.070 A 
ATOM     25  I   LIG    1       -1.848   0.482   2.475  0.00  0.00    -0.010 I 
ENDBRANCH   8  19
BRANCH   5  26
ATOM     26  C   LIG    1        3.247   3.549   0.884  0.00  0.00    +0.160 A 
ATOM     27  C   LIG    1        4.348   4.396   0.912  0.00  0.00    -0.030 A 
ATOM     28  C   LIG    1        4.256   5.623   1.538  0.00  0.00    +0.040 A 
ATOM     29  C   LIG    1        3.075   6.005   2.146  0.00  0.00    -0.020 A 
ATOM     30  C   LIG    1        1.979   5.162   2.125  0.00  0.00    +0.040 A 
ATOM     31  C   LIG    1        2.061   3.936   1.496  0.00  0.00    +0.000 A 
ENDBRANCH   5  26
TORSDOF 2
