REMARK  Name = ZINCqH0000004Nfw.0
REMARK                            x       y       z     vdW  Elec       q    Type
REMARK                         _______ _______ _______ _____ _____    ______ ____
ROOT
ATOM      1  C   LIG    1       -0.207  12.687  -0.673  0.00  0.00    +0.130 A 
ATOM      2  N   LIG    1        0.806  11.859  -0.568  0.00  0.00    -0.430 NA
ATOM      3  C   LIG    1        0.581  10.558  -0.350  0.00  0.00    +0.100 A 
ATOM      4  C   LIG    1        1.650   9.651  -0.233  0.00  0.00    +0.070 A 
ATOM      5  C   LIG    1        1.403   8.335  -0.007  0.00  0.00    +0.060 A 
ATOM      6  C   LIG    1        0.086   7.857   0.102  0.00  0.00    -0.120 A 
ATOM      7  C   LIG    1       -0.988   8.725  -0.008  0.00  0.00    +0.160 A 
ATOM      8  C   LIG    1       -0.752  10.090  -0.236  0.00  0.00    +0.070 A 
ATOM      9  N   LIG    1       -1.768  10.954  -0.347  0.00  0.00    -0.410 NA
ATOM     10  C   LIG    1       -1.521  12.225  -0.560  0.00  0.00    +0.120 A 
ENDROOT
BRANCH   6  11
ATOM     11  C   LIG    1       -0.155   6.418   0.343  0.00  0.00    +0.560 C 
ATOM     12  N   LIG    1        0.886   5.569   0.451  0.00  0.00    -0.660 N 
ATOM     13  H   LIG    1        1.793   5.912   0.446  0.00  0.00    +0.420 HD
ATOM     14  O   LIG    1       -1.293   6.001   0.444  0.00  0.00    -0.500 OA
BRANCH  12  15
ATOM     15  C   LIG    1        0.657   4.193   0.571  0.00  0.00    +0.160 A 
ATOM     16  C   LIG    1        1.519   3.410   1.327  0.00  0.00    +0.010 A 
ATOM     17  C   LIG    1        1.292   2.052   1.451  0.00  0.00    +0.060 A 
ATOM     18  C   LIG    1        0.210   1.468   0.814  0.00  0.00    +0.020 A 
ATOM     19  O   LIG    1       -0.226   0.173   0.775  0.00  0.00    -0.310 OA
ATOM     20  C   LIG    1       -1.128   0.105  -0.345  0.00  0.00    +0.430 C 
ATOM     21  O   LIG    1       -1.634   1.448  -0.460  0.00  0.00    -0.310 OA
ATOM     22  C   LIG    1       -0.657   2.251   0.054  0.00  0.00    +0.060 A 
ATOM     23  C   LIG    1       -0.431   3.612  -0.065  0.00  0.00    +0.050 A 
ENDBRANCH  12  15
ENDBRANCH   6  11
BRANCH   1  25
ATOM     24  C   LIG    1        0.190  14.402  -2.420  0.00  0.00    +0.040 C 
ATOM     25  C   LIG    1        0.050  14.152  -0.917  0.00  0.00    +0.100 C 
ENDBRANCH   1  25
BRANCH  10  26
ATOM     26  C   LIG    1       -2.667  13.197  -0.685  0.00  0.00    +0.100 C 
ATOM     27  C   LIG    1       -3.025  13.744   0.698  0.00  0.00    +0.040 C 
ENDBRANCH  10  26
TORSDOF 4
