REMARK  Name = ZINCqH0000038joc.0
REMARK                            x       y       z     vdW  Elec       q    Type
REMARK                         _______ _______ _______ _____ _____    ______ ____
ROOT
ATOM      1  C   LIG    1        4.726   0.372  -0.768  0.00  0.00    +0.550 C 
ATOM      2  N   LIG    1        4.831   1.499  -0.037  0.00  0.00    -0.660 N 
ATOM      3  H   LIG    1        4.056   1.848   0.431  0.00  0.00    +0.410 HD
ATOM      4  O   LIG    1        5.669  -0.013  -1.431  0.00  0.00    -0.490 OA
ENDROOT
BRANCH   1  10
ATOM      5  C   LIG    1        2.046  -3.541  -2.322  0.00  0.00    +0.110 C 
ATOM      6  C   LIG    1        2.168  -2.276  -1.512  0.00  0.00    -0.040 A 
ATOM      7  C   LIG    1        1.096  -1.835  -0.757  0.00  0.00    +0.070 A 
ATOM      8  C   LIG    1        1.202  -0.678  -0.005  0.00  0.00    +0.070 A 
ATOM      9  C   LIG    1        2.377   0.043  -0.004  0.00  0.00    +0.070 A 
ATOM     10  C   LIG    1        3.462  -0.396  -0.764  0.00  0.00    -0.090 A 
ATOM     11  C   LIG    1        3.350  -1.564  -1.520  0.00  0.00    +0.030 A 
BRANCH  11  12
ATOM     12  N   LIG    1        4.495  -2.038  -2.329  0.00  0.00    +0.030 N 
ATOM     13  O   LIG    1        5.313  -2.797  -1.840  0.00  0.00    -0.130 OA
ATOM     14  O   LIG    1        4.621  -1.668  -3.483  0.00  0.00    -0.130 OA
ENDBRANCH  11  12
ENDBRANCH   1  10
BRANCH   2  15
ATOM     15  C   LIG    1        6.058   2.165   0.047  0.00  0.00    +0.180 A 
ATOM     16  C   LIG    1        6.091   3.550   0.155  0.00  0.00    -0.050 A 
ATOM     17  C   LIG    1        7.303   4.208   0.238  0.00  0.00    +0.070 A 
ATOM     18  C   LIG    1        8.484   3.491   0.215  0.00  0.00    -0.090 A 
ATOM     19  C   LIG    1        8.457   2.108   0.108  0.00  0.00    +0.160 A 
ATOM     20  C   LIG    1        7.243   1.444   0.029  0.00  0.00    -0.010 A 
BRANCH  19  21
ATOM     21  O   LIG    1        9.620   1.405   0.086  0.00  0.00    -0.300 OA
BRANCH  21  22
ATOM     22  C   LIG    1       10.833   2.154   0.177  0.00  0.00    +0.210 C 
BRANCH  22  23
ATOM     23  C   LIG    1       12.027   1.198   0.136  0.00  0.00    +0.160 C 
ATOM     24  C   LIG    1       13.341   2.002   0.115  0.00  0.00    +0.010 C 
ATOM     25  C   LIG    1       14.104   1.516   1.371  0.00  0.00    +0.000 C 
ATOM     26  C   LIG    1       13.428   0.150   1.653  0.00  0.00    +0.200 C 
ATOM     27  O   LIG    1       12.041   0.382   1.319  0.00  0.00    -0.360 OA
ENDBRANCH  22  23
ENDBRANCH  21  22
ENDBRANCH  19  21
ENDBRANCH   2  15
TORSDOF 6
