REMARK  Name = ZINCpk00000KfKZo.0
REMARK                            x       y       z     vdW  Elec       q    Type
REMARK                         _______ _______ _______ _____ _____    ______ ____
ROOT
ATOM      1  C   LIG    1       -0.732   1.581   1.266  0.00  0.00    +0.030 C 
ATOM      2  C   LIG    1       -0.013   1.086   0.008  0.00  0.00    +0.030 C 
ATOM      3  C   LIG    1       -0.756   1.594  -1.230  0.00  0.00    +0.050 C 
ATOM      4  C   LIG    1       -0.826   3.122  -1.185  0.00  0.00    +0.180 C 
ATOM      5  N   LIG    1       -1.525   3.546   0.035  0.00  0.00    -0.510 NA
ATOM      6  C   LIG    1       -0.804   3.109   1.238  0.00  0.00    +0.190 C 
ENDROOT
BRANCH   1  11
ATOM      7  N   LIG    1       -0.447  -0.798   3.636  0.00  0.00    -0.580 N 
ATOM      8  C   LIG    1       -0.968   0.227   4.320  0.00  0.00    +0.700 C 
ATOM      9  N   LIG    1       -0.732   1.412   3.729  0.00  0.00    -0.720 N 
ATOM     10  H   LIG    1       -1.016   2.284   4.046  0.00  0.00    +0.440 HD
ATOM     11  C   LIG    1        0.039   1.127   2.507  0.00  0.00    +0.130 C 
ATOM     12  C   LIG    1        1.409   1.806   2.565  0.00  0.00    +0.090 C 
ATOM     13  O   LIG    1       -1.586   0.101   5.359  0.00  0.00    -0.540 OA
ATOM     14  C   LIG    1        0.190  -0.381   2.520  0.00  0.00    +0.530 C 
ATOM     15  O   LIG    1        0.761  -1.067   1.699  0.00  0.00    -0.450 OA
BRANCH   7  17
ATOM     16  C   LIG    1       -1.817  -2.815   3.445  0.00  0.00    +0.030 C 
ATOM     17  C   LIG    1       -0.552  -2.200   4.047  0.00  0.00    +0.310 C 
ENDBRANCH   7  17
ENDBRANCH   1  11
BRANCH   5  18
ATOM     18  C   LIG    1       -1.734   5.000   0.044  0.00  0.00    +0.400 C 
BRANCH  18  19
ATOM     19  C   LIG    1       -0.401   5.698   0.134  0.00  0.00    +0.140 A 
ATOM     20  N   LIG    1        0.352   6.075  -0.871  0.00  0.00    -0.470 NA
ATOM     21  C   LIG    1        1.434   6.650  -0.317  0.00  0.00    +0.200 A 
ATOM     22  N   LIG    1        1.287   6.594   0.973  0.00  0.00    -0.380 NA
ATOM     23  O   LIG    1        0.237   6.055   1.253  0.00  0.00    +0.080 OA
BRANCH  21  24
ATOM     24  C   LIG    1        2.603   7.249  -1.056  0.00  0.00    +0.060 C 
ATOM     25  C   LIG    1        3.822   7.666  -0.231  0.00  0.00    +0.050 C 
ATOM     26  C   LIG    1        2.899   8.732  -0.826  0.00  0.00    +0.060 C 
ENDBRANCH  21  24
ENDBRANCH  18  19
ENDBRANCH   5  18
TORSDOF 5
