REMARK  Name = ZINCpe000000YY8e.0
REMARK                            x       y       z     vdW  Elec       q    Type
REMARK                         _______ _______ _______ _____ _____    ______ ____
ROOT
ATOM      1  C   LIG    1       -1.330   1.944   0.019  0.00  0.00    +0.050 C 
ENDROOT
BRANCH   1   2
ATOM      2  C   LIG    1       -0.014   1.209   0.009  0.00  0.00    +0.520 C 
ATOM      3  N   LIG    1        1.143   1.898   0.001  0.00  0.00    -0.620 N 
ATOM      4  C   LIG    1        1.139   3.368   0.003  0.00  0.00    +0.270 C 
ATOM      5  C   LIG    1        1.978   3.855   1.197  0.00  0.00    +0.270 C 
ATOM      6  N   LIG    1        3.268   3.151   1.181  0.00  0.00    -0.610 N 
ATOM      7  C   LIG    1        3.272   1.681   1.173  0.00  0.00    +0.280 C 
ATOM      8  C   LIG    1        4.426   3.840   1.173  0.00  0.00    +0.550 C 
ATOM      9  O   LIG    1        5.484   3.248   1.161  0.00  0.00    -0.530 OA
ATOM     10  C   LIG    1        2.433   1.194  -0.015  0.00  0.00    +0.280 C 
ATOM     11  O   LIG    1        0.002  -0.004   0.002  0.00  0.00    -0.530 OA
BRANCH   8  12
ATOM     12  C   LIG    1        4.405   5.347   1.181  0.00  0.00    -0.070 C 
ATOM     13  C   LIG    1        4.878   6.067  -0.084  0.00  0.00    +0.060 C 
ATOM     14  C   LIG    1        5.753   6.072   1.172  0.00  0.00    +0.070 C 
ENDBRANCH   8  12
ENDBRANCH   1   2
BRANCH   1  15
ATOM     15  C   LIG    1       -2.479   0.934   0.019  0.00  0.00    +0.290 C 
BRANCH  15  18
ATOM     16  O   LIG    1       -4.899  -0.253   0.024  0.00  0.00    -0.520 OA
ATOM     17  C   LIG    1       -4.915   0.960   0.031  0.00  0.00    +0.510 C 
ATOM     18  N   LIG    1       -3.757   1.649   0.029  0.00  0.00    -0.740 N 
ATOM     19  H   LIG    1       -3.771   2.619   0.034  0.00  0.00    +0.400 HD
BRANCH  17  20
ATOM     20  C   LIG    1       -6.231   1.696   0.041  0.00  0.00    +0.100 C 
BRANCH  20  21
ATOM     21  C   LIG    1       -7.363   0.701   0.041  0.00  0.00    -0.070 A 
ATOM     22  C   LIG    1       -7.891   0.255  -1.156  0.00  0.00    +0.010 A 
ATOM     23  C   LIG    1       -8.926  -0.661  -1.156  0.00  0.00    +0.000 A 
ATOM     24  C   LIG    1       -9.440  -1.123   0.041  0.00  0.00    +0.000 A 
ATOM     25  C   LIG    1       -8.915  -0.674   1.238  0.00  0.00    +0.000 A 
ATOM     26  C   LIG    1       -7.876   0.238   1.238  0.00  0.00    +0.010 A 
ENDBRANCH  20  21
ENDBRANCH  17  20
ENDBRANCH  15  18
ENDBRANCH   1  15
TORSDOF 6
