REMARK  Name = ZINCqH0000050ElF.0
REMARK                            x       y       z     vdW  Elec       q    Type
REMARK                         _______ _______ _______ _____ _____    ______ ____
ROOT
ATOM      1  C   LIG    1       -3.164   3.526   1.453  0.00  0.00    +0.140 A 
ATOM      2  N   LIG    1       -3.653   3.875   0.286  0.00  0.00    -0.280 NA
ATOM      3  N   LIG    1       -4.701   4.601   0.460  0.00  0.00    -0.260 NA
ATOM      4  C   LIG    1       -4.919   4.751   1.744  0.00  0.00    +0.220 A 
ATOM      5  O   LIG    1       -3.951   4.073   2.400  0.00  0.00    -0.200 OA
ENDROOT
BRANCH   4   6
ATOM      6  C   LIG    1       -6.020   5.519   2.360  0.00  0.00    -0.020 A 
ATOM      7  C   LIG    1       -6.129   5.593   3.750  0.00  0.00    +0.080 A 
ATOM      8  C   LIG    1       -7.158   6.311   4.323  0.00  0.00    +0.050 A 
ATOM      9  C   LIG    1       -8.086   6.962   3.524  0.00  0.00    +0.060 A 
ATOM     10  O   LIG    1       -9.175   7.722   3.841  0.00  0.00    -0.300 OA
ATOM     11  C   LIG    1       -9.969   7.775   2.642  0.00  0.00    +0.440 C 
ATOM     12  O   LIG    1       -9.007   7.608   1.584  0.00  0.00    -0.300 OA
ATOM     13  C   LIG    1       -7.983   6.891   2.134  0.00  0.00    +0.030 A 
ATOM     14  C   LIG    1       -6.951   6.177   1.554  0.00  0.00    +0.100 A 
ENDBRANCH   4   6
BRANCH   1  15
ATOM     15  S   LIG    1       -1.738   2.530   1.731  0.00  0.00    +0.090 S 
BRANCH  15  16
ATOM     16  C   LIG    1       -1.252   2.193   0.020  0.00  0.00    +0.210 C 
BRANCH  16  24
ATOM     17  C   LIG    1        0.952  -2.934  -0.024  0.00  0.00    +0.120 C 
ATOM     18  C   LIG    1        1.832  -1.710  -0.025  0.00  0.00    -0.040 A 
ATOM     19  C   LIG    1        3.186  -1.837  -0.039  0.00  0.00    +0.040 A 
ATOM     20  C   LIG    1        3.993  -0.688  -0.041  0.00  0.00    +0.020 A 
ATOM     21  C   LIG    1        3.431   0.539  -0.028  0.00  0.00    +0.210 A 
ATOM     22  N   LIG    1        2.074   0.681  -0.014  0.00  0.00    -0.360 N 
ATOM     23  C   LIG    1        1.258   1.780  -0.000  0.00  0.00    +0.130 A 
ATOM     24  C   LIG    1       -0.016   1.331   0.009  0.00  0.00    +0.060 A 
ATOM     25  N   LIG    1        0.002  -0.004   0.002  0.00  0.00    -0.470 NA
ATOM     26  C   LIG    1        1.260  -0.422  -0.012  0.00  0.00    +0.230 A 
ENDBRANCH  16  24
ENDBRANCH  15  16
ENDBRANCH   1  15
TORSDOF 4
