REMARK  Name = ZINCrD00000cC7ax.0
REMARK                            x       y       z     vdW  Elec       q    Type
REMARK                         _______ _______ _______ _____ _____    ______ ____
ROOT
ATOM      1  C   LIG    1       -4.286   0.249   3.594  0.00  0.00    +0.270 C 
ENDROOT
BRANCH   1   2
ATOM      2  N   LIG    1       -3.390   1.048   2.754  0.00  0.00    -0.620 N 
ATOM      3  C   LIG    1       -3.377   0.864   1.419  0.00  0.00    +0.520 C 
ATOM      4  O   LIG    1       -4.106   0.038   0.912  0.00  0.00    -0.520 OA
ATOM      5  C   LIG    1       -2.509   2.046   3.365  0.00  0.00    +0.270 C 
BRANCH   3   6
ATOM      6  C   LIG    1       -2.455   1.686   0.554  0.00  0.00    +0.000 C 
ATOM      7  C   LIG    1       -0.986   1.395   0.922  0.00  0.00    +0.050 C 
ATOM      8  C   LIG    1       -0.321   0.832  -0.352  0.00  0.00    +0.050 C 
ATOM      9  C   LIG    1       -1.195   1.373  -1.511  0.00  0.00    -0.020 C 
ATOM     10  C   LIG    1       -2.627   1.290  -0.927  0.00  0.00    +0.080 C 
BRANCH   9  11
ATOM     11  C   LIG    1       -1.062   0.485  -2.750  0.00  0.00    +0.460 C 
ATOM     12  F   LIG    1        0.268   0.487  -3.184  0.00  0.00    -0.180 F 
ATOM     13  F   LIG    1       -1.886   0.978  -3.767  0.00  0.00    -0.180 F 
ATOM     14  F   LIG    1       -1.446  -0.822  -2.430  0.00  0.00    -0.180 F 
ENDBRANCH   9  11
ENDBRANCH   3   6
ENDBRANCH   1   2
BRANCH   1  15
ATOM     15  C   LIG    1       -3.568  -1.028   4.034  0.00  0.00    +0.270 C 
BRANCH  15  17
ATOM     16  C   LIG    1       -5.275  -2.745   4.312  0.00  0.00    +0.600 C 
ATOM     17  N   LIG    1       -4.464  -1.827   4.874  0.00  0.00    -0.600 N 
ATOM     18  C   LIG    1       -4.479  -1.628   6.325  0.00  0.00    +0.300 C 
ATOM     19  O   LIG    1       -5.316  -2.861   3.102  0.00  0.00    -0.520 OA
BRANCH  16  21
ATOM     20  C   LIG    1       -6.890  -4.646   4.747  0.00  0.00    +0.060 A 
ATOM     21  C   LIG    1       -6.112  -3.610   5.163  0.00  0.00    -0.080 A 
ATOM     22  N   LIG    1       -6.256  -3.519   6.513  0.00  0.00    -0.460 NA
ATOM     23  C   LIG    1       -7.073  -4.451   6.904  0.00  0.00    +0.430 A 
ATOM     24  O   LIG    1       -7.475  -5.160   5.840  0.00  0.00    -0.190 OA
BRANCH  20  26
ATOM     25  C   LIG    1       -6.608  -6.585   3.226  0.00  0.00    +0.040 C 
ATOM     26  C   LIG    1       -7.060  -5.126   3.328  0.00  0.00    +0.100 C 
ATOM     27  C   LIG    1       -8.532  -5.019   2.926  0.00  0.00    +0.040 C 
ENDBRANCH  20  26
ENDBRANCH  16  21
ENDBRANCH  15  17
ENDBRANCH   1  15
TORSDOF 7
