REMARK  Name = ZINCvU0000000EOk.0
REMARK                            x       y       z     vdW  Elec       q    Type
REMARK                         _______ _______ _______ _____ _____    ______ ____
ROOT
ATOM      1  O   LIG    1        2.700   3.680   1.333  0.00  0.00    -0.500 OA
ATOM      2  C   LIG    1        3.632   3.309   0.651  0.00  0.00    +0.520 C 
ATOM      3  N   LIG    1        3.554   2.144  -0.021  0.00  0.00    -0.670 N 
ATOM      4  H   LIG    1        4.325   1.809  -0.504  0.00  0.00    +0.420 HD
ENDROOT
BRANCH   3   5
ATOM      5  C   LIG    1        2.364   1.419  -0.022  0.00  0.00    +0.220 A 
ATOM      6  C   LIG    1        1.144   2.081  -0.018  0.00  0.00    +0.010 A 
ATOM      7  C   LIG    1       -0.034   1.361  -0.019  0.00  0.00    +0.060 A 
ATOM      8  C   LIG    1       -0.009  -0.024  -0.024  0.00  0.00    -0.010 A 
ATOM      9  C   LIG    1        1.193  -0.698  -0.027  0.00  0.00    +0.060 A 
ATOM     10  C   LIG    1        2.393   0.016  -0.026  0.00  0.00    -0.180 A 
BRANCH  10  11
ATOM     11  C   LIG    1        3.683  -0.699  -0.030  0.00  0.00    +0.570 C 
ATOM     12  N   LIG    1        3.708  -2.043   0.068  0.00  0.00    -0.720 N 
ATOM     13  H   LIG    1        2.878  -2.540   0.140  0.00  0.00    +0.410 HD
ATOM     14  O   LIG    1        4.723  -0.077  -0.120  0.00  0.00    -0.540 OA
BRANCH  12  15
ATOM     15  C   LIG    1        4.989  -2.754   0.064  0.00  0.00    +0.390 C 
BRANCH  15  16
ATOM     16  C   LIG    1        4.742  -4.236   0.183  0.00  0.00    -0.050 A 
ATOM     17  C   LIG    1        4.560  -5.088  -0.842  0.00  0.00    -0.030 A 
ATOM     18  C   LIG    1        4.365  -6.370  -0.279  0.00  0.00    -0.070 A 
ATOM     19  C   LIG    1        4.431  -6.223   1.056  0.00  0.00    +0.190 A 
ATOM     20  O   LIG    1        4.660  -4.929   1.330  0.00  0.00    -0.170 OA
ENDBRANCH  15  16
ENDBRANCH  12  15
ENDBRANCH  10  11
ENDBRANCH   3   5
BRANCH   2  21
ATOM     21  C   LIG    1        4.878   4.152   0.556  0.00  0.00    +0.170 C 
BRANCH  21  22
ATOM     22  C   LIG    1        4.711   5.393   1.394  0.00  0.00    +0.090 A 
ATOM     23  C   LIG    1        5.585   5.728   2.349  0.00  0.00    -0.060 A 
ATOM     24  S   LIG    1        5.040   7.230   3.092  0.00  0.00    +0.100 S 
ATOM     25  C   LIG    1        3.651   7.256   2.010  0.00  0.00    +0.110 A 
ATOM     26  N   LIG    1        3.701   6.215   1.228  0.00  0.00    -0.430 NA
BRANCH  25  27
ATOM     27  C   LIG    1        2.599   8.295   1.988  0.00  0.00    -0.010 A 
ATOM     28  C   LIG    1        2.658   9.370   2.875  0.00  0.00    +0.040 A 
ATOM     29  C   LIG    1        1.673  10.337   2.851  0.00  0.00    +0.040 A 
ATOM     30  C   LIG    1        0.629  10.242   1.949  0.00  0.00    +0.040 A 
ATOM     31  C   LIG    1        0.564   9.178   1.065  0.00  0.00    -0.040 A 
ATOM     32 CL   LIG    1       -0.750   9.068  -0.064  0.00  0.00    -0.060 Cl
ATOM     33  C   LIG    1        1.546   8.207   1.077  0.00  0.00    +0.090 A 
ENDBRANCH  25  27
ENDBRANCH  21  22
ENDBRANCH   2  21
TORSDOF 7
