REMARK  Name = ZINCrD00000fLDP9.0
REMARK                            x       y       z     vdW  Elec       q    Type
REMARK                         _______ _______ _______ _____ _____    ______ ____
ROOT
ATOM      1  O   LIG    1       -5.931  -0.130  -0.286  0.00  0.00    -0.450 OA
ATOM      2  C   LIG    1       -6.094  -1.334  -0.260  0.00  0.00    +0.550 C 
ATOM      3  N   LIG    1       -5.035  -2.154  -0.103  0.00  0.00    -0.660 N 
ATOM      4  H   LIG    1       -5.172  -3.109  -0.003  0.00  0.00    +0.420 HD
ENDROOT
BRANCH   2   5
ATOM      5  C   LIG    1       -7.454  -1.900  -0.400  0.00  0.00    -0.110 A 
ATOM      6  C   LIG    1       -7.635  -3.289  -0.375  0.00  0.00    +0.060 A 
ATOM      7  C   LIG    1       -8.883  -3.831  -0.495  0.00  0.00    +0.090 A 
ATOM      8  C   LIG    1       -9.989  -2.999  -0.659  0.00  0.00    -0.100 A 
ATOM      9  C   LIG    1      -11.350  -3.537  -0.801  0.00  0.00    +0.530 A 
ATOM     10  N   LIG    1      -12.376  -2.675  -0.956  0.00  0.00    -0.530 N 
ATOM     11  H   LIG    1      -13.276  -3.025  -1.049  0.00  0.00    +0.440 HD
ATOM     12  N   LIG    1      -12.178  -1.294  -0.984  0.00  0.00    -0.230 NA
ATOM     13  C   LIG    1      -11.003  -0.751  -0.865  0.00  0.00    +0.320 A 
ATOM     14  O   LIG    1      -11.547  -4.739  -0.779  0.00  0.00    -0.510 OA
ATOM     15  C   LIG    1       -9.820  -1.595  -0.692  0.00  0.00    -0.070 A 
ATOM     16  C   LIG    1       -8.542  -1.051  -0.561  0.00  0.00    +0.130 A 
ENDBRANCH   2   5
BRANCH   3  17
ATOM     17  C   LIG    1       -3.743  -1.629  -0.086  0.00  0.00    +0.360 A 
ATOM     18  C   LIG    1       -2.652  -2.489  -0.036  0.00  0.00    -0.040 A 
ATOM     19  C   LIG    1       -1.375  -1.958  -0.024  0.00  0.00    +0.090 A 
ATOM     20  C   LIG    1       -1.232  -0.573  -0.052  0.00  0.00    +0.000 A 
ATOM     21  C   LIG    1       -2.366   0.223  -0.101  0.00  0.00    +0.310 A 
ATOM     22  N   LIG    1       -3.569  -0.317  -0.117  0.00  0.00    -0.460 NA
BRANCH  20  23
ATOM     23  O   LIG    1        0.004  -0.008  -0.036  0.00  0.00    -0.250 OA
BRANCH  23  24
ATOM     24  C   LIG    1        0.727  -0.022  -1.187  0.00  0.00    +0.120 A 
ATOM     25  C   LIG    1        0.239  -0.683  -2.306  0.00  0.00    -0.080 A 
ATOM     26  C   LIG    1        0.973  -0.691  -3.476  0.00  0.00    +0.050 A 
ATOM     27  C   LIG    1        2.196  -0.050  -3.531  0.00  0.00    -0.020 A 
ATOM     28  C   LIG    1        2.687   0.605  -2.416  0.00  0.00    +0.050 A 
ATOM     29  C   LIG    1        1.955   0.620  -1.245  0.00  0.00    -0.010 A 
ENDBRANCH  23  24
ENDBRANCH  20  23
ENDBRANCH   3  17
TORSDOF 4
