REMARK  Name = ZINCrH000004uQ2S.0
REMARK                            x       y       z     vdW  Elec       q    Type
REMARK                         _______ _______ _______ _____ _____    ______ ____
ROOT
ATOM      1  O   LIG    1       -3.540   3.231   0.537  0.00  0.00    -0.510 OA
ATOM      2  C   LIG    1       -2.490   3.844   0.535  0.00  0.00    +0.550 C 
ATOM      3  N   LIG    1       -2.484   5.171   0.769  0.00  0.00    -0.720 N 
ATOM      4  H   LIG    1       -1.646   5.660   0.767  0.00  0.00    +0.400 HD
ENDROOT
BRANCH   3   5
ATOM      5  C   LIG    1       -3.742   5.876   1.025  0.00  0.00    +0.290 C 
ATOM      6  C   LIG    1       -3.582   7.347   0.646  0.00  0.00    +0.020 C 
ATOM      7  C   LIG    1       -4.827   8.106   1.121  0.00  0.00    +0.030 C 
ATOM      8  C   LIG    1       -4.802   8.165   2.647  0.00  0.00    +0.080 C 
ATOM      9  C   LIG    1       -4.590   6.790   3.226  0.00  0.00    -0.070 A 
ATOM     10  C   LIG    1       -4.905   6.597   4.564  0.00  0.00    -0.010 A 
ATOM     11  C   LIG    1       -4.729   5.362   5.155  0.00  0.00    +0.010 A 
ATOM     12  C   LIG    1       -4.233   4.309   4.410  0.00  0.00    -0.010 A 
ATOM     13  C   LIG    1       -3.920   4.499   3.079  0.00  0.00    +0.020 A 
ATOM     14  C   LIG    1       -4.099   5.740   2.482  0.00  0.00    -0.100 A 
ENDBRANCH   3   5
BRANCH   2  15
ATOM     15  C   LIG    1       -1.224   3.135   0.277  0.00  0.00    -0.130 A 
ATOM     16  C   LIG    1       -0.015   3.835   0.273  0.00  0.00    +0.070 A 
ATOM     17  C   LIG    1        1.166   3.166   0.032  0.00  0.00    +0.000 A 
ATOM     18  C   LIG    1        1.162   1.801  -0.208  0.00  0.00    +0.060 A 
ATOM     19  C   LIG    1       -0.024   1.096  -0.209  0.00  0.00    -0.020 A 
ATOM     20  C   LIG    1       -1.226   1.753   0.027  0.00  0.00    -0.050 A 
BRANCH  20  21
ATOM     21  S   LIG    1       -2.742   0.856   0.019  0.00  0.00    +0.040 S 
BRANCH  21  22
ATOM     22  C   LIG    1       -2.197  -0.866  -0.147  0.00  0.00    -0.030 C 
ATOM     23  C   LIG    1       -1.519  -1.322   1.156  0.00  0.00    +0.080 C 
ATOM     24  C   LIG    1       -1.384  -2.864   1.070  0.00  0.00    -0.310 C 
ATOM     25  S   LIG    1       -3.004  -3.369   0.378  0.00  0.00    +2.390 S 
ATOM     26  O   LIG    1       -2.802  -4.354  -0.626  0.00  0.00    -0.930 OA
ATOM     27  O   LIG    1       -3.914  -3.615   1.441  0.00  0.00    -0.930 OA
ATOM     28  C   LIG    1       -3.416  -1.772  -0.414  0.00  0.00    -0.270 C 
ENDBRANCH  21  22
ENDBRANCH  20  21
ENDBRANCH   2  15
TORSDOF 4
