REMARK  Name = ZINCrD000000Al93.0
REMARK                            x       y       z     vdW  Elec       q    Type
REMARK                         _______ _______ _______ _____ _____    ______ ____
ROOT
ATOM      1  N   LIG    1        5.453  -1.110   1.659  0.00  0.00    -0.470 N 
ATOM      2  C   LIG    1        6.851  -0.630   1.576  0.00  0.00    +0.240 C 
ATOM      3  C   LIG    1        7.237  -0.472   3.058  0.00  0.00    -0.050 C 
ATOM      4  C   LIG    1        6.317  -1.435   3.768  0.00  0.00    -0.120 A 
ATOM      5  C   LIG    1        6.345  -1.972   5.037  0.00  0.00    +0.040 A 
ATOM      6  C   LIG    1        5.359  -2.855   5.440  0.00  0.00    +0.000 A 
ATOM      7  C   LIG    1        4.344  -3.201   4.567  0.00  0.00    +0.030 A 
ATOM      8  C   LIG    1        4.309  -2.665   3.296  0.00  0.00    +0.010 A 
ATOM      9  C   LIG    1        6.987   0.959   3.521  0.00  0.00    +0.010 C 
ATOM     10  C   LIG    1        7.960   1.899   2.802  0.00  0.00    +0.210 C 
ATOM     11  O   LIG    1        9.301   1.471   3.049  0.00  0.00    -0.380 OA
ATOM     12  C   LIG    1        9.597   0.159   2.563  0.00  0.00    +0.210 C 
ATOM     13  C   LIG    1        8.696  -0.859   3.271  0.00  0.00    +0.020 C 
ATOM     14  C   LIG    1        5.296  -1.772   2.884  0.00  0.00    +0.090 A 
ENDROOT
BRANCH   1  15
ATOM     15  C   LIG    1        4.506   0.006   1.539  0.00  0.00    +0.230 C 
BRANCH  15  17
ATOM     16  O   LIG    1        5.010  -0.183  -0.759  0.00  0.00    -0.510 OA
ATOM     17  C   LIG    1        4.422   0.441   0.099  0.00  0.00    +0.520 C 
ATOM     18  N   LIG    1        3.694   1.524  -0.237  0.00  0.00    -0.610 N 
ATOM     19  C   LIG    1        2.976   2.292   0.790  0.00  0.00    +0.270 C 
ATOM     20  C   LIG    1        3.383   3.764   0.679  0.00  0.00    +0.030 C 
ATOM     21  C   LIG    1        3.141   4.250  -0.751  0.00  0.00    +0.040 C 
ATOM     22  C   LIG    1        4.003   3.437  -1.721  0.00  0.00    -0.030 C 
ATOM     23  C   LIG    1        3.603   1.961  -1.637  0.00  0.00    +0.310 C 
BRANCH  22  24
ATOM     24  C   LIG    1        3.785   3.946  -3.147  0.00  0.00    +0.460 C 
ATOM     25  F   LIG    1        2.437   3.806  -3.492  0.00  0.00    -0.180 F 
ATOM     26  F   LIG    1        4.572   3.202  -4.033  0.00  0.00    -0.180 F 
ATOM     27  F   LIG    1        4.147   5.295  -3.221  0.00  0.00    -0.180 F 
ENDBRANCH  22  24
ENDBRANCH  15  17
ENDBRANCH   1  15
TORSDOF 3
