REMARK  Name = ZINCpk00001AZiCZ.0
REMARK                            x       y       z     vdW  Elec       q    Type
REMARK                         _______ _______ _______ _____ _____    ______ ____
ROOT
ATOM      1  C   LIG    1       -1.524   6.952  -4.486  0.00  0.00    +0.360 C 
ATOM      2  C   LIG    1       -1.482   5.853  -5.550  0.00  0.00    +0.050 C 
ENDROOT
BRANCH   1   3
ATOM      3  C   LIG    1       -0.691   6.535  -3.301  0.00  0.00    +0.160 A 
ATOM      4  N   LIG    1        0.607   6.526  -3.238  0.00  0.00    -0.370 NA
ATOM      5  O   LIG    1        0.972   6.139  -2.148  0.00  0.00    +0.090 OA
ATOM      6  C   LIG    1       -0.091   5.856  -1.389  0.00  0.00    +0.200 A 
ATOM      7  N   LIG    1       -1.155   6.101  -2.115  0.00  0.00    -0.470 NA
BRANCH   6   8
ATOM      8  C   LIG    1       -0.070   5.347   0.030  0.00  0.00    +0.250 C 
BRANCH   8   9
ATOM      9  C   LIG    1       -0.050   3.840   0.022  0.00  0.00    -0.100 A 
ATOM     10  C   LIG    1        1.156   3.165   0.008  0.00  0.00    +0.030 A 
ATOM     11  C   LIG    1        1.175   1.783   0.000  0.00  0.00    +0.010 A 
ATOM     12  C   LIG    1       -0.013   1.076   0.008  0.00  0.00    +0.010 A 
ATOM     13  C   LIG    1       -1.219   1.751   0.017  0.00  0.00    +0.010 A 
ATOM     14  C   LIG    1       -1.238   3.133   0.030  0.00  0.00    +0.030 A 
ENDBRANCH   8   9
ENDBRANCH   6   8
ENDBRANCH   1   3
BRANCH   1  16
ATOM     15  C   LIG    1       -1.794   9.020  -5.745  0.00  0.00    +0.530 C 
ATOM     16  N   LIG    1       -0.989   8.195  -5.046  0.00  0.00    -0.720 N 
ATOM     17  H   LIG    1       -0.056   8.424  -4.914  0.00  0.00    +0.410 HD
ATOM     18  O   LIG    1       -2.960   8.734  -5.910  0.00  0.00    -0.520 OA
BRANCH  15  22
ATOM     19  C   LIG    1       -1.588  13.630  -6.664  0.00  0.00    +0.570 C 
ATOM     20  N   LIG    1       -1.667  12.313  -6.388  0.00  0.00    -0.640 N 
ATOM     21  C   LIG    1       -2.296  11.154  -7.050  0.00  0.00    +0.320 C 
ATOM     22  C   LIG    1       -1.243  10.299  -6.321  0.00  0.00    -0.020 C 
ATOM     23  C   LIG    1       -1.155  11.451  -5.303  0.00  0.00    +0.300 C 
ATOM     24  O   LIG    1       -2.122  14.076  -7.662  0.00  0.00    -0.540 OA
BRANCH  19  26
ATOM     25  C   LIG    1       -0.779  15.829  -6.029  0.00  0.00    +0.150 C 
ATOM     26  C   LIG    1       -0.857  14.529  -5.758  0.00  0.00    -0.080 C 
ENDBRANCH  19  26
ENDBRANCH  15  22
ENDBRANCH   1  16
TORSDOF 6
