REMARK  Name = ZINCrH000004tKjc.0
REMARK                            x       y       z     vdW  Elec       q    Type
REMARK                         _______ _______ _______ _____ _____    ______ ____
ROOT
ATOM      1  C   LIG    1       -0.108   6.262   0.035  0.00  0.00    +0.450 A 
ATOM      2  N   LIG    1        1.177   6.063   0.021  0.00  0.00    -0.590 NA
ATOM      3  C   LIG    1        1.735   4.832   0.010  0.00  0.00    +0.560 A 
ATOM      4  C   LIG    1        0.783   3.700   0.014  0.00  0.00    -0.230 A 
ATOM      5  C   LIG    1       -0.580   3.975   0.029  0.00  0.00    +0.050 A 
ATOM      6  S   LIG    1       -1.484   2.484   0.037  0.00  0.00    +0.170 S 
ATOM      7  C   LIG    1       -0.018   1.513   0.010  0.00  0.00    -0.200 A 
ATOM      8  C   LIG    1        0.002  -0.004   0.002  0.00  0.00    +0.120 C 
ATOM      9  C   LIG    1        1.392  -0.478  -0.429  0.00  0.00    +0.030 C 
ATOM     10  C   LIG    1        2.446   0.252   0.409  0.00  0.00    +0.020 C 
ATOM     11  C   LIG    1        2.491   1.721  -0.014  0.00  0.00    +0.110 C 
ATOM     12  C   LIG    1        1.076   2.285   0.004  0.00  0.00    -0.030 A 
ATOM     13  O   LIG    1        2.944   4.666  -0.002  0.00  0.00    -0.480 OA
ATOM     14  N   LIG    1       -1.034   5.278   0.040  0.00  0.00    -0.590 N 
ATOM     15  H   LIG    1       -1.983   5.479   0.051  0.00  0.00    +0.430 HD
ENDROOT
BRANCH   1  16
ATOM     16  C   LIG    1       -0.599   7.687   0.045  0.00  0.00    +0.150 C 
BRANCH  16  17
ATOM     17  C   LIG    1        0.599   8.638   0.037  0.00  0.00    +0.100 C 
BRANCH  17  19
ATOM     18  O   LIG    1       -1.081  10.295   0.060  0.00  0.00    -0.540 OA
ATOM     19  C   LIG    1        0.109  10.063   0.047  0.00  0.00    +0.510 C 
ATOM     20  N   LIG    1        0.993  11.080   0.042  0.00  0.00    -0.730 N 
ATOM     21  H   LIG    1        1.945  10.895   0.031  0.00  0.00    +0.410 HD
BRANCH  20  22
ATOM     22  C   LIG    1        0.517  12.466   0.052  0.00  0.00    +0.320 C 
BRANCH  22  23
ATOM     23  C   LIG    1        1.697  13.403   0.044  0.00  0.00    -0.110 A 
ATOM     24  C   LIG    1        2.247  13.833   1.237  0.00  0.00    +0.040 A 
ATOM     25  C   LIG    1        3.332  14.688   1.230  0.00  0.00    +0.030 A 
ATOM     26  C   LIG    1        3.861  15.124   0.028  0.00  0.00    -0.030 A 
ATOM     27  C   LIG    1        3.307  14.698  -1.166  0.00  0.00    +0.030 A 
ATOM     28 CL   LIG    1        5.219  16.205   0.018  0.00  0.00    -0.060 Cl
ATOM     29  C   LIG    1        2.225  13.837  -1.158  0.00  0.00    +0.040 A 
ENDBRANCH  22  23
ENDBRANCH  20  22
ENDBRANCH  17  19
ENDBRANCH  16  17
ENDBRANCH   1  16
TORSDOF 5
