REMARK  Name = ZINCrH000004m0UK.0
REMARK                            x       y       z     vdW  Elec       q    Type
REMARK                         _______ _______ _______ _____ _____    ______ ____
ROOT
ATOM      1  N   LIG    1        5.427  10.037  -1.813  0.00  0.00    -0.670 N 
ATOM      2  H   LIG    1        4.677  10.645  -1.719  0.00  0.00    +0.410 HD
ATOM      3  C   LIG    1        5.271   8.726  -1.541  0.00  0.00    +0.510 C 
ATOM      4  O   LIG    1        6.225   7.979  -1.588  0.00  0.00    -0.520 OA
ENDROOT
BRANCH   1   8
ATOM      5  C   LIG    1        9.137  11.487  -3.057  0.00  0.00    +0.090 A 
ATOM      6  C   LIG    1        7.972  12.090  -3.501  0.00  0.00    -0.020 A 
ATOM      7  C   LIG    1        6.743  11.610  -3.089  0.00  0.00    -0.110 A 
ATOM      8  C   LIG    1        6.674  10.523  -2.229  0.00  0.00    +0.140 A 
ATOM      9  C   LIG    1        7.840   9.919  -1.778  0.00  0.00    -0.020 A 
ATOM     10  C   LIG    1        5.476  12.268  -3.574  0.00  0.00    +0.090 C 
ATOM     11  C   LIG    1        9.071  10.397  -2.195  0.00  0.00    +0.110 A 
BRANCH   5  13
ATOM     12  C   LIG    1       10.339  13.084  -4.347  0.00  0.00    +0.230 C 
ATOM     13  O   LIG    1       10.346  11.962  -3.463  0.00  0.00    -0.310 OA
ENDBRANCH   5  13
BRANCH  11  14
ATOM     14  O   LIG    1       10.214   9.804  -1.758  0.00  0.00    -0.300 OA
ATOM     15  C   LIG    1       10.071   8.690  -0.875  0.00  0.00    +0.240 C 
ENDBRANCH  11  14
ENDBRANCH   1   8
BRANCH   3  16
ATOM     16  C   LIG    1        3.910   8.189  -1.180  0.00  0.00    +0.070 C 
BRANCH  16  17
ATOM     17  C   LIG    1        4.009   6.684  -0.922  0.00  0.00    +0.040 C 
BRANCH  17  18
ATOM     18  C   LIG    1        2.627   6.138  -0.554  0.00  0.00    +0.260 C 
BRANCH  18  19
ATOM     19  N   LIG    1        2.721   4.697  -0.307  0.00  0.00    -0.730 N 
ATOM     20  H   LIG    1        3.576   4.246  -0.390  0.00  0.00    +0.410 HD
BRANCH  19  21
ATOM     21  C   LIG    1        1.580   3.973   0.046  0.00  0.00    +0.280 A 
ATOM     22  C   LIG    1        0.332   4.582   0.015  0.00  0.00    -0.060 A 
ATOM     23  C   LIG    1       -0.794   3.863   0.366  0.00  0.00    +0.120 A 
ATOM     24  C   LIG    1       -0.680   2.538   0.742  0.00  0.00    -0.030 A 
ATOM     25  C   LIG    1        0.561   1.930   0.779  0.00  0.00    +0.130 A 
ATOM     26  C   LIG    1        1.691   2.642   0.430  0.00  0.00    -0.120 A 
BRANCH  26  27
ATOM     27  N   LIG    1        3.019   1.989   0.463  0.00  0.00    +0.040 N 
ATOM     28  O   LIG    1        3.993   2.609   0.853  0.00  0.00    -0.180 OA
ATOM     29  O   LIG    1        3.138   0.832   0.102  0.00  0.00    -0.150 OA
ENDBRANCH  26  27
ENDBRANCH  19  21
ENDBRANCH  18  19
ENDBRANCH  17  18
ENDBRANCH  16  17
ENDBRANCH   3  16
TORSDOF 9
