REMARK  Name = ZINCrH000004k5UB.0
REMARK                            x       y       z     vdW  Elec       q    Type
REMARK                         _______ _______ _______ _____ _____    ______ ____
ROOT
ATOM      1  C   LIG    1       -0.893   6.090   0.142  0.00  0.00    +0.220 C 
ATOM      2  N   LIG    1       -0.328   5.127   1.096  0.00  0.00    -0.490 N 
ATOM      3  C   LIG    1       -1.047   5.166   2.369  0.00  0.00    +0.230 C 
ATOM      4  C   LIG    1       -2.537   5.402   2.158  0.00  0.00    -0.020 C 
ATOM      5  C   LIG    1       -3.239   4.227   1.515  0.00  0.00    +0.290 C 
ATOM      6  N   LIG    1       -2.699   3.993   0.165  0.00  0.00    -0.570 N 
ATOM      7  C   LIG    1       -1.499   3.275   0.059  0.00  0.00    +0.120 A 
ATOM      8  C   LIG    1       -1.483   2.018  -0.523  0.00  0.00    +0.040 A 
ATOM      9  C   LIG    1       -0.300   1.301  -0.577  0.00  0.00    -0.030 A 
ATOM     10  C   LIG    1        0.867   1.841  -0.066  0.00  0.00    +0.040 A 
ATOM     11  C   LIG    1        0.860   3.105   0.497  0.00  0.00    +0.080 A 
ATOM     12 CL   LIG    1       -0.279  -0.280  -1.295  0.00  0.00    -0.060 Cl
ATOM     13  C   LIG    1       -3.335   4.454  -0.930  0.00  0.00    +0.520 C 
ATOM     14  O   LIG    1       -2.824   4.335  -2.023  0.00  0.00    -0.500 OA
ATOM     15  C   LIG    1       -0.322   3.824   0.556  0.00  0.00    +0.090 A 
ENDROOT
BRANCH  13  16
ATOM     16  C   LIG    1       -4.681   5.117  -0.796  0.00  0.00    +0.060 C 
ATOM     17  C   LIG    1       -4.493   6.627  -0.645  0.00  0.00    +0.100 C 
ATOM     18  C   LIG    1       -4.046   7.221  -1.953  0.00  0.00    +0.530 C 
ATOM     19  N   LIG    1       -4.500   6.733  -3.122  0.00  0.00    -0.650 N 
ATOM     20  H   LIG    1       -4.212   7.135  -3.957  0.00  0.00    +0.420 HD
ATOM     21  C   LIG    1       -5.385   5.651  -3.142  0.00  0.00    +0.220 A 
ATOM     22  C   LIG    1       -6.143   5.391  -4.275  0.00  0.00    -0.040 A 
ATOM     23  C   LIG    1       -7.017   4.318  -4.288  0.00  0.00    +0.140 A 
ATOM     24  C   LIG    1       -7.135   3.507  -3.172  0.00  0.00    -0.040 A 
ATOM     25  C   LIG    1       -6.380   3.765  -2.043  0.00  0.00    +0.100 A 
ATOM     26  F   LIG    1       -7.756   4.063  -5.390  0.00  0.00    -0.130 F 
ATOM     27  O   LIG    1       -3.267   8.151  -1.954  0.00  0.00    -0.510 OA
ATOM     28  C   LIG    1       -5.505   4.833  -2.025  0.00  0.00    -0.130 A 
ENDBRANCH  13  16
TORSDOF 1
