REMARK  Name = ZINCrH000004qBLe.0
REMARK                            x       y       z     vdW  Elec       q    Type
REMARK                         _______ _______ _______ _____ _____    ______ ____
ROOT
ATOM      1  C   LIG    1        2.510   1.648   0.129  0.00  0.00    -0.030 C 
ATOM      2  C   LIG    1        2.881   0.815   1.360  0.00  0.00    +0.030 C 
ATOM      3  C   LIG    1        2.667   1.656   2.620  0.00  0.00    +0.230 C 
ATOM      4  O   LIG    1        3.451   2.848   2.535  0.00  0.00    -0.380 OA
ATOM      5  C   LIG    1        3.116   3.690   1.431  0.00  0.00    +0.210 C 
ATOM      6  C   LIG    1        3.349   2.930   0.122  0.00  0.00    +0.030 C 
ENDROOT
BRANCH   1   7
ATOM      7  C   LIG    1        2.790   0.856  -1.122  0.00  0.00    -0.080 A 
ATOM      8  C   LIG    1        3.782   1.266  -1.992  0.00  0.00    +0.050 A 
ATOM      9  C   LIG    1        4.039   0.539  -3.140  0.00  0.00    +0.030 A 
ATOM     10  C   LIG    1        3.304  -0.599  -3.416  0.00  0.00    +0.070 A 
ATOM     11  C   LIG    1        2.311  -1.009  -2.545  0.00  0.00    -0.170 A 
ATOM     12  C   LIG    1        2.058  -0.285  -1.395  0.00  0.00    +0.070 A 
BRANCH  11  13
ATOM     13  C   LIG    1        1.510  -2.249  -2.847  0.00  0.00    +0.510 C 
ATOM     14  F   LIG    1        0.156  -1.914  -2.955  0.00  0.00    -0.170 F 
ATOM     15  F   LIG    1        1.679  -3.177  -1.814  0.00  0.00    -0.180 F 
ATOM     16  F   LIG    1        1.950  -2.807  -4.052  0.00  0.00    -0.180 F 
ENDBRANCH  11  13
ENDBRANCH   1   7
BRANCH   1  18
ATOM     17  N   LIG    1        0.459   2.601  -0.871  0.00  0.00    -0.600 N 
ATOM     18  C   LIG    1        1.047   2.004   0.184  0.00  0.00    +0.530 C 
ATOM     19  O   LIG    1        0.398   1.753   1.178  0.00  0.00    -0.520 OA
ATOM     20  C   LIG    1        1.207   2.792  -2.116  0.00  0.00    +0.290 C 
BRANCH  17  21
ATOM     21  C   LIG    1       -0.928   3.065  -0.772  0.00  0.00    +0.410 C 
BRANCH  21  25
ATOM     22  C   LIG    1       -4.109  -0.907  -0.877  0.00  0.00    +0.180 C 
ATOM     23  C   LIG    1       -3.221   0.258  -1.230  0.00  0.00    -0.030 A 
ATOM     24  C   LIG    1       -2.509   1.024  -0.370  0.00  0.00    -0.050 A 
ATOM     25  C   LIG    1       -1.858   1.962  -1.206  0.00  0.00    -0.000 A 
ATOM     26  N   LIG    1       -2.228   1.687  -2.423  0.00  0.00    -0.350 NA
ATOM     27  O   LIG    1       -2.979   0.740  -2.457  0.00  0.00    +0.100 OA
ENDBRANCH  21  25
ENDBRANCH  17  21
ENDBRANCH   1  18
TORSDOF 5
