REMARK  Name = ZINCrD000000fEVG.0
REMARK                            x       y       z     vdW  Elec       q    Type
REMARK                         _______ _______ _______ _____ _____    ______ ____
ROOT
ATOM      1  C   LIG    1        8.303   1.265  -1.025  0.00  0.00    +0.560 C 
ATOM      2  N   LIG    1        7.630   0.598  -0.066  0.00  0.00    -0.670 N 
ATOM      3  H   LIG    1        8.116   0.111   0.618  0.00  0.00    +0.410 HD
ATOM      4  O   LIG    1        7.699   1.954  -1.824  0.00  0.00    -0.510 OA
ENDROOT
BRANCH   1   8
ATOM      5  C   LIG    1       12.533   0.959  -1.255  0.00  0.00    -0.080 A 
ATOM      6  C   LIG    1       11.849   1.744  -2.166  0.00  0.00    +0.030 A 
ATOM      7  C   LIG    1       10.475   1.848  -2.097  0.00  0.00    +0.090 A 
ATOM      8  C   LIG    1        9.775   1.159  -1.105  0.00  0.00    -0.130 A 
ATOM      9  C   LIG    1       10.472   0.373  -0.185  0.00  0.00    +0.040 A 
ATOM     10  C   LIG    1       11.846   0.273  -0.269  0.00  0.00    +0.020 A 
BRANCH   5  11
ATOM     11  C   LIG    1       14.034   0.850  -1.336  0.00  0.00    +0.310 C 
BRANCH  11  14
ATOM     12  C   LIG    1       16.615   3.082   0.400  0.00  0.00    +0.110 C 
ATOM     13  C   LIG    1       15.987   2.000  -0.440  0.00  0.00    +0.510 C 
ATOM     14  N   LIG    1       14.645   1.902  -0.519  0.00  0.00    -0.730 N 
ATOM     15  H   LIG    1       14.084   2.527  -0.035  0.00  0.00    +0.400 HD
ATOM     16  O   LIG    1       16.689   1.218  -1.046  0.00  0.00    -0.540 OA
ENDBRANCH  11  14
ENDBRANCH   5  11
ENDBRANCH   1   8
BRANCH   2  17
ATOM     17  C   LIG    1        6.231   0.609  -0.057  0.00  0.00    +0.150 A 
ATOM     18  C   LIG    1        5.529   0.652  -1.254  0.00  0.00    +0.050 A 
ATOM     19  C   LIG    1        4.149   0.662  -1.245  0.00  0.00    +0.050 A 
ATOM     20  C   LIG    1        3.462   0.630  -0.038  0.00  0.00    +0.100 A 
ATOM     21  C   LIG    1        4.164   0.592   1.159  0.00  0.00    +0.050 A 
ATOM     22  C   LIG    1        5.544   0.577   1.150  0.00  0.00    +0.010 A 
BRANCH  20  23
ATOM     23  N   LIG    1        2.059   0.640  -0.029  0.00  0.00    -0.410 N 
ATOM     24  C   LIG    1        1.254   1.504  -0.699  0.00  0.00    +0.400 A 
ATOM     25  N   LIG    1        0.011   1.198  -0.443  0.00  0.00    -0.480 NA
ATOM     26  C   LIG    1       -0.025   0.145   0.386  0.00  0.00    +0.000 A 
ATOM     27  C   LIG    1       -1.269  -0.513   0.926  0.00  0.00    +0.140 C 
ATOM     28  C   LIG    1        1.242  -0.220   0.658  0.00  0.00    -0.020 A 
ATOM     29  C   LIG    1        1.679  -1.356   1.547  0.00  0.00    +0.140 C 
ENDBRANCH  20  23
ENDBRANCH   2  17
TORSDOF 5
