REMARK  Name = ZINCkj000005iEvi.0
REMARK                            x       y       z     vdW  Elec       q    Type
REMARK                         _______ _______ _______ _____ _____    ______ ____
ROOT
ATOM      1  C   LIG    1        1.673  -2.406   2.369  0.00  0.00    +0.110 A 
ATOM      2  C   LIG    1        0.814  -1.852   1.439  0.00  0.00    -0.030 A 
ATOM      3  C   LIG    1        0.971  -0.533   1.026  0.00  0.00    -0.060 A 
ATOM      4  C   LIG    1        1.989   0.229   1.556  0.00  0.00    -0.110 A 
ATOM      5  C   LIG    1        2.205   1.669   1.165  0.00  0.00    +0.340 C 
ATOM      6  N   LIG    1        1.376   1.995  -0.000  0.00  0.00    -0.610 N 
ATOM      7  C   LIG    1       -0.019   1.524   0.010  0.00  0.00    +0.290 C 
ATOM      8  C   LIG    1        1.871   2.697  -1.039  0.00  0.00    +0.520 C 
ATOM      9  O   LIG    1        1.164   2.953  -1.990  0.00  0.00    -0.540 OA
ATOM     10  C   LIG    1        2.857  -0.325   2.488  0.00  0.00    -0.030 A 
ATOM     11  C   LIG    1        0.002  -0.004   0.002  0.00  0.00    +0.080 C 
ATOM     12  C   LIG    1        2.705  -1.637   2.897  0.00  0.00    +0.110 A 
ENDROOT
BRANCH   1  14
ATOM     13  C   LIG    1        0.428  -4.423   2.180  0.00  0.00    +0.250 C 
ATOM     14  O   LIG    1        1.509  -3.696   2.766  0.00  0.00    -0.300 OA
ENDBRANCH   1  14
BRANCH  12  15
ATOM     15  O   LIG    1        3.560  -2.172   3.810  0.00  0.00    -0.300 OA
ATOM     16  C   LIG    1        4.595  -1.321   4.307  0.00  0.00    +0.240 C 
ENDBRANCH  12  15
BRANCH   8  17
ATOM     17  C   LIG    1        3.304   3.165  -1.018  0.00  0.00    +0.080 C 
BRANCH  17  18
ATOM     18  C   LIG    1        3.608   3.932  -2.306  0.00  0.00    +0.060 C 
BRANCH  18  19
ATOM     19  C   LIG    1        5.063   4.407  -2.285  0.00  0.00    +0.260 C 
BRANCH  19  20
ATOM     20  N   LIG    1        5.355   5.144  -3.521  0.00  0.00    -0.640 N 
ATOM     21  H   LIG    1        4.742   5.942  -3.590  0.00  0.00    +0.440 HD
ATOM     22  H   LIG    1        5.211   4.539  -4.316  0.00  0.00    +0.440 HD
ATOM     23  H   LIG    1        6.314   5.457  -3.507  0.00  0.00    +0.440 HD
ENDBRANCH  19  20
ENDBRANCH  18  19
ENDBRANCH  17  18
ENDBRANCH   8  17
TORSDOF 6
