REMARK  Name = ZINCpk00000y6uor.0
REMARK                            x       y       z     vdW  Elec       q    Type
REMARK                         _______ _______ _______ _____ _____    ______ ____
ROOT
ATOM      1  C   LIG    1        4.176  -0.836  -4.363  0.00  0.00    +0.570 C 
ATOM      2  N   LIG    1        3.868   0.367  -3.839  0.00  0.00    -0.600 N 
ATOM      3  C   LIG    1        4.117   1.587  -4.611  0.00  0.00    +0.300 C 
ATOM      4  O   LIG    1        4.045  -1.842  -3.694  0.00  0.00    -0.510 OA
ENDROOT
BRANCH   1   7
ATOM      5  C   LIG    1        6.138  -0.271  -7.519  0.00  0.00    +0.060 A 
ATOM      6  C   LIG    1        5.727  -0.124  -6.205  0.00  0.00    +0.080 A 
ATOM      7  C   LIG    1        4.675  -0.932  -5.755  0.00  0.00    -0.120 A 
ATOM      8  C   LIG    1        4.116  -1.837  -6.662  0.00  0.00    +0.110 A 
ATOM      9  N   LIG    1        4.580  -1.894  -7.895  0.00  0.00    -0.230 NA
ATOM     10  C   LIG    1        2.986  -2.737  -6.234  0.00  0.00    +0.150 C 
ATOM     11  N   LIG    1        5.543  -1.151  -8.301  0.00  0.00    -0.220 NA
BRANCH   5  13
ATOM     12  C   LIG    1        8.351  -0.336  -8.638  0.00  0.00    +0.040 C 
ATOM     13  C   LIG    1        7.266   0.573  -8.055  0.00  0.00    +0.100 C 
ENDBRANCH   5  13
ENDBRANCH   1   7
BRANCH   2  14
ATOM     14  C   LIG    1        3.286   0.454  -2.498  0.00  0.00    +0.320 C 
BRANCH  14  15
ATOM     15  C   LIG    1        4.405   0.575  -1.462  0.00  0.00    +0.160 C 
ATOM     16  O   LIG    1        5.052   1.867  -1.564  0.00  0.00    -0.370 OA
ATOM     17  C   LIG    1        5.703   2.068  -0.290  0.00  0.00    +0.210 C 
ATOM     18  C   LIG    1        4.694   1.546   0.756  0.00  0.00    +0.020 C 
ATOM     19  C   LIG    1        3.821   0.543  -0.032  0.00  0.00    +0.100 C 
BRANCH  19  20
ATOM     20  C   LIG    1        2.381   0.988  -0.040  0.00  0.00    +0.180 A 
ATOM     21  N   LIG    1        1.332   0.213  -0.066  0.00  0.00    -0.280 NA
ATOM     22  N   LIG    1        0.264   0.929  -0.065  0.00  0.00    -0.290 NA
ATOM     23  C   LIG    1        0.584   2.194  -0.038  0.00  0.00    +0.180 A 
ATOM     24  C   LIG    1       -0.374   3.358  -0.032  0.00  0.00    +0.200 C 
ATOM     25  N   LIG    1        1.936   2.268  -0.021  0.00  0.00    -0.580 N 
ATOM     26  H   LIG    1        2.477   3.073  -0.001  0.00  0.00    +0.430 HD
ENDBRANCH  19  20
ENDBRANCH  14  15
ENDBRANCH   2  14
TORSDOF 5
