REMARK  Name = ZINCrD000000fmWG.0
REMARK                            x       y       z     vdW  Elec       q    Type
REMARK                         _______ _______ _______ _____ _____    ______ ____
ROOT
ATOM      1  N   LIG    1       -0.970   1.508   8.298  0.00  0.00    -0.610 N 
ATOM      2  C   LIG    1       -0.331   1.190   7.155  0.00  0.00    +0.710 C 
ATOM      3  N   LIG    1       -0.801   1.635   5.973  0.00  0.00    -0.680 N 
ATOM      4  H   LIG    1       -1.554   2.247   5.950  0.00  0.00    +0.410 HD
ATOM      5  O   LIG    1        0.671   0.501   7.190  0.00  0.00    -0.560 OA
ENDROOT
BRANCH   3   6
ATOM      6  C   LIG    1       -0.204   1.216   4.779  0.00  0.00    +0.210 A 
ATOM      7  C   LIG    1       -0.146   2.076   3.691  0.00  0.00    -0.050 A 
ATOM      8  C   LIG    1        0.443   1.662   2.512  0.00  0.00    +0.070 A 
ATOM      9  C   LIG    1        0.980   0.393   2.414  0.00  0.00    -0.100 A 
ATOM     10  C   LIG    1        0.919  -0.474   3.496  0.00  0.00    +0.150 A 
ATOM     11  C   LIG    1        0.329  -0.062   4.681  0.00  0.00    +0.000 A 
BRANCH  10  12
ATOM     12  O   LIG    1        1.443  -1.724   3.397  0.00  0.00    -0.290 OA
BRANCH  12  13
ATOM     13  C   LIG    1        2.035  -2.082   2.147  0.00  0.00    +0.220 C 
BRANCH  13  14
ATOM     14  C   LIG    1        2.558  -3.493   2.223  0.00  0.00    +0.510 C 
ATOM     15  N   LIG    1        3.162  -4.048   1.154  0.00  0.00    -0.620 N 
ATOM     16  C   LIG    1        3.310  -3.278  -0.084  0.00  0.00    +0.290 C 
ATOM     17  C   LIG    1        3.669  -5.420   1.228  0.00  0.00    +0.300 C 
ATOM     18  O   LIG    1        2.435  -4.130   3.248  0.00  0.00    -0.510 OA
ENDBRANCH  13  14
ENDBRANCH  12  13
ENDBRANCH  10  12
ENDBRANCH   3   6
BRANCH   1  19
ATOM     19  C   LIG    1       -2.177   2.337   8.256  0.00  0.00    +0.300 C 
BRANCH  19  21
ATOM     20  C   LIG    1       -4.367   1.544   8.987  0.00  0.00    +0.040 C 
ATOM     21  C   LIG    1       -3.389   1.453   8.120  0.00  0.00    -0.080 C 
ENDBRANCH  19  21
ENDBRANCH   1  19
BRANCH   1  22
ATOM     22  C   LIG    1       -0.458   1.024   9.582  0.00  0.00    +0.360 C 
BRANCH  22  23
ATOM     23  C   LIG    1        0.516   2.026  10.145  0.00  0.00    -0.110 A 
ATOM     24  C   LIG    1        1.861   1.928   9.841  0.00  0.00    +0.040 A 
ATOM     25  C   LIG    1        2.755   2.850  10.353  0.00  0.00    +0.000 A 
ATOM     26  C   LIG    1        2.304   3.865  11.177  0.00  0.00    +0.010 A 
ATOM     27  C   LIG    1        0.960   3.960  11.486  0.00  0.00    -0.010 A 
ATOM     28  C   LIG    1        0.066   3.040  10.969  0.00  0.00    +0.010 A 
ENDBRANCH  22  23
ENDBRANCH   1  22
TORSDOF 8
