REMARK  Name = ZINCvU0000000DbM.0
REMARK                            x       y       z     vdW  Elec       q    Type
REMARK                         _______ _______ _______ _____ _____    ______ ____
ROOT
ATOM      1  N   LIG    1       -1.537   4.331   7.722  0.00  0.00    -0.500 N 
ATOM      2  C   LIG    1       -2.552   4.057   6.878  0.00  0.00    +0.570 C 
ATOM      3  C   LIG    1       -2.047   3.343   5.693  0.00  0.00    +0.100 A 
ATOM      4  C   LIG    1       -0.696   3.190   5.829  0.00  0.00    -0.240 A 
ATOM      5  C   LIG    1        0.096   2.518   4.794  0.00  0.00    +0.460 A 
ATOM      6  C   LIG    1       -0.661   2.253   3.544  0.00  0.00    -0.200 A 
ATOM      7  C   LIG    1       -0.001   1.804   2.401  0.00  0.00    +0.120 A 
ATOM      8  C   LIG    1       -0.718   1.572   1.248  0.00  0.00    -0.100 A 
ATOM      9  C   LIG    1       -2.088   1.790   1.225  0.00  0.00    +0.100 A 
ATOM     10  C   LIG    1       -2.752   2.225   2.350  0.00  0.00    +0.020 A 
ATOM     11  C   LIG    1       -0.013   1.086   0.008  0.00  0.00    +0.100 C 
ATOM     12  C   LIG    1       -2.050   2.464   3.531  0.00  0.00    +0.130 A 
ATOM     13  O   LIG    1        1.264   2.205   4.945  0.00  0.00    -0.420 OA
ATOM     14  O   LIG    1       -2.727   2.886   4.623  0.00  0.00    -0.180 OA
ATOM     15  O   LIG    1       -3.715   4.355   7.067  0.00  0.00    -0.440 OA
ATOM     16  C   LIG    1       -0.296   3.807   7.129  0.00  0.00    +0.380 C 
ENDROOT
BRANCH  16  17
ATOM     17  C   LIG    1        0.313   2.766   8.032  0.00  0.00    -0.080 A 
ATOM     18  C   LIG    1       -0.503   1.908   8.745  0.00  0.00    +0.040 A 
ATOM     19  C   LIG    1        0.055   0.949   9.571  0.00  0.00    +0.050 A 
ATOM     20  C   LIG    1        1.429   0.855   9.691  0.00  0.00    -0.020 A 
ATOM     21  C   LIG    1        2.247   1.718   8.981  0.00  0.00    -0.030 A 
ATOM     22 CL   LIG    1        3.972   1.601   9.130  0.00  0.00    -0.040 Cl
ATOM     23 CL   LIG    1        2.130  -0.344  10.732  0.00  0.00    -0.040 Cl
ATOM     24  C   LIG    1        1.687   2.673   8.151  0.00  0.00    +0.100 A 
ENDBRANCH  16  17
BRANCH   1  28
ATOM     25  C   LIG    1       -2.182   6.191  11.032  0.00  0.00    +0.020 A 
ATOM     26  N   LIG    1       -0.946   5.870  10.823  0.00  0.00    -0.230 NA
ATOM     27  N   LIG    1       -0.666   5.259   9.757  0.00  0.00    -0.270 NA
ATOM     28  C   LIG    1       -1.644   4.992   8.939  0.00  0.00    +0.250 A 
ATOM     29  S   LIG    1       -3.127   5.630   9.651  0.00  0.00    +0.150 S 
BRANCH  25  31
ATOM     30  C   LIG    1       -2.687   8.426  11.979  0.00  0.00    +0.050 C 
ATOM     31  C   LIG    1       -2.719   6.918  12.238  0.00  0.00    +0.150 C 
ENDBRANCH  25  31
ENDBRANCH   1  28
TORSDOF 3
