REMARK  Name = ZINCrH000004rvNw.0
REMARK                            x       y       z     vdW  Elec       q    Type
REMARK                         _______ _______ _______ _____ _____    ______ ____
ROOT
ATOM      1  C   LIG    1        0.933  -0.839   0.157  0.00  0.00    +0.170 A 
ATOM      2  C   LIG    1        1.987   0.060   0.210  0.00  0.00    +0.070 A 
ATOM      3  C   LIG    1        1.737   1.409   0.379  0.00  0.00    -0.150 A 
ATOM      4  C   LIG    1        0.437   1.866   0.496  0.00  0.00    +0.100 A 
ATOM      5  C   LIG    1       -0.620   0.977   0.444  0.00  0.00    +0.040 A 
ATOM      6  C   LIG    1       -0.379  -0.378   0.275  0.00  0.00    +0.160 A 
ENDROOT
BRANCH   6   7
ATOM      7  N   LIG    1       -1.450  -1.282   0.222  0.00  0.00    -0.330 N 
ATOM      8  C   LIG    1       -2.761  -0.988   0.321  0.00  0.00    +0.500 A 
ATOM      9  N   LIG    1       -3.435  -2.105   0.224  0.00  0.00    -0.530 NA
ATOM     10  C   LIG    1       -2.596  -3.128   0.063  0.00  0.00    +0.450 A 
ATOM     11  N   LIG    1       -1.370  -2.674   0.050  0.00  0.00    -0.330 NA
ENDBRANCH   6   7
BRANCH   3  12
ATOM     12  C   LIG    1        2.884   2.384   0.438  0.00  0.00    +0.510 C 
ATOM     13  F   LIG    1        4.010   1.749   0.974  0.00  0.00    -0.170 F 
ATOM     14  F   LIG    1        2.533   3.471   1.246  0.00  0.00    -0.170 F 
ATOM     15  F   LIG    1        3.176   2.839  -0.853  0.00  0.00    -0.170 F 
ENDBRANCH   3  12
BRANCH   1  16
ATOM     16  N   LIG    1        1.183  -2.204  -0.015  0.00  0.00    -1.040 N 
ATOM     17  H   LIG    1        0.575  -2.746  -0.541  0.00  0.00    +0.440 HD
BRANCH  16  18
ATOM     18  S   LIG    1        2.517  -2.895   0.681  0.00  0.00    +2.690 S 
ATOM     19  O   LIG    1        3.634  -2.120   0.264  0.00  0.00    -0.950 OA
ATOM     20  O   LIG    1        2.412  -4.293   0.450  0.00  0.00    -0.940 OA
BRANCH  18  25
ATOM     21  C   LIG    1        2.033  -2.110   6.643  0.00  0.00    +0.100 C 
ATOM     22  C   LIG    1        2.153  -2.305   5.154  0.00  0.00    -0.020 A 
ATOM     23  C   LIG    1        3.179  -1.694   4.458  0.00  0.00    -0.010 A 
ATOM     24  C   LIG    1        3.291  -1.875   3.092  0.00  0.00    +0.140 A 
ATOM     25  C   LIG    1        2.376  -2.665   2.422  0.00  0.00    -0.690 A 
ATOM     26  C   LIG    1        1.346  -3.272   3.118  0.00  0.00    +0.030 A 
ATOM     27  C   LIG    1        0.345  -4.128   2.386  0.00  0.00    +0.110 C 
ATOM     28  C   LIG    1        1.238  -3.096   4.484  0.00  0.00    -0.020 A 
ENDBRANCH  18  25
ENDBRANCH  16  18
ENDBRANCH   1  16
TORSDOF 5
