REMARK  Name = ZINCtV000002OGzd.0
REMARK                            x       y       z     vdW  Elec       q    Type
REMARK                         _______ _______ _______ _____ _____    ______ ____
ROOT
ATOM      1  O   LIG    1        3.224   4.348   2.277  0.00  0.00    -0.500 OA
ATOM      2  C   LIG    1        3.157   3.947   1.134  0.00  0.00    +0.530 C 
ATOM      3  N   LIG    1        3.853   2.855   0.760  0.00  0.00    -0.650 N 
ATOM      4  H   LIG    1        3.842   2.567  -0.166  0.00  0.00    +0.410 HD
ENDROOT
BRANCH   2   5
ATOM      5  C   LIG    1        2.295   4.671   0.132  0.00  0.00    +0.060 C 
ATOM      6  C   LIG    1        1.780   5.973   0.750  0.00  0.00    +0.060 C 
ATOM      7  C   LIG    1        0.683   6.538  -0.163  0.00  0.00    +0.250 C 
ATOM      8  O   LIG    1       -0.415   5.625  -0.166  0.00  0.00    -0.310 OA
ATOM      9  C   LIG    1       -0.148   4.312  -0.386  0.00  0.00    +0.170 A 
ATOM     10  C   LIG    1       -1.195   3.474  -0.754  0.00  0.00    +0.010 A 
ATOM     11  C   LIG    1       -0.964   2.133  -0.986  0.00  0.00    +0.100 A 
ATOM     12  C   LIG    1        0.312   1.618  -0.844  0.00  0.00    -0.120 A 
ATOM     13  C   LIG    1        1.355   2.448  -0.481  0.00  0.00    +0.060 A 
ATOM     14 BR   LIG    1        0.629  -0.220  -1.153  0.00  0.00    -0.040 Br
ATOM     15  C   LIG    1        1.130   3.795  -0.253  0.00  0.00    -0.160 A 
ENDBRANCH   2   5
BRANCH   3  16
ATOM     16  C   LIG    1        4.593   2.134   1.713  0.00  0.00    +0.070 A 
ATOM     17  C   LIG    1        4.583   2.438   3.031  0.00  0.00    -0.010 A 
ATOM     18  S   LIG    1        5.624   1.294   3.783  0.00  0.00    +0.310 S 
ATOM     19  N   LIG    1        6.032   0.466   2.361  0.00  0.00    -0.440 NA
ATOM     20  C   LIG    1        5.393   1.045   1.377  0.00  0.00    +0.140 A 
BRANCH  20  21
ATOM     21  C   LIG    1        5.517   0.569  -0.022  0.00  0.00    -0.030 A 
ATOM     22  C   LIG    1        4.382   0.443  -0.821  0.00  0.00    +0.040 A 
ATOM     23  C   LIG    1        4.504  -0.001  -2.123  0.00  0.00    +0.040 A 
ATOM     24  C   LIG    1        5.749  -0.319  -2.634  0.00  0.00    +0.090 A 
ATOM     25  C   LIG    1        6.879  -0.196  -1.846  0.00  0.00    -0.180 A 
ATOM     26  C   LIG    1        6.770   0.252  -0.545  0.00  0.00    +0.110 A 
BRANCH  25  27
ATOM     27  C   LIG    1        8.232  -0.544  -2.410  0.00  0.00    +0.510 C 
ATOM     28  F   LIG    1        8.801  -1.575  -1.654  0.00  0.00    -0.170 F 
ATOM     29  F   LIG    1        9.061   0.582  -2.363  0.00  0.00    -0.170 F 
ATOM     30  F   LIG    1        8.089  -0.964  -3.737  0.00  0.00    -0.170 F 
ENDBRANCH  25  27
ENDBRANCH  20  21
ENDBRANCH   3  16
TORSDOF 4
