REMARK  Name = ZINCrg00000SjSnB.0
REMARK                            x       y       z     vdW  Elec       q    Type
REMARK                         _______ _______ _______ _____ _____    ______ ____
ROOT
ATOM      1  C   LIG    1       -3.280  -4.073  -2.049  0.00  0.00    +0.570 C 
ATOM      2  N   LIG    1       -3.422  -3.252  -0.990  0.00  0.00    -0.640 N 
ATOM      3  C   LIG    1       -4.573  -2.767  -0.204  0.00  0.00    +0.330 C 
ATOM      4  C   LIG    1       -3.688  -1.559   0.152  0.00  0.00    +0.120 C 
ATOM      5  C   LIG    1       -2.489  -2.476  -0.151  0.00  0.00    +0.320 C 
ATOM      6  O   LIG    1       -4.256  -4.588  -2.552  0.00  0.00    -0.520 OA
ENDROOT
BRANCH   4   7
ATOM      7  C   LIG    1       -3.785  -1.140   1.596  0.00  0.00    +0.540 C 
ATOM      8  O   LIG    1       -4.374  -1.840   2.392  0.00  0.00    -0.520 OA
ATOM      9  N   LIG    1       -3.217   0.013   2.003  0.00  0.00    -0.850 N 
ATOM     10  H   LIG    1       -3.216   0.247   2.944  0.00  0.00    +0.410 HD
ATOM     11  H   LIG    1       -2.811   0.609   1.354  0.00  0.00    +0.400 HD
ENDBRANCH   4   7
BRANCH   4  12
ATOM     12  N   LIG    1       -3.821  -0.435  -0.779  0.00  0.00    -0.600 N 
ATOM     13  C   LIG    1       -4.988   0.231  -0.868  0.00  0.00    +0.550 C 
ATOM     14  O   LIG    1       -5.901  -0.042  -0.118  0.00  0.00    -0.500 OA
ATOM     15  C   LIG    1       -2.684  -0.037  -1.613  0.00  0.00    +0.290 C 
BRANCH  13  16
ATOM     16  C   LIG    1       -5.160   1.317  -1.900  0.00  0.00    -0.060 C 
ATOM     17  C   LIG    1       -5.053   2.767  -1.424  0.00  0.00    +0.060 C 
ATOM     18  C   LIG    1       -6.415   2.186  -1.808  0.00  0.00    +0.030 C 
BRANCH  18  19
ATOM     19  C   LIG    1       -7.400   1.888  -0.676  0.00  0.00    +0.010 C 
ATOM     20  C   LIG    1       -8.718   1.205  -1.048  0.00  0.00    +0.020 C 
ATOM     21  C   LIG    1       -8.708   2.682  -0.650  0.00  0.00    -0.060 C 
ATOM     22  C   LIG    1       -9.284   3.049   0.719  0.00  0.00    +0.060 C 
ENDBRANCH  18  19
ENDBRANCH  13  16
ENDBRANCH   4  12
BRANCH   1  25
ATOM     23  C   LIG    1       -1.821  -5.220  -3.865  0.00  0.00    +0.030 C 
ATOM     24  C   LIG    1       -1.385  -5.787  -2.512  0.00  0.00    +0.070 C 
ATOM     25  C   LIG    1       -1.909  -4.352  -2.608  0.00  0.00    -0.070 C 
BRANCH  23  29
ATOM     26  C   LIG    1       -1.683  -6.620  -6.450  0.00  0.00    +0.050 C 
ATOM     27  C   LIG    1       -3.061  -6.466  -5.802  0.00  0.00    -0.060 C 
ATOM     28  C   LIG    1       -3.652  -5.057  -5.726  0.00  0.00    +0.010 C 
ATOM     29  C   LIG    1       -3.133  -5.738  -4.458  0.00  0.00    +0.020 C 
ENDBRANCH  23  29
ENDBRANCH   1  25
TORSDOF 6
