REMARK  Name = ZINCpk000000n2sI.0
REMARK                            x       y       z     vdW  Elec       q    Type
REMARK                         _______ _______ _______ _____ _____    ______ ____
ROOT
ATOM      1  C   LIG    1       -5.661   4.855   3.439  0.00  0.00    +0.530 C 
ATOM      2  N   LIG    1       -4.663   4.729   2.542  0.00  0.00    -0.610 N 
ATOM      3  C   LIG    1       -4.922   4.870   1.101  0.00  0.00    +0.290 C 
ATOM      4  C   LIG    1       -4.331   3.654   0.379  0.00  0.00    +0.190 C 
ATOM      5  N   LIG    1       -2.916   3.511   0.745  0.00  0.00    -0.510 NA
ATOM      6  C   LIG    1       -2.761   3.248   2.182  0.00  0.00    +0.180 C 
ATOM      7  C   LIG    1       -3.287   4.447   2.977  0.00  0.00    +0.300 C 
ATOM      8  O   LIG    1       -5.416   4.819   4.627  0.00  0.00    -0.520 OA
ENDROOT
BRANCH   5   9
ATOM      9  C   LIG    1       -2.268   2.463  -0.055  0.00  0.00    +0.190 C 
ATOM     10  C   LIG    1       -2.841   1.071   0.309  0.00  0.00    +0.020 C 
ATOM     11  C   LIG    1       -1.585   0.179   0.203  0.00  0.00    +0.280 C 
ATOM     12  N   LIG    1       -0.445   1.074   0.437  0.00  0.00    -0.560 N 
ATOM     13  C   LIG    1       -0.799   2.363   0.292  0.00  0.00    +0.520 C 
ATOM     14  O   LIG    1       -0.050   3.308   0.422  0.00  0.00    -0.480 OA
BRANCH  12  15
ATOM     15  C   LIG    1        0.844   0.642   0.766  0.00  0.00    +0.160 A 
ATOM     16  C   LIG    1        1.885   1.557   0.851  0.00  0.00    -0.010 A 
ATOM     17  C   LIG    1        3.155   1.128   1.182  0.00  0.00    +0.040 A 
ATOM     18  C   LIG    1        3.393  -0.214   1.418  0.00  0.00    -0.020 A 
ATOM     19  C   LIG    1        2.360  -1.129   1.329  0.00  0.00    +0.040 A 
ATOM     20  C   LIG    1        1.087  -0.705   1.004  0.00  0.00    -0.040 A 
ENDBRANCH  12  15
ENDBRANCH   5   9
BRANCH   1  22
ATOM     21  C   LIG    1       -7.184   6.333   2.157  0.00  0.00    +0.090 C 
ATOM     22  C   LIG    1       -7.080   5.039   2.967  0.00  0.00    +0.020 C 
ATOM     23  C   LIG    1       -7.484   3.853   2.089  0.00  0.00    +0.090 C 
BRANCH  22  24
ATOM     24  C   LIG    1       -7.978   5.116   4.131  0.00  0.00    +0.220 C 
ATOM     25  N   LIG    1       -8.671   5.175   5.029  0.00  0.00    -0.400 NA
ENDBRANCH  22  24
ENDBRANCH   1  22
TORSDOF 4
