REMARK  Name = ZINCpe000000ZjQ1.0
REMARK                            x       y       z     vdW  Elec       q    Type
REMARK                         _______ _______ _______ _____ _____    ______ ____
ROOT
ATOM      1  C   LIG    1       -2.804   3.849  -0.333  0.00  0.00    +0.010 C 
ATOM      2  C   LIG    1       -3.536   2.519  -0.042  0.00  0.00    +0.100 C 
ATOM      3  C   LIG    1       -2.440   1.477  -0.075  0.00  0.00    +0.520 C 
ATOM      4  N   LIG    1       -1.237   2.069   0.019  0.00  0.00    -0.560 N 
ATOM      5  O   LIG    1       -2.620   0.282  -0.172  0.00  0.00    -0.500 OA
ATOM      6  C   LIG    1       -1.367   3.526   0.139  0.00  0.00    +0.310 C 
ENDROOT
BRANCH   4   7
ATOM      7  C   LIG    1       -0.017   1.384   0.010  0.00  0.00    +0.160 A 
ATOM      8  C   LIG    1        1.179   2.090  -0.014  0.00  0.00    -0.020 A 
ATOM      9  C   LIG    1        2.379   1.408  -0.030  0.00  0.00    +0.050 A 
ATOM     10  C   LIG    1        2.397   0.023  -0.021  0.00  0.00    -0.120 A 
ATOM     11  C   LIG    1        3.564  -0.941  -0.033  0.00  0.00    +0.070 C 
ATOM     12  C   LIG    1        2.976  -2.292   0.426  0.00  0.00    +0.030 C 
ATOM     13  C   LIG    1        1.495  -2.169   0.007  0.00  0.00    +0.080 C 
ATOM     14  C   LIG    1        1.208  -0.683   0.002  0.00  0.00    -0.070 A 
ATOM     15  C   LIG    1        0.002  -0.004   0.018  0.00  0.00    +0.010 A 
ENDBRANCH   4   7
BRANCH   1  17
ATOM     16  O   LIG    1       -2.705   5.572   1.278  0.00  0.00    -0.520 OA
ATOM     17  C   LIG    1       -3.393   4.977   0.475  0.00  0.00    +0.530 C 
ATOM     18  N   LIG    1       -4.684   5.325   0.305  0.00  0.00    -0.720 N 
ATOM     19  H   LIG    1       -5.234   4.850  -0.337  0.00  0.00    +0.410 HD
BRANCH  18  20
ATOM     20  C   LIG    1       -5.256   6.422   1.090  0.00  0.00    +0.260 C 
ATOM     21  C   LIG    1       -6.779   6.236   1.205  0.00  0.00    +0.080 C 
ATOM     22  C   LIG    1       -7.350   7.572   1.745  0.00  0.00    -0.300 C 
ATOM     23  S   LIG    1       -6.412   8.822   0.786  0.00  0.00    +2.390 S 
ATOM     24  O   LIG    1       -6.001   9.870   1.654  0.00  0.00    -0.930 OA
ATOM     25  O   LIG    1       -7.119   9.127  -0.409  0.00  0.00    -0.930 OA
ATOM     26  C   LIG    1       -4.974   7.765   0.388  0.00  0.00    -0.330 C 
ENDBRANCH  18  20
ENDBRANCH   1  17
TORSDOF 3
