REMARK  Name = ZINCrH000004sHO1.1
REMARK                            x       y       z     vdW  Elec       q    Type
REMARK                         _______ _______ _______ _____ _____    ______ ____
ROOT
ATOM      1  N   LIG    1       -1.633   0.819   0.250  0.00  0.00    -0.660 NA
ATOM      2  H   LIG    1       -1.035   1.615   0.415  0.00  0.00    +0.360 HD
ENDROOT
BRANCH   1   3
ATOM      3  C   LIG    1       -2.052   0.204   1.517  0.00  0.00    +0.180 C 
ATOM      4  C   LIG    1       -0.881   0.214   2.501  0.00  0.00    +0.030 C 
BRANCH   3   7
ATOM      5  N   LIG    1       -3.756   0.601   3.266  0.00  0.00    -0.650 N 
ATOM      6  H   LIG    1       -3.461  -0.217   3.697  0.00  0.00    +0.400 HD
ATOM      7  C   LIG    1       -3.203   0.984   2.098  0.00  0.00    +0.520 C 
ATOM      8  O   LIG    1       -3.633   1.957   1.514  0.00  0.00    -0.500 OA
BRANCH   5  16
ATOM      9  C   LIG    1       -3.396   3.573   4.125  0.00  0.00    +0.150 C 
ATOM     10  C   LIG    1       -4.635   2.725   4.259  0.00  0.00    +0.090 A 
ATOM     11  N   LIG    1       -5.776   3.112   4.768  0.00  0.00    -0.290 NA
ATOM     12  N   LIG    1       -6.672   2.037   4.712  0.00  0.00    -0.370 N 
ATOM     13  C   LIG    1       -6.026   0.985   4.145  0.00  0.00    +0.080 A 
ATOM     14  C   LIG    1       -6.607  -0.380   3.882  0.00  0.00    +0.140 C 
ATOM     15  C   LIG    1       -8.060   2.046   5.179  0.00  0.00    +0.360 C 
ATOM     16  C   LIG    1       -4.761   1.387   3.861  0.00  0.00    -0.010 A 
ENDBRANCH   5  16
ENDBRANCH   3   7
ENDBRANCH   1   3
BRANCH   1  17
ATOM     17  C   LIG    1       -0.975  -0.164  -0.620  0.00  0.00    +0.230 C 
BRANCH  17  18
ATOM     18  C   LIG    1       -2.018  -0.917  -1.406  0.00  0.00    -0.080 A 
ATOM     19  C   LIG    1       -3.116  -0.249  -1.914  0.00  0.00    +0.050 A 
ATOM     20  C   LIG    1       -4.070  -0.939  -2.639  0.00  0.00    -0.010 A 
ATOM     21  C   LIG    1       -3.931  -2.299  -2.846  0.00  0.00    +0.000 A 
ATOM     22  C   LIG    1       -2.835  -2.967  -2.333  0.00  0.00    +0.000 A 
ATOM     23  C   LIG    1       -1.879  -2.276  -1.613  0.00  0.00    +0.000 A 
ENDBRANCH  17  18
BRANCH  17  24
ATOM     24  C   LIG    1       -0.048   0.548  -1.571  0.00  0.00    -0.090 A 
ATOM     25  C   LIG    1       -0.434   1.744  -2.148  0.00  0.00    +0.030 A 
ATOM     26  C   LIG    1        0.419   2.399  -3.016  0.00  0.00    +0.000 A 
ATOM     27  C   LIG    1        1.654   1.855  -3.315  0.00  0.00    +0.000 A 
ATOM     28  C   LIG    1        2.038   0.657  -2.742  0.00  0.00    +0.000 A 
ATOM     29  C   LIG    1        1.187   0.004  -1.870  0.00  0.00    +0.010 A 
ENDBRANCH  17  24
ENDBRANCH   1  17
TORSDOF 6
