REMARK  Name = ZINCtj00000nxSDf.1
REMARK                            x       y       z     vdW  Elec       q    Type
REMARK                         _______ _______ _______ _____ _____    ______ ____
ROOT
ATOM      1  O   LIG    1       -2.693   1.572  -5.464  0.00  0.00    -0.560 OA
ATOM      2  C   LIG    1       -3.056   1.072  -4.417  0.00  0.00    +0.710 C 
ATOM      3  N   LIG    1       -4.340   0.690  -4.262  0.00  0.00    -0.620 N 
ATOM      4  C   LIG    1       -5.343   0.979  -5.297  0.00  0.00    +0.320 C 
ATOM      5  C   LIG    1       -6.078  -0.328  -5.634  0.00  0.00    +0.200 C 
ATOM      6  N   LIG    1       -6.613  -0.916  -4.398  0.00  0.00    -0.480 N 
ATOM      7  C   LIG    1       -5.533  -1.284  -3.473  0.00  0.00    +0.190 C 
ATOM      8  C   LIG    1       -4.774  -0.021  -3.050  0.00  0.00    +0.280 C 
ATOM      9  N   LIG    1       -2.176   0.900  -3.411  0.00  0.00    -0.770 N 
ATOM     10  H   LIG    1       -2.447   0.437  -2.603  0.00  0.00    +0.390 HD
ENDROOT
BRANCH   6  11
ATOM     11  C   LIG    1       -7.429  -2.016  -4.679  0.00  0.00    +0.070 A 
ATOM     12  C   LIG    1       -8.101  -2.663  -3.651  0.00  0.00    +0.030 A 
ATOM     13  C   LIG    1       -8.912  -3.746  -3.932  0.00  0.00    +0.040 A 
ATOM     14  C   LIG    1       -9.046  -4.193  -5.234  0.00  0.00    +0.030 A 
ATOM     15  C   LIG    1       -8.374  -3.555  -6.260  0.00  0.00    +0.010 A 
ATOM     16  C   LIG    1       -7.566  -2.467  -5.988  0.00  0.00    +0.050 A 
ATOM     17  F   LIG    1       -6.909  -1.844  -6.990  0.00  0.00    -0.130 F 
ENDBRANCH   6  11
BRANCH   9  18
ATOM     18  C   LIG    1       -0.809   1.413  -3.538  0.00  0.00    +0.340 C 
BRANCH  18  19
ATOM     19  C   LIG    1       -0.023   1.088  -2.266  0.00  0.00    +0.180 C 
BRANCH  19  20
ATOM     20  N   LIG    1       -0.740   1.615  -1.098  0.00  0.00    -0.380 N 
ATOM     21  C   LIG    1       -0.120   1.100   0.131  0.00  0.00    +0.230 C 
ATOM     22  C   LIG    1       -0.869   1.651   1.347  0.00  0.00    +0.270 C 
ATOM     23  O   LIG    1       -0.848   3.080   1.306  0.00  0.00    -0.350 OA
ATOM     24  C   LIG    1       -1.420   3.629   0.116  0.00  0.00    +0.260 C 
ATOM     25  C   LIG    1       -0.672   3.083  -1.102  0.00  0.00    +0.230 C 
ATOM     26  H   LIG    1       -1.705   1.323  -1.136  0.00  0.00    +0.420 HD
ENDBRANCH  19  20
BRANCH  19  27
ATOM     27  C   LIG    1        1.364   1.730  -2.346  0.00  0.00    -0.030 C 
ATOM     28  C   LIG    1        2.073   1.351  -3.669  0.00  0.00    +0.040 C 
ATOM     29  C   LIG    1        3.533   1.085  -3.252  0.00  0.00    +0.210 C 
ATOM     30  O   LIG    1        3.628   1.345  -1.842  0.00  0.00    -0.360 OA
ATOM     31  C   LIG    1        2.316   1.125  -1.283  0.00  0.00    +0.210 C 
ENDBRANCH  19  27
ENDBRANCH  18  19
ENDBRANCH   9  18
TORSDOF 5
