REMARK  Name = ZINCrD000000D8uW.0
REMARK                            x       y       z     vdW  Elec       q    Type
REMARK                         _______ _______ _______ _____ _____    ______ ____
ROOT
ATOM      1  C   LIG    1       -0.016   1.308   0.009  0.00  0.00    +0.080 A 
ATOM      2  N   LIG    1        0.002  -0.004   0.002  0.00  0.00    -0.290 NA
ATOM      3  O   LIG    1        1.131  -0.436  -0.011  0.00  0.00    +0.160 OA
ATOM      4  C   LIG    1        2.043   0.552  -0.015  0.00  0.00    -0.000 A 
ATOM      5  C   LIG    1        1.342   1.724  -0.002  0.00  0.00    +0.040 A 
ENDROOT
BRANCH   4   6
ATOM      6  C   LIG    1        3.514   0.399  -0.029  0.00  0.00    +0.020 A 
ATOM      7  C   LIG    1        4.282   1.099  -0.961  0.00  0.00    +0.070 A 
ATOM      8  C   LIG    1        5.654   0.956  -0.966  0.00  0.00    +0.060 A 
ATOM      9  C   LIG    1        6.268   0.113  -0.058  0.00  0.00    +0.040 A 
ATOM     10  C   LIG    1        5.512  -0.588   0.865  0.00  0.00    +0.080 A 
ATOM     11  C   LIG    1        4.140  -0.450   0.884  0.00  0.00    -0.160 A 
BRANCH  11  12
ATOM     12  C   LIG    1        3.318  -1.215   1.890  0.00  0.00    +0.500 C 
ATOM     13  F   LIG    1        2.416  -2.048   1.218  0.00  0.00    -0.160 F 
ATOM     14  F   LIG    1        2.611  -0.316   2.695  0.00  0.00    -0.170 F 
ATOM     15  F   LIG    1        4.164  -1.992   2.689  0.00  0.00    -0.170 F 
ENDBRANCH  11  12
ENDBRANCH   4   6
BRANCH   1  19
ATOM     16  C   LIG    1       -3.201   2.916   0.034  0.00  0.00    +0.180 A 
ATOM     17  N   LIG    1       -2.372   3.918   0.035  0.00  0.00    -0.360 NA
ATOM     18  O   LIG    1       -1.226   3.521   0.026  0.00  0.00    +0.110 OA
ATOM     19  C   LIG    1       -1.213   2.180   0.020  0.00  0.00    +0.260 A 
ATOM     20  N   LIG    1       -2.473   1.788   0.019  0.00  0.00    -0.440 NA
BRANCH  16  25
ATOM     21  O   LIG    1       -6.473   6.052   0.831  0.00  0.00    -0.930 OA
ATOM     22  S   LIG    1       -6.693   4.649   0.776  0.00  0.00    +2.400 S 
ATOM     23  C   LIG    1       -6.680   4.101  -0.973  0.00  0.00    -0.290 C 
ATOM     24  C   LIG    1       -5.186   3.758  -1.209  0.00  0.00    +0.090 C 
ATOM     25  C   LIG    1       -4.705   3.005   0.043  0.00  0.00    +0.140 C 
ATOM     26  O   LIG    1       -7.814   4.081   1.439  0.00  0.00    -0.930 OA
ATOM     27  C   LIG    1       -5.171   3.779   1.292  0.00  0.00    -0.310 C 
ENDBRANCH  16  25
ENDBRANCH   1  19
TORSDOF 4
