REMARK  Name = ZINCqH000000464e.0
REMARK                            x       y       z     vdW  Elec       q    Type
REMARK                         _______ _______ _______ _____ _____    ______ ____
ROOT
ATOM      1  N   LIG    1        0.929   0.750  -2.735  0.00  0.00    -0.710 N 
ATOM      2  H   LIG    1        1.185   1.294  -1.974  0.00  0.00    +0.410 HD
ATOM      3  C   LIG    1        1.456   1.002  -3.950  0.00  0.00    +0.610 C 
ATOM      4  O   LIG    1        1.136   0.320  -4.904  0.00  0.00    -0.530 OA
ENDROOT
BRANCH   3   5
ATOM      5  C   LIG    1        2.424   2.104  -4.121  0.00  0.00    -0.020 A 
ATOM      6  N   LIG    1        2.860   2.918  -3.181  0.00  0.00    -0.260 NA
ATOM      7  N   LIG    1        3.694   3.760  -3.678  0.00  0.00    -0.260 N 
ATOM      8  C   LIG    1        3.852   3.535  -5.000  0.00  0.00    +0.050 A 
ATOM      9  C   LIG    1        3.064   2.484  -5.325  0.00  0.00    -0.020 A 
BRANCH   7  10
ATOM     10  C   LIG    1        4.377   4.811  -2.919  0.00  0.00    +0.170 C 
ATOM     11  C   LIG    1        4.011   6.178  -3.500  0.00  0.00    +0.050 C 
ATOM     12  C   LIG    1        5.890   4.605  -3.010  0.00  0.00    +0.050 C 
ATOM     13  C   LIG    1        3.941   4.747  -1.454  0.00  0.00    +0.070 C 
ENDBRANCH   7  10
BRANCH   8  14
ATOM     14  C   LIG    1        4.745   4.307  -5.937  0.00  0.00    +0.010 C 
ATOM     15  C   LIG    1        4.268   4.485  -7.380  0.00  0.00    +0.040 C 
ATOM     16  C   LIG    1        5.423   3.530  -7.067  0.00  0.00    +0.040 C 
ENDBRANCH   8  14
ENDBRANCH   3   5
BRANCH   1  17
ATOM     17  C   LIG    1       -0.031  -0.343  -2.565  0.00  0.00    +0.320 C 
BRANCH  17  18
ATOM     18  C   LIG    1       -0.003  -0.818  -1.135  0.00  0.00    -0.250 A 
ATOM     19  C   LIG    1        0.023  -2.107  -0.725  0.00  0.00    +0.100 A 
ATOM     20  N   LIG    1        0.036  -2.109   0.625  0.00  0.00    -0.370 N 
ATOM     21  N   LIG    1        0.022  -0.777   1.058  0.00  0.00    -0.290 NA
ATOM     22  C   LIG    1        0.060  -3.295   1.485  0.00  0.00    +0.360 C 
ATOM     23  C   LIG    1        0.031  -3.323  -1.615  0.00  0.00    +0.140 C 
ATOM     24  C   LIG    1        0.002  -0.004   0.002  0.00  0.00    +0.090 A 
ATOM     25  C   LIG    1       -0.018   1.503   0.010  0.00  0.00    +0.160 C 
ENDBRANCH  17  18
BRANCH  17  27
ATOM     26  C   LIG    1       -1.497   0.518  -4.396  0.00  0.00    +0.020 C 
ATOM     27  C   LIG    1       -1.436   0.153  -2.911  0.00  0.00    +0.000 C 
ENDBRANCH  17  27
ENDBRANCH   1  17
TORSDOF 6
