REMARK  Name = ZINCpk00000xRmIY.0
REMARK                            x       y       z     vdW  Elec       q    Type
REMARK                         _______ _______ _______ _____ _____    ______ ____
ROOT
ATOM      1  N   LIG    1        3.633   2.046  -1.240  0.00  0.00    -1.100 NA
ATOM      2  H   LIG    1        4.179   1.877  -0.457  0.00  0.00    +0.420 HD
ENDROOT
BRANCH   1   9
ATOM      3  C   LIG    1        1.605  -1.545  -2.039  0.00  0.00    +0.220 A 
ATOM      4  N   LIG    1        0.763  -1.449  -1.040  0.00  0.00    -0.290 NA
ATOM      5  N   LIG    1        0.853  -0.137  -0.567  0.00  0.00    -0.370 N 
ATOM      6  C   LIG    1        0.117   0.481   0.536  0.00  0.00    +0.310 C 
ATOM      7  C   LIG    1        0.228   2.005   0.410  0.00  0.00    +0.050 C 
ATOM      8  C   LIG    1        1.696   2.397   0.225  0.00  0.00    +0.060 C 
ATOM      9  C   LIG    1        2.175   1.930  -1.156  0.00  0.00    +0.360 C 
ATOM     10  C   LIG    1        1.769   0.487  -1.332  0.00  0.00    +0.250 A 
ATOM     11  N   LIG    1        2.211  -0.368  -2.211  0.00  0.00    -0.490 NA
BRANCH   3  12
ATOM     12  C   LIG    1        1.849  -2.783  -2.862  0.00  0.00    +0.310 C 
BRANCH  12  14
ATOM     13  C   LIG    1        1.106  -3.938  -4.827  0.00  0.00    +0.210 C 
ATOM     14  O   LIG    1        0.956  -2.798  -3.977  0.00  0.00    -0.380 OA
ENDBRANCH  12  14
ENDBRANCH   3  12
ENDBRANCH   1   9
BRANCH   1  15
ATOM     15  S   LIG    1        4.349   2.466  -2.674  0.00  0.00    +2.690 S 
ATOM     16  O   LIG    1        3.780   1.625  -3.667  0.00  0.00    -0.920 OA
ATOM     17  O   LIG    1        5.745   2.535  -2.420  0.00  0.00    -0.950 OA
BRANCH  15  18
ATOM     18  C   LIG    1        3.831   4.107  -3.054  0.00  0.00    -0.670 A 
ATOM     19  C   LIG    1        3.051   4.340  -4.173  0.00  0.00    +0.150 A 
ATOM     20  C   LIG    1        2.641   5.622  -4.476  0.00  0.00    +0.050 A 
ATOM     21  C   LIG    1        3.016   6.685  -3.652  0.00  0.00    +0.040 A 
ATOM     22  C   LIG    1        3.803   6.442  -2.524  0.00  0.00    +0.040 A 
ATOM     23  C   LIG    1        4.201   5.154  -2.229  0.00  0.00    +0.020 A 
ATOM     24  C   LIG    1        5.046   4.889  -1.010  0.00  0.00    +0.110 C 
BRANCH  21  25
ATOM     25  C   LIG    1        2.594   8.018  -3.960  0.00  0.00    +0.240 C 
ATOM     26  N   LIG    1        2.259   9.076  -4.205  0.00  0.00    -0.390 NA
ENDBRANCH  21  25
ENDBRANCH  15  18
ENDBRANCH   1  15
TORSDOF 6
