REMARK  Name = ZINCrH000004lTmI.0
REMARK                            x       y       z     vdW  Elec       q    Type
REMARK                         _______ _______ _______ _____ _____    ______ ____
ROOT
ATOM      1  C   LIG    1       -0.014   1.212   0.009  0.00  0.00    +0.560 C 
ATOM      2  N   LIG    1       -1.191   1.870   0.018  0.00  0.00    -0.720 N 
ATOM      3  H   LIG    1       -1.204   2.840   0.023  0.00  0.00    +0.400 HD
ATOM      4  O   LIG    1        0.002  -0.004   0.002  0.00  0.00    -0.520 OA
ENDROOT
BRANCH   1   8
ATOM      5  C   LIG    1        3.635   3.386  -0.015  0.00  0.00    +0.140 A 
ATOM      6  C   LIG    1        3.656   1.995  -0.022  0.00  0.00    -0.060 A 
ATOM      7  C   LIG    1        2.474   1.287  -0.015  0.00  0.00    +0.130 A 
ATOM      8  C   LIG    1        1.254   1.967   0.001  0.00  0.00    -0.120 A 
ATOM      9  C   LIG    1        1.237   3.364   0.003  0.00  0.00    +0.090 A 
ATOM     10 CL   LIG    1        5.173   1.151  -0.041  0.00  0.00    -0.030 Cl
ATOM     11  C   LIG    1        2.423   4.066   0.000  0.00  0.00    -0.060 A 
ATOM     12 CL   LIG    1        2.403   5.802   0.009  0.00  0.00    -0.030 Cl
BRANCH   5  14
ATOM     13  C   LIG    1        5.346   4.419  -1.300  0.00  0.00    +0.240 C 
ATOM     14  O   LIG    1        4.802   4.080  -0.023  0.00  0.00    -0.320 OA
ENDBRANCH   5  14
ENDBRANCH   1   8
BRANCH   2  15
ATOM     15  C   LIG    1       -2.449   1.120   0.020  0.00  0.00    +0.320 C 
BRANCH  15  16
ATOM     16  C   LIG    1       -3.608   2.084   0.030  0.00  0.00    -0.110 A 
ATOM     17  C   LIG    1       -4.137   2.515   1.232  0.00  0.00    +0.030 A 
ATOM     18  C   LIG    1       -5.197   3.403   1.242  0.00  0.00    +0.030 A 
ATOM     19  C   LIG    1       -5.734   3.851   0.050  0.00  0.00    -0.070 A 
ATOM     20  C   LIG    1       -5.208   3.416  -1.152  0.00  0.00    +0.000 A 
ATOM     21  C   LIG    1       -4.145   2.532  -1.162  0.00  0.00    +0.030 A 
BRANCH  19  22
ATOM     22  C   LIG    1       -6.893   4.814   0.061  0.00  0.00    +0.230 C 
BRANCH  22  23
ATOM     23  N   LIG    1       -8.155   4.062   0.063  0.00  0.00    -0.530 NA
ATOM     24  C   LIG    1       -8.331   3.326  -1.198  0.00  0.00    +0.140 C 
ATOM     25  C   LIG    1       -9.626   2.512  -1.130  0.00  0.00    +0.220 C 
ATOM     26  O   LIG    1      -10.722   3.389  -0.857  0.00  0.00    -0.390 OA
ATOM     27  C   LIG    1      -10.583   4.121   0.364  0.00  0.00    +0.220 C 
ATOM     28  C   LIG    1       -9.298   4.952   0.311  0.00  0.00    +0.150 C 
ENDBRANCH  22  23
ENDBRANCH  19  22
ENDBRANCH  15  16
ENDBRANCH   2  15
TORSDOF 6
