REMARK  Name = ZINCqH0000004MBR.0
REMARK                            x       y       z     vdW  Elec       q    Type
REMARK                         _______ _______ _______ _____ _____    ______ ____
ROOT
ATOM      1  N   LIG    1        4.406  -1.138   1.348  0.00  0.00    -0.640 N 
ATOM      2  H   LIG    1        3.808  -1.703   1.862  0.00  0.00    +0.420 HD
ATOM      3  C   LIG    1        3.940  -0.460   0.280  0.00  0.00    +0.710 C 
ATOM      4  N   LIG    1        2.644  -0.568  -0.074  0.00  0.00    -0.730 N 
ATOM      5  H   LIG    1        2.030  -1.074   0.481  0.00  0.00    +0.400 HD
ATOM      6  O   LIG    1        4.690   0.248  -0.364  0.00  0.00    -0.540 OA
ENDROOT
BRANCH   1  10
ATOM      7  C   LIG    1        7.576  -1.413   2.922  0.00  0.00    +0.090 A 
ATOM      8  C   LIG    1        8.141  -0.582   2.045  0.00  0.00    -0.280 A 
ATOM      9  S   LIG    1        6.905  -0.076   0.897  0.00  0.00    +0.250 S 
ATOM     10  C   LIG    1        5.742  -1.026   1.714  0.00  0.00    +0.250 A 
ATOM     11  C   LIG    1        9.586  -0.155   2.035  0.00  0.00    +0.150 C 
ATOM     12  N   LIG    1        6.290  -1.633   2.720  0.00  0.00    -0.510 NA
BRANCH   7  14
ATOM     13  C   LIG    1        8.928  -3.384   3.584  0.00  0.00    +0.040 C 
ATOM     14  C   LIG    1        8.343  -2.050   4.052  0.00  0.00    +0.110 C 
ENDBRANCH   7  14
ENDBRANCH   1  10
BRANCH   4  15
ATOM     15  C   LIG    1        2.163   0.080  -1.297  0.00  0.00    +0.240 C 
ATOM     16  C   LIG    1        0.679  -0.243  -1.498  0.00  0.00    +0.030 C 
ATOM     17  C   LIG    1       -0.124   0.338  -0.331  0.00  0.00    +0.210 C 
ATOM     18  O   LIG    1        0.102   1.746  -0.254  0.00  0.00    -0.380 OA
ATOM     19  C   LIG    1        1.465   2.107  -0.019  0.00  0.00    +0.210 C 
ATOM     20  C   LIG    1        2.332   1.597  -1.173  0.00  0.00    +0.020 C 
BRANCH  15  21
ATOM     21  C   LIG    1        2.952  -0.421  -2.479  0.00  0.00    -0.050 A 
ATOM     22  C   LIG    1        3.038   0.348  -3.626  0.00  0.00    +0.030 A 
ATOM     23  C   LIG    1        3.762  -0.101  -4.710  0.00  0.00    +0.080 A 
ATOM     24  C   LIG    1        4.402  -1.341  -4.651  0.00  0.00    -0.030 A 
ATOM     25  C   LIG    1        4.308  -2.115  -3.493  0.00  0.00    +0.060 A 
ATOM     26  C   LIG    1        3.584  -1.650  -2.414  0.00  0.00    +0.020 A 
BRANCH  24  27
ATOM     27  C   LIG    1        5.153  -1.817  -5.774  0.00  0.00    +0.250 C 
ATOM     28  N   LIG    1        5.748  -2.194  -6.665  0.00  0.00    -0.410 NA
ENDBRANCH  24  27
ENDBRANCH  15  21
ENDBRANCH   4  15
TORSDOF 5
