REMARK  Name = ZINCpk000005ZItL.0
REMARK                            x       y       z     vdW  Elec       q    Type
REMARK                         _______ _______ _______ _____ _____    ______ ____
ROOT
ATOM      1  N   LIG    1        5.776   2.679  -0.013  0.00  0.00    -0.280 N 
ATOM      2  C   LIG    1        4.928   1.625  -0.013  0.00  0.00    +0.150 A 
ATOM      3  C   LIG    1        3.670   2.153  -0.007  0.00  0.00    +0.030 A 
ATOM      4  N   LIG    1        3.824   3.489  -0.009  0.00  0.00    -0.230 NA
ATOM      5  N   LIG    1        5.081   3.761  -0.008  0.00  0.00    -0.080 NA
ENDROOT
BRANCH   3   6
ATOM      6  C   LIG    1        2.389   1.403  -0.005  0.00  0.00    -0.010 A 
ATOM      7  C   LIG    1        2.396   0.013  -0.009  0.00  0.00    +0.040 A 
ATOM      8  C   LIG    1        1.206  -0.686  -0.008  0.00  0.00    +0.000 A 
ATOM      9  C   LIG    1        0.002  -0.004   0.002  0.00  0.00    +0.040 A 
ATOM     10  C   LIG    1       -0.017   1.376   0.010  0.00  0.00    -0.150 A 
ATOM     11  C   LIG    1       -1.166   2.365   0.033  0.00  0.00    +0.060 C 
ATOM     12  C   LIG    1       -0.475   3.684   0.447  0.00  0.00    +0.230 C 
ATOM     13  N   LIG    1        0.918   3.474  -0.005  0.00  0.00    -0.620 N 
ATOM     14  H   LIG    1        1.062   3.864  -0.925  0.00  0.00    +0.360 HD
ATOM     15  C   LIG    1        1.169   2.098   0.002  0.00  0.00    +0.130 A 
ENDBRANCH   3   6
BRANCH   1  16
ATOM     16  C   LIG    1        7.239   2.601  -0.019  0.00  0.00    +0.310 C 
BRANCH  16  17
ATOM     17  C   LIG    1        7.788   3.404  -1.201  0.00  0.00    +0.230 C 
BRANCH  17  18
ATOM     18  O   LIG    1        7.372   2.794  -2.424  0.00  0.00    -0.540 OA
ATOM     19  H   LIG    1        7.676   1.883  -2.533  0.00  0.00    +0.370 HD
ENDBRANCH  17  18
BRANCH  17  20
ATOM     20  C   LIG    1        9.316   3.426  -1.136  0.00  0.00    +0.150 C 
BRANCH  20  21
ATOM     21  O   LIG    1        9.824   4.271  -2.171  0.00  0.00    -0.360 OA
BRANCH  21  22
ATOM     22  C   LIG    1       11.250   4.362  -2.199  0.00  0.00    +0.180 C 
BRANCH  22  23
ATOM     23  C   LIG    1       11.679   5.287  -3.339  0.00  0.00    +0.160 C 
ATOM     24  C   LIG    1       13.218   5.472  -3.331  0.00  0.00    +0.020 C 
ATOM     25  C   LIG    1       13.477   5.835  -4.820  0.00  0.00    +0.000 C 
ATOM     26  C   LIG    1       12.408   4.998  -5.554  0.00  0.00    +0.190 C 
ATOM     27  O   LIG    1       11.378   4.686  -4.609  0.00  0.00    -0.370 OA
ENDBRANCH  22  23
ENDBRANCH  21  22
ENDBRANCH  20  21
ENDBRANCH  17  20
ENDBRANCH  16  17
ENDBRANCH   1  16
TORSDOF 8
