REMARK  Name = ZINCpk00000eaxmW.0
REMARK                            x       y       z     vdW  Elec       q    Type
REMARK                         _______ _______ _______ _____ _____    ______ ____
ROOT
ATOM      1  N   LIG    1        5.514   2.837  -1.016  0.00  0.00    -0.490 NA
ATOM      2  C   LIG    1        6.839   3.168  -0.430  0.00  0.00    +0.170 C 
ATOM      3  C   LIG    1        6.522   3.364   1.074  0.00  0.00    +0.180 C 
ATOM      4  C   LIG    1        5.454   2.280   1.347  0.00  0.00    +0.060 C 
ATOM      5  C   LIG    1        4.846   1.959  -0.031  0.00  0.00    +0.240 C 
ENDROOT
BRANCH   5   6
ATOM      6  C   LIG    1        3.365   2.237  -0.017  0.00  0.00    +0.170 A 
ATOM      7  N   LIG    1        2.801   3.420  -0.005  0.00  0.00    -0.210 NA
ATOM      8  N   LIG    1        1.518   3.301   0.006  0.00  0.00    -0.250 NA
ATOM      9  C   LIG    1        1.199   2.019   0.002  0.00  0.00    +0.120 A 
ATOM     10  C   LIG    1       -0.016   1.307   0.009  0.00  0.00    +0.410 A 
ATOM     11  N   LIG    1        0.002  -0.004   0.002  0.00  0.00    -0.450 NA
ATOM     12  C   LIG    1        1.151  -0.685  -0.013  0.00  0.00    +0.240 A 
ATOM     13  C   LIG    1        2.343  -0.050  -0.020  0.00  0.00    +0.190 A 
ATOM     14  N   LIG    1        2.382   1.315  -0.013  0.00  0.00    -0.370 N 
ENDBRANCH   5   6
BRANCH   3  15
ATOM     15  O   LIG    1        7.687   3.138   1.870  0.00  0.00    -0.380 OA
ATOM     16  C   LIG    1        8.456   4.316   2.123  0.00  0.00    +0.210 C 
ENDBRANCH   3  15
BRANCH   1  17
ATOM     17  C   LIG    1        5.666   2.158  -2.309  0.00  0.00    +0.250 C 
BRANCH  17  22
ATOM     18  C   LIG    1        7.874   4.199  -4.588  0.00  0.00    +0.170 A 
ATOM     19  C   LIG    1        6.900   4.958  -5.232  0.00  0.00    -0.120 A 
ATOM     20  C   LIG    1        5.574   4.771  -4.896  0.00  0.00    +0.300 A 
ATOM     21  N   LIG    1        5.226   3.885  -3.983  0.00  0.00    -0.490 NA
ATOM     22  C   LIG    1        6.121   3.151  -3.348  0.00  0.00    +0.170 A 
ATOM     23  C   LIG    1        7.466   3.278  -3.627  0.00  0.00    -0.060 A 
BRANCH  18  25
ATOM     24  C   LIG    1        9.515   5.322  -5.890  0.00  0.00    +0.250 C 
ATOM     25  O   LIG    1        9.188   4.353  -4.891  0.00  0.00    -0.310 OA
ENDBRANCH  18  25
ENDBRANCH  17  22
ENDBRANCH   1  17
TORSDOF 5
