REMARK  Name = ZINCrD0000074oqX.0
REMARK                            x       y       z     vdW  Elec       q    Type
REMARK                         _______ _______ _______ _____ _____    ______ ____
ROOT
ATOM      1  N   LIG    1       -1.182  -0.723   0.010  0.00  0.00    -0.710 N 
ATOM      2  H   LIG    1       -1.161  -1.693   0.004  0.00  0.00    +0.410 HD
ENDROOT
BRANCH   1   6
ATOM      3  C   LIG    1        1.217   3.576   0.009  0.00  0.00    +0.140 C 
ATOM      4  C   LIG    1        1.189   2.069   0.002  0.00  0.00    +0.210 A 
ATOM      5  C   LIG    1       -0.017   1.393   0.010  0.00  0.00    -0.150 A 
ATOM      6  C   LIG    1        0.002  -0.004   0.002  0.00  0.00    +0.450 A 
ATOM      7  N   LIG    1        1.172  -0.632  -0.013  0.00  0.00    -0.570 NA
ATOM      8  C   LIG    1        2.307   0.053  -0.020  0.00  0.00    +0.400 A 
ATOM      9  N   LIG    1        2.318   1.378  -0.012  0.00  0.00    -0.550 NA
BRANCH   8  10
ATOM     10  C   LIG    1        3.596  -0.682  -0.036  0.00  0.00    -0.000 A 
ATOM     11  C   LIG    1        3.626  -2.079  -0.038  0.00  0.00    +0.020 A 
ATOM     12  C   LIG    1        4.847  -2.723  -0.059  0.00  0.00    +0.250 A 
ATOM     13  N   LIG    1        5.973  -2.037  -0.066  0.00  0.00    -0.470 NA
ATOM     14  C   LIG    1        5.989  -0.718  -0.059  0.00  0.00    +0.250 A 
ATOM     15  C   LIG    1        4.813   0.004  -0.044  0.00  0.00    +0.030 A 
ENDBRANCH   8  10
ENDBRANCH   1   6
BRANCH   1  16
ATOM     16  C   LIG    1       -2.467  -0.019   0.026  0.00  0.00    +0.320 C 
BRANCH  16  17
ATOM     17  C   LIG    1       -3.590  -1.023   0.032  0.00  0.00    -0.090 A 
ATOM     18  C   LIG    1       -4.119  -1.472  -1.165  0.00  0.00    +0.030 A 
ATOM     19  C   LIG    1       -5.145  -2.395  -1.167  0.00  0.00    +0.040 A 
ATOM     20  C   LIG    1       -5.655  -2.868   0.043  0.00  0.00    -0.120 A 
ATOM     21  C   LIG    1       -5.121  -2.408   1.247  0.00  0.00    +0.080 A 
ATOM     22  C   LIG    1       -4.092  -1.489   1.235  0.00  0.00    +0.030 A 
BRANCH  20  23
ATOM     23  C   LIG    1       -6.759  -3.852   0.049  0.00  0.00    +0.560 C 
ATOM     24  N   LIG    1       -7.273  -4.295  -1.116  0.00  0.00    -0.700 N 
ATOM     25  H   LIG    1       -6.919  -3.968  -1.958  0.00  0.00    +0.400 HD
ATOM     26  O   LIG    1       -7.202  -4.263   1.103  0.00  0.00    -0.530 OA
BRANCH  24  27
ATOM     27  C   LIG    1       -8.366  -5.270  -1.110  0.00  0.00    +0.220 C 
ATOM     28  C   LIG    1       -8.278  -6.436  -2.098  0.00  0.00    +0.020 C 
ATOM     29  C   LIG    1       -9.286  -5.308  -2.333  0.00  0.00    +0.020 C 
ENDBRANCH  24  27
ENDBRANCH  20  23
ENDBRANCH  16  17
ENDBRANCH   1  16
TORSDOF 6
