REMARK  Name = ZINCnE0000052H9b.0
REMARK                            x       y       z     vdW  Elec       q    Type
REMARK                         _______ _______ _______ _____ _____    ______ ____
ROOT
ATOM      1  N   LIG    1        3.124   0.690  -1.606  0.00  0.00    -1.030 NA
ENDROOT
BRANCH   1   7
ATOM      2  C   LIG    1        4.653  -0.174  -3.273  0.00  0.00    -0.210 A 
ATOM      3  C   LIG    1        5.845  -0.834  -3.582  0.00  0.00    +0.100 A 
ATOM      4  C   LIG    1        6.660  -1.292  -2.570  0.00  0.00    -0.130 A 
ATOM      5  C   LIG    1        6.308  -1.095  -1.244  0.00  0.00    +0.080 A 
ATOM      6  C   LIG    1        5.138  -0.439  -0.922  0.00  0.00    -0.170 A 
ATOM      7  C   LIG    1        4.303   0.029  -1.928  0.00  0.00    +0.330 A 
BRANCH   2   8
ATOM      8  C   LIG    1        3.773   0.312  -4.349  0.00  0.00    +0.510 C 
ATOM      9  O   LIG    1        2.740   0.890  -4.076  0.00  0.00    -0.480 OA
BRANCH   8  10
ATOM     10  O   LIG    1        4.114   0.114  -5.638  0.00  0.00    -0.370 OA
BRANCH  10  12
ATOM     11  C   LIG    1        3.751   0.304  -8.039  0.00  0.00    +0.040 C 
ATOM     12  C   LIG    1        3.200   0.620  -6.647  0.00  0.00    +0.180 C 
ENDBRANCH  10  12
ENDBRANCH   8  10
ENDBRANCH   2   8
ENDBRANCH   1   7
BRANCH   1  13
ATOM     13  S   LIG    1        2.712   0.921  -0.019  0.00  0.00    +2.600 S 
ATOM     14  O   LIG    1        2.456  -0.368   0.521  0.00  0.00    -1.020 OA
ATOM     15  O   LIG    1        3.678   1.812   0.521  0.00  0.00    -1.020 OA
BRANCH  13  16
ATOM     16  C   LIG    1        1.175   1.783   0.000  0.00  0.00    -0.610 A 
ATOM     17  C   LIG    1       -0.013   1.076   0.008  0.00  0.00    +0.160 A 
ATOM     18  C   LIG    1       -1.219   1.750   0.017  0.00  0.00    -0.020 A 
ATOM     19  C   LIG    1       -1.238   3.134   0.030  0.00  0.00    +0.140 A 
ATOM     20  C   LIG    1       -0.047   3.842   0.022  0.00  0.00    -0.100 A 
ATOM     21 CL   LIG    1       -0.068   5.578   0.032  0.00  0.00    -0.050 Cl
ATOM     22  F   LIG    1       -2.417   3.794   0.044  0.00  0.00    -0.130 F 
ATOM     23  C   LIG    1        1.159   3.165   0.007  0.00  0.00    +0.180 A 
ENDBRANCH  13  16
ENDBRANCH   1  13
TORSDOF 6
