REMARK  Name = ZINCpe00000KUttq.0
REMARK                            x       y       z     vdW  Elec       q    Type
REMARK                         _______ _______ _______ _____ _____    ______ ____
ROOT
ATOM      1  S   LIG    1        5.005  -4.606   3.697  0.00  0.00    +2.640 S 
ATOM      2  O   LIG    1        4.344  -5.780   3.244  0.00  0.00    -1.000 OA
ATOM      3  O   LIG    1        5.123  -4.260   5.070  0.00  0.00    -1.010 OA
ENDROOT
BRANCH   1   8
ATOM      4  C   LIG    1        9.020  -4.517   3.392  0.00  0.00    -0.160 A 
ATOM      5  C   LIG    1        9.225  -4.809   2.042  0.00  0.00    +0.090 A 
ATOM      6  C   LIG    1        8.144  -5.035   1.216  0.00  0.00    -0.010 A 
ATOM      7  C   LIG    1        6.857  -4.972   1.723  0.00  0.00    +0.080 A 
ATOM      8  C   LIG    1        6.647  -4.683   3.061  0.00  0.00    -0.630 A 
ATOM      9 CL   LIG    1        5.501  -5.258   0.677  0.00  0.00    -0.030 Cl
ATOM     10  C   LIG    1        7.719  -4.450   3.896  0.00  0.00    +0.200 A 
BRANCH   4  13
ATOM     11  C   LIG    1       12.522  -4.586   4.854  0.00  0.00    +0.290 C 
ATOM     12  N   LIG    1       11.410  -4.658   3.904  0.00  0.00    -0.620 N 
ATOM     13  C   LIG    1       10.174  -4.274   4.282  0.00  0.00    +0.560 C 
ATOM     14  O   LIG    1       10.009  -3.729   5.356  0.00  0.00    -0.520 OA
ATOM     15  C   LIG    1       11.640  -5.146   2.542  0.00  0.00    +0.290 C 
ENDBRANCH   4  13
ENDBRANCH   1   8
BRANCH   1  16
ATOM     16  N   LIG    1        4.253  -3.330   2.957  0.00  0.00    -1.110 NA
ATOM     17  C   LIG    1        2.972  -3.036   3.258  0.00  0.00    +0.530 C 
ATOM     18  O   LIG    1        2.371  -3.706   4.071  0.00  0.00    -0.630 OA
BRANCH  17  19
ATOM     19  C   LIG    1        2.287  -1.875   2.584  0.00  0.00    +0.020 C 
ATOM     20  C   LIG    1        0.829  -1.673   3.037  0.00  0.00    +0.100 C 
ATOM     21  C   LIG    1        0.507  -1.386   1.573  0.00  0.00    -0.150 C 
ATOM     22  C   LIG    1       -0.870  -1.660   0.981  0.00  0.00    +0.310 C 
ATOM     23  N   LIG    1       -1.158  -0.221   1.145  0.00  0.00    -0.530 N 
ATOM     24  H   LIG    1       -1.550   0.009   2.046  0.00  0.00    +0.440 HD
ATOM     25  H   LIG    1       -1.680   0.173   0.377  0.00  0.00    +0.420 HD
ATOM     26  C   LIG    1        0.294   0.031   1.057  0.00  0.00    +0.320 C 
ATOM     27  C   LIG    1        1.731  -2.212   1.188  0.00  0.00    +0.100 C 
ENDBRANCH  17  19
ENDBRANCH   1  16
TORSDOF 4
