REMARK  Name = ZINCrD00000hQ5ku.0
REMARK                            x       y       z     vdW  Elec       q    Type
REMARK                         _______ _______ _______ _____ _____    ______ ____
ROOT
ATOM      1  C   LIG    1        2.457   3.933   0.000  0.00  0.00    +0.260 C 
ATOM      2  C   LIG    1        3.094   3.908  -1.403  0.00  0.00    +0.090 C 
ATOM      3  C   LIG    1        4.419   3.211  -1.190  0.00  0.00    +0.140 C 
ATOM      4  N   LIG    1        4.543   2.894   0.052  0.00  0.00    -0.240 NA
ATOM      5  N   LIG    1        3.459   3.265   0.846  0.00  0.00    -0.460 N 
ATOM      6  C   LIG    1        3.347   3.048   2.171  0.00  0.00    +0.550 C 
ATOM      7  O   LIG    1        2.355   3.415   2.764  0.00  0.00    -0.520 OA
ATOM      8  C   LIG    1        4.455   2.348   2.916  0.00  0.00    +0.120 C 
ENDROOT
BRANCH   1  13
ATOM      9  C   LIG    1       -1.237   3.137   0.029  0.00  0.00    +0.130 A 
ATOM     10  C   LIG    1       -1.219   1.750   0.017  0.00  0.00    -0.070 A 
ATOM     11  C   LIG    1       -0.013   1.076   0.008  0.00  0.00    +0.060 A 
ATOM     12  C   LIG    1        1.175   1.783   0.000  0.00  0.00    -0.020 A 
ATOM     13  C   LIG    1        1.160   3.166   0.008  0.00  0.00    -0.050 A 
ATOM     14  C   LIG    1       -0.043   3.844   0.022  0.00  0.00    +0.020 A 
BRANCH   9  15
ATOM     15  O   LIG    1       -2.422   3.802   0.043  0.00  0.00    -0.290 OA
BRANCH  15  16
ATOM     16  C   LIG    1       -3.611   3.009   0.050  0.00  0.00    +0.290 C 
BRANCH  16  17
ATOM     17  C   LIG    1       -4.817   3.913   0.065  0.00  0.00    +0.460 C 
ATOM     18  O   LIG    1       -4.673   5.112   0.069  0.00  0.00    -0.480 OA
BRANCH  17  19
ATOM     19  O   LIG    1       -6.051   3.384   0.073  0.00  0.00    -0.350 OA
BRANCH  19  21
ATOM     20  C   LIG    1       -8.481   3.533   0.095  0.00  0.00    +0.070 C 
ATOM     21  C   LIG    1       -7.166   4.314   0.087  0.00  0.00    +0.200 C 
ENDBRANCH  19  21
ENDBRANCH  17  19
ENDBRANCH  16  17
ENDBRANCH  15  16
ENDBRANCH   9  15
ENDBRANCH   1  13
BRANCH   3  22
ATOM     22  C   LIG    1        5.415   2.936  -2.242  0.00  0.00    -0.040 A 
ATOM     23  C   LIG    1        5.168   3.324  -3.561  0.00  0.00    +0.040 A 
ATOM     24  C   LIG    1        6.106   3.067  -4.539  0.00  0.00    +0.010 A 
ATOM     25  C   LIG    1        7.286   2.420  -4.218  0.00  0.00    +0.030 A 
ATOM     26  C   LIG    1        7.536   2.029  -2.914  0.00  0.00    +0.010 A 
ATOM     27  C   LIG    1        6.608   2.283  -1.925  0.00  0.00    +0.050 A 
ENDBRANCH   3  22
TORSDOF 7
