REMARK  Name = ZINCrD00000F5LBA.0
REMARK                            x       y       z     vdW  Elec       q    Type
REMARK                         _______ _______ _______ _____ _____    ______ ____
ROOT
ATOM      1  N   LIG    1       -0.590   6.664   0.852  0.00  0.00    -0.700 N 
ATOM      2  H   LIG    1       -0.370   7.474   1.339  0.00  0.00    +0.410 HD
ENDROOT
BRANCH   1   3
ATOM      3  C   LIG    1       -0.549   5.437   1.494  0.00  0.00    +0.430 A 
ATOM      4  C   LIG    1       -0.863   4.265   0.803  0.00  0.00    -0.090 A 
ATOM      5  C   LIG    1       -0.806   3.066   1.487  0.00  0.00    +0.220 A 
ATOM      6  N   LIG    1       -0.465   3.068   2.768  0.00  0.00    -0.480 NA
ATOM      7  C   LIG    1       -0.169   4.192   3.390  0.00  0.00    -0.160 A 
ATOM      8  N   LIG    1       -0.210   5.357   2.777  0.00  0.00    -0.500 NA
BRANCH   7   9
ATOM      9  S   LIG    1        0.286   4.135   5.092  0.00  0.00    +2.520 S 
ATOM     10  O   LIG    1        1.091   5.290   5.278  0.00  0.00    -0.910 OA
ATOM     11  O   LIG    1        0.823   2.831   5.267  0.00  0.00    -0.900 OA
ATOM     12  C   LIG    1       -1.284   4.302   5.986  0.00  0.00    -0.230 C 
ENDBRANCH   7   9
BRANCH   5  13
ATOM     13  C   LIG    1       -1.136   1.773   0.788  0.00  0.00    +0.010 C 
ATOM     14  C   LIG    1       -0.013   1.086   0.008  0.00  0.00    +0.060 C 
ATOM     15  C   LIG    1       -1.150   1.781  -0.743  0.00  0.00    +0.040 C 
ENDBRANCH   5  13
ENDBRANCH   1   3
BRANCH   1  16
ATOM     16  C   LIG    1       -0.965   6.739  -0.562  0.00  0.00    +0.390 C 
BRANCH  16  19
ATOM     17  C   LIG    1       -1.532  10.212  -1.395  0.00  0.00    +0.250 A 
ATOM     18  N   LIG    1       -1.927   9.067  -0.891  0.00  0.00    -0.460 NA
ATOM     19  C   LIG    1       -0.932   8.176  -1.016  0.00  0.00    -0.040 A 
ATOM     20  C   LIG    1        0.099   8.792  -1.622  0.00  0.00    +0.180 A 
ATOM     21  O   LIG    1       -0.279  10.064  -1.859  0.00  0.00    -0.190 OA
BRANCH  17  26
ATOM     22  C   LIG    1       -4.647  15.045  -1.610  0.00  0.00    +0.100 C 
ATOM     23  C   LIG    1       -3.831  13.779  -1.553  0.00  0.00    -0.060 A 
ATOM     24  C   LIG    1       -2.548  13.764  -2.070  0.00  0.00    +0.010 A 
ATOM     25  C   LIG    1       -1.796  12.608  -2.022  0.00  0.00    +0.050 A 
ATOM     26  C   LIG    1       -2.332  11.453  -1.450  0.00  0.00    -0.030 A 
ATOM     27  C   LIG    1       -3.630  11.474  -0.936  0.00  0.00    +0.080 A 
ATOM     28  C   LIG    1       -4.369  12.638  -0.986  0.00  0.00    +0.010 A 
ENDBRANCH  17  26
ENDBRANCH  16  19
ENDBRANCH   1  16
TORSDOF 6
