REMARK  Name = ZINCqH0000002xQY.0
REMARK                            x       y       z     vdW  Elec       q    Type
REMARK                         _______ _______ _______ _____ _____    ______ ____
ROOT
ATOM      1  N   LIG    1       -0.698   1.558   1.213  0.00  0.00    -0.530 N 
ATOM      2  C   LIG    1       -0.344   2.741   1.768  0.00  0.00    +0.550 A 
ATOM      3  C   LIG    1       -1.066   3.171   2.973  0.00  0.00    -0.200 A 
ATOM      4  C   LIG    1       -0.776   4.375   3.612  0.00  0.00    +0.100 A 
ATOM      5  C   LIG    1       -1.478   4.729   4.743  0.00  0.00    -0.010 A 
ATOM      6  C   LIG    1       -2.471   3.899   5.248  0.00  0.00    +0.070 A 
ATOM      7  C   LIG    1       -2.773   2.706   4.633  0.00  0.00    +0.030 A 
ATOM      8  C   LIG    1       -2.075   2.323   3.484  0.00  0.00    +0.170 A 
ATOM      9  N   LIG    1       -2.342   1.158   2.848  0.00  0.00    -0.530 NA
ATOM     10  O   LIG    1        0.539   3.425   1.283  0.00  0.00    -0.500 OA
ATOM     11  C   LIG    1       -1.687   0.799   1.772  0.00  0.00    +0.360 A 
ENDROOT
BRANCH   1  12
ATOM     12  C   LIG    1       -0.013   1.086   0.008  0.00  0.00    +0.300 C 
BRANCH  12  13
ATOM     13  C   LIG    1       -0.753   1.593  -1.232  0.00  0.00    +0.000 C 
BRANCH  13  15
ATOM     14  C   LIG    1       -0.777   1.606  -3.730  0.00  0.00    +0.020 C 
ATOM     15  C   LIG    1       -0.037   1.099  -2.490  0.00  0.00    +0.020 C 
ENDBRANCH  13  15
ENDBRANCH  12  13
ENDBRANCH   1  12
BRANCH  11  16
ATOM     16  S   LIG    1       -2.100  -0.735   1.009  0.00  0.00    +0.070 S 
BRANCH  16  17
ATOM     17  C   LIG    1       -3.415  -1.294   2.121  0.00  0.00    +0.020 C 
ATOM     18  C   LIG    1       -2.831  -1.554   3.511  0.00  0.00    +0.090 C 
BRANCH  17  19
ATOM     19  C   LIG    1       -4.020  -2.565   1.584  0.00  0.00    +0.530 C 
ATOM     20  N   LIG    1       -5.284  -2.901   1.910  0.00  0.00    -0.720 N 
ATOM     21  H   LIG    1       -5.804  -2.324   2.490  0.00  0.00    +0.400 HD
ATOM     22  O   LIG    1       -3.369  -3.287   0.858  0.00  0.00    -0.520 OA
BRANCH  20  23
ATOM     23  C   LIG    1       -5.872  -4.137   1.388  0.00  0.00    +0.230 C 
ATOM     24  C   LIG    1       -6.511  -3.876   0.008  0.00  0.00    +0.000 C 
ATOM     25  C   LIG    1       -7.785  -4.758   0.008  0.00  0.00    +0.010 C 
ATOM     26  C   LIG    1       -8.292  -4.628   1.466  0.00  0.00    +0.010 C 
ATOM     27  C   LIG    1       -7.003  -4.615   2.314  0.00  0.00    +0.020 C 
ENDBRANCH  20  23
ENDBRANCH  17  19
ENDBRANCH  16  17
ENDBRANCH  11  16
TORSDOF 7
