REMARK  Name = ZINCrH000004mdp8.0
REMARK                            x       y       z     vdW  Elec       q    Type
REMARK                         _______ _______ _______ _____ _____    ______ ____
ROOT
ATOM      1  N   LIG    1       -7.032   4.346   0.837  0.00  0.00    -0.670 N 
ATOM      2  H   LIG    1       -7.059   4.306  -0.132  0.00  0.00    +0.410 HD
ATOM      3  C   LIG    1       -5.974   3.845   1.504  0.00  0.00    +0.570 C 
ATOM      4  O   LIG    1       -5.895   3.982   2.710  0.00  0.00    -0.500 OA
ENDROOT
BRANCH   3   5
ATOM      5  C   LIG    1       -4.911   3.130   0.771  0.00  0.00    -0.120 A 
ATOM      6  C   LIG    1       -5.001   2.973  -0.614  0.00  0.00    +0.080 A 
ATOM      7  C   LIG    1       -4.008   2.304  -1.299  0.00  0.00    -0.040 A 
ATOM      8  C   LIG    1       -2.918   1.788  -0.610  0.00  0.00    +0.110 A 
ATOM      9  O   LIG    1       -1.934   1.126  -1.282  0.00  0.00    -0.310 OA
ATOM     10  C   LIG    1       -0.665   1.781  -1.336  0.00  0.00    +0.230 C 
ATOM     11  C   LIG    1        0.148   1.486  -0.085  0.00  0.00    +0.000 C 
ATOM     12  C   LIG    1       -0.494   2.059   1.168  0.00  0.00    +0.230 C 
ATOM     13  O   LIG    1       -1.747   1.428   1.431  0.00  0.00    -0.310 OA
ATOM     14  C   LIG    1       -2.824   1.942   0.768  0.00  0.00    +0.070 A 
ATOM     15 CL   LIG    1       -4.119   2.108  -3.021  0.00  0.00    -0.030 Cl
ATOM     16  C   LIG    1       -3.812   2.610   1.462  0.00  0.00    +0.110 A 
ENDBRANCH   3   5
BRANCH   1  19
ATOM     17  C   LIG    1       -9.843   6.567   1.690  0.00  0.00    +0.170 A 
ATOM     18  C   LIG    1       -8.792   5.992   0.992  0.00  0.00    -0.120 A 
ATOM     19  C   LIG    1       -8.094   4.927   1.543  0.00  0.00    +0.220 A 
ATOM     20  C   LIG    1       -8.451   4.432   2.790  0.00  0.00    -0.080 A 
ATOM     21  C   LIG    1       -9.498   5.008   3.491  0.00  0.00    +0.170 A 
ATOM     22  C   LIG    1      -10.197   6.076   2.941  0.00  0.00    +0.020 A 
BRANCH  17  24
ATOM     23  C   LIG    1      -10.109   8.064  -0.139  0.00  0.00    +0.240 C 
ATOM     24  O   LIG    1      -10.527   7.611   1.150  0.00  0.00    -0.300 OA
ENDBRANCH  17  24
BRANCH  21  25
ATOM     25  O   LIG    1       -9.844   4.527   4.715  0.00  0.00    -0.300 OA
ATOM     26  C   LIG    1       -9.082   3.428   5.219  0.00  0.00    +0.240 C 
ENDBRANCH  21  25
BRANCH  22  27
ATOM     27  O   LIG    1      -11.230   6.640   3.627  0.00  0.00    -0.310 OA
ATOM     28  C   LIG    1      -12.532   6.094   3.404  0.00  0.00    +0.200 C 
ENDBRANCH  22  27
ENDBRANCH   1  19
TORSDOF 5
