REMARK  Name = ZINCvU0000000C0a.0
REMARK                            x       y       z     vdW  Elec       q    Type
REMARK                         _______ _______ _______ _____ _____    ______ ____
ROOT
ATOM      1  C   LIG    1        3.577  -6.019  -1.720  0.00  0.00    +0.230 A 
ATOM      2  N   LIG    1        3.339  -5.774  -0.453  0.00  0.00    -0.250 NA
ATOM      3  N   LIG    1        2.789  -4.620  -0.324  0.00  0.00    -0.280 NA
ATOM      4  C   LIG    1        2.641  -4.057  -1.503  0.00  0.00    +0.160 A 
ATOM      5  N   LIG    1        3.132  -4.929  -2.432  0.00  0.00    -0.450 N 
ENDROOT
BRANCH   1  12
ATOM      6  F   LIG    1        4.774  -7.984  -0.089  0.00  0.00    -0.110 F 
ATOM      7  C   LIG    1        4.779  -8.183  -1.426  0.00  0.00    +0.150 A 
ATOM      8  C   LIG    1        5.359  -9.320  -1.955  0.00  0.00    +0.000 A 
ATOM      9  C   LIG    1        5.365  -9.524  -3.323  0.00  0.00    +0.070 A 
ATOM     10  C   LIG    1        4.791  -8.593  -4.170  0.00  0.00    +0.020 A 
ATOM     11  C   LIG    1        4.204  -7.455  -3.656  0.00  0.00    +0.040 A 
ATOM     12  C   LIG    1        4.199  -7.239  -2.277  0.00  0.00    -0.050 A 
ENDBRANCH   1  12
BRANCH   4  13
ATOM     13  S   LIG    1        1.936  -2.474  -1.824  0.00  0.00    +0.050 S 
BRANCH  13  14
ATOM     14  C   LIG    1        1.533  -1.961  -0.136  0.00  0.00    +0.240 C 
BRANCH  14  15
ATOM     15  C   LIG    1        0.899  -0.594  -0.164  0.00  0.00    +0.190 A 
ATOM     16  N   LIG    1        1.525   0.544  -0.087  0.00  0.00    -0.350 NA
ATOM     17  O   LIG    1        0.740   1.466  -0.138  0.00  0.00    +0.110 OA
ATOM     18  C   LIG    1       -0.511   0.989  -0.257  0.00  0.00    +0.260 A 
ATOM     19  N   LIG    1       -0.411  -0.332  -0.274  0.00  0.00    -0.450 NA
BRANCH  18  20
ATOM     20  C   LIG    1       -1.746   1.778  -0.355  0.00  0.00    +0.020 A 
ATOM     21  C   LIG    1       -1.831   3.139  -0.335  0.00  0.00    +0.050 A 
ATOM     22  C   LIG    1       -3.194   3.461  -0.455  0.00  0.00    -0.060 A 
ATOM     23  C   LIG    1       -3.870   2.296  -0.540  0.00  0.00    +0.230 A 
ATOM     24  O   LIG    1       -2.993   1.283  -0.485  0.00  0.00    -0.150 OA
ENDBRANCH  18  20
ENDBRANCH  14  15
ENDBRANCH  13  14
ENDBRANCH   4  13
BRANCH   5  25
ATOM     25  C   LIG    1        3.177  -4.742  -3.885  0.00  0.00    +0.360 C 
BRANCH  25  26
ATOM     26  C   LIG    1        1.849  -5.129  -4.483  0.00  0.00    -0.130 A 
ATOM     27  C   LIG    1        1.573  -6.456  -4.751  0.00  0.00    +0.020 A 
ATOM     28  C   LIG    1        0.352  -6.812  -5.296  0.00  0.00    +0.010 A 
ATOM     29  C   LIG    1       -0.587  -5.838  -5.581  0.00  0.00    +0.030 A 
ATOM     30  C   LIG    1       -0.308  -4.510  -5.318  0.00  0.00    +0.010 A 
ATOM     31  C   LIG    1        0.910  -4.156  -4.769  0.00  0.00    +0.040 A 
ENDBRANCH  25  26
ENDBRANCH   5  25
TORSDOF 7
