REMARK  Name = ZINCvU0000000Jk8.0
REMARK                            x       y       z     vdW  Elec       q    Type
REMARK                         _______ _______ _______ _____ _____    ______ ____
ROOT
ATOM      1  O   LIG    1       -6.177   3.599  -1.255  0.00  0.00    -0.520 OA
ATOM      2  C   LIG    1       -5.734   3.439  -2.373  0.00  0.00    +0.530 C 
ATOM      3  N   LIG    1       -4.584   2.759  -2.550  0.00  0.00    -0.720 N 
ATOM      4  H   LIG    1       -4.230   2.631  -3.444  0.00  0.00    +0.400 HD
ENDROOT
BRANCH   3   5
ATOM      5  C   LIG    1       -3.868   2.215  -1.394  0.00  0.00    +0.320 C 
BRANCH   5   6
ATOM      6  C   LIG    1       -2.623   1.506  -1.861  0.00  0.00    -0.130 A 
ATOM      7  C   LIG    1       -1.435   2.203  -1.977  0.00  0.00    +0.050 A 
ATOM      8  C   LIG    1       -0.292   1.557  -2.405  0.00  0.00    +0.020 A 
ATOM      9  C   LIG    1       -0.338   0.205  -2.720  0.00  0.00    +0.150 A 
ATOM     10  C   LIG    1       -1.534  -0.491  -2.607  0.00  0.00    -0.020 A 
ATOM     11  C   LIG    1       -2.672   0.160  -2.173  0.00  0.00    +0.050 A 
BRANCH   9  12
ATOM     12  N   LIG    1        0.818  -0.453  -3.154  0.00  0.00    -0.670 N 
ATOM     13  H   LIG    1        0.755  -1.158  -3.817  0.00  0.00    +0.410 HD
ATOM     14  C   LIG    1        2.019  -0.112  -2.646  0.00  0.00    +0.540 C 
ATOM     15  O   LIG    1        2.110   0.825  -1.881  0.00  0.00    -0.520 OA
BRANCH  14  16
ATOM     16  C   LIG    1        3.249  -0.895  -3.028  0.00  0.00    -0.070 C 
ATOM     17  C   LIG    1        3.908  -1.750  -1.944  0.00  0.00    +0.060 C 
ATOM     18  C   LIG    1        4.582  -0.459  -2.417  0.00  0.00    +0.080 C 
ENDBRANCH  14  16
ENDBRANCH   9  12
ENDBRANCH   5   6
ENDBRANCH   3   5
BRANCH   2  19
ATOM     19  C   LIG    1       -6.470   3.998  -3.563  0.00  0.00    +0.080 C 
BRANCH  19  20
ATOM     20  S   LIG    1       -7.969   4.852  -3.000  0.00  0.00    -0.150 S 
BRANCH  20  21
ATOM     21  C   LIG    1       -8.705   5.446  -4.548  0.00  0.00    +0.110 C 
BRANCH  21  22
ATOM     22  C   LIG    1       -9.913   6.293  -4.237  0.00  0.00    -0.060 A 
ATOM     23  C   LIG    1      -10.902   5.805  -3.404  0.00  0.00    +0.030 A 
ATOM     24  C   LIG    1      -12.008   6.584  -3.115  0.00  0.00    +0.000 A 
ATOM     25  C   LIG    1      -12.128   7.845  -3.667  0.00  0.00    +0.010 A 
ATOM     26  C   LIG    1      -11.141   8.330  -4.504  0.00  0.00    +0.000 A 
ATOM     27  C   LIG    1      -10.033   7.554  -4.789  0.00  0.00    +0.020 A 
ENDBRANCH  21  22
BRANCH  21  28
ATOM     28  C   LIG    1       -9.121   4.269  -5.391  0.00  0.00    -0.090 A 
ATOM     29  C   LIG    1       -9.907   3.271  -4.845  0.00  0.00    +0.030 A 
ATOM     30  C   LIG    1      -10.293   2.193  -5.620  0.00  0.00    +0.000 A 
ATOM     31  C   LIG    1       -9.883   2.107  -6.938  0.00  0.00    +0.000 A 
ATOM     32  C   LIG    1       -9.092   3.102  -7.482  0.00  0.00    +0.000 A 
ATOM     33  C   LIG    1       -8.711   4.183  -6.708  0.00  0.00    +0.010 A 
ENDBRANCH  21  28
ENDBRANCH  20  21
ENDBRANCH  19  20
ENDBRANCH   2  19
TORSDOF 9
