REMARK  Name = ZINC5a0000002hjW.0
REMARK                            x       y       z     vdW  Elec       q    Type
REMARK                         _______ _______ _______ _____ _____    ______ ____
ROOT
ATOM      1  C   LIG    1        1.267   1.772  -0.001  0.00  0.00    +0.140 A 
ATOM      2  C   LIG    1       -0.017   1.365   0.009  0.00  0.00    +0.120 A 
ATOM      3  N   LIG    1        0.002  -0.004   0.002  0.00  0.00    -0.570 N 
ATOM      4  H   LIG    1       -0.771  -0.590   0.006  0.00  0.00    +0.420 HD
ATOM      5  C   LIG    1        1.297  -0.386  -0.012  0.00  0.00    +0.390 A 
ATOM      6  N   LIG    1        2.048   0.681  -0.014  0.00  0.00    -0.500 NA
ENDROOT
TORSDOF 0
