REMARK  Name = ZINC5a0000002hjW.1
REMARK                            x       y       z     vdW  Elec       q    Type
REMARK                         _______ _______ _______ _____ _____    ______ ____
ROOT
ATOM      1  C   LIG    1       -0.013   1.076   0.008  0.00  0.00    +0.250 C 
ATOM      2  C   LIG    1        1.062   1.889   0.002  0.00  0.00    +0.250 C 
ATOM      3  N   LIG    1        0.606   3.159   0.012  0.00  0.00    -0.490 N 
ATOM      4  C   LIG    1       -0.717   3.124   0.024  0.00  0.00    +0.560 C 
ATOM      5  H   LIG    1        1.154   3.960   0.012  0.00  0.00    +0.470 HD
ATOM      6  N   LIG    1       -1.110   1.860   0.017  0.00  0.00    -0.490 N 
ATOM      7  H   LIG    1       -2.030   1.551   0.019  0.00  0.00    +0.470 HD
ENDROOT
TORSDOF 0
