REMARK  Name = ZINCrD00000hQ6PA.0
REMARK                            x       y       z     vdW  Elec       q    Type
REMARK                         _______ _______ _______ _____ _____    ______ ____
ROOT
ATOM      1  C   LIG    1       -0.473   2.573  -0.351  0.00  0.00    +0.280 C 
ATOM      2  N   LIG    1       -0.787   1.177  -0.668  0.00  0.00    -0.620 N 
ATOM      3  C   LIG    1        0.179   0.240  -0.614  0.00  0.00    +0.710 C 
ATOM      4  N   LIG    1        1.437   0.587  -0.275  0.00  0.00    -0.680 N 
ATOM      5  H   LIG    1        1.661   1.520  -0.135  0.00  0.00    +0.410 HD
ATOM      6  O   LIG    1       -0.081  -0.918  -0.876  0.00  0.00    -0.560 OA
ENDROOT
BRANCH   4   7
ATOM      7  C   LIG    1        2.419  -0.399  -0.124  0.00  0.00    +0.190 A 
ATOM      8  C   LIG    1        2.085  -1.625   0.446  0.00  0.00    +0.010 A 
ATOM      9  C   LIG    1        3.034  -2.597   0.599  0.00  0.00    +0.080 A 
ATOM     10  C   LIG    1        4.343  -2.359   0.183  0.00  0.00    -0.140 A 
ATOM     11  C   LIG    1        5.581  -3.149   0.192  0.00  0.00    -0.050 A 
ATOM     12  C   LIG    1        6.525  -2.369  -0.350  0.00  0.00    +0.210 A 
ATOM     13  O   LIG    1        6.002  -1.178  -0.694  0.00  0.00    -0.200 OA
ATOM     14  C   LIG    1        4.689  -1.125  -0.393  0.00  0.00    +0.070 A 
ATOM     15  C   LIG    1        3.714  -0.149  -0.547  0.00  0.00    -0.010 A 
ENDBRANCH   4   7
BRANCH   2  16
ATOM     16  C   LIG    1       -2.153   0.801  -1.042  0.00  0.00    +0.300 C 
BRANCH  16  17
ATOM     17  C   LIG    1       -2.984   0.572   0.222  0.00  0.00    +0.170 C 
ATOM     18  C   LIG    1       -2.438  -0.646   0.996  0.00  0.00    +0.030 C 
ATOM     19  C   LIG    1       -3.727  -1.334   1.518  0.00  0.00    +0.180 C 
ATOM     20  C   LIG    1       -4.710  -1.087   0.347  0.00  0.00    +0.210 C 
ATOM     21  F   LIG    1       -3.519  -2.704   1.717  0.00  0.00    -0.200 F 
ATOM     22  N   LIG    1       -4.380   0.268  -0.144  0.00  0.00    -0.470 N 
BRANCH  22  23
ATOM     23  C   LIG    1       -4.565   0.359  -1.514  0.00  0.00    +0.330 A 
ATOM     24  C   LIG    1       -5.167   1.487  -2.074  0.00  0.00    -0.050 A 
ATOM     25  C   LIG    1       -5.329   1.531  -3.445  0.00  0.00    +0.320 A 
ATOM     26  N   LIG    1       -4.912   0.508  -4.178  0.00  0.00    -0.520 NA
ATOM     27  C   LIG    1       -4.347  -0.543  -3.619  0.00  0.00    +0.510 A 
ATOM     28  N   LIG    1       -4.168  -0.624  -2.316  0.00  0.00    -0.540 NA
ENDBRANCH  22  23
ENDBRANCH  16  17
ENDBRANCH   2  16
TORSDOF 4
