REMARK  Name = ZINCkj000018RCbC.0
REMARK                            x       y       z     vdW  Elec       q    Type
REMARK                         _______ _______ _______ _____ _____    ______ ____
ROOT
ATOM      1  C   LIG    1        3.712  -0.718  -0.037  0.00  0.00    +0.370 C 
ENDROOT
BRANCH   1   2
ATOM      2  C   LIG    1        2.392   0.010  -0.021  0.00  0.00    +0.140 A 
ATOM      3  C   LIG    1        1.234  -0.689  -0.013  0.00  0.00    -0.040 A 
ATOM      4  C   LIG    1        0.002  -0.004   0.002  0.00  0.00    +0.560 A 
ATOM      5  N   LIG    1       -0.016   1.343   0.009  0.00  0.00    -0.360 N 
ATOM      6  N   LIG    1       -1.065   2.271   0.030  0.00  0.00    -0.240 NA
ATOM      7  C   LIG    1       -0.551   3.476   0.026  0.00  0.00    +0.310 A 
ATOM      8  C   LIG    1        0.841   3.368   0.012  0.00  0.00    -0.080 A 
ATOM      9  C   LIG    1        1.156   2.042   0.002  0.00  0.00    +0.280 A 
ATOM     10  O   LIG    1       -1.044  -0.629   0.008  0.00  0.00    -0.460 OA
ATOM     11  N   LIG    1        2.365   1.372  -0.013  0.00  0.00    -0.610 N 
ATOM     12  H   LIG    1        3.196   1.873  -0.018  0.00  0.00    +0.430 HD
ENDBRANCH   1   2
BRANCH   1  13
ATOM     13  N   LIG    1        4.411  -0.435  -1.297  0.00  0.00    -0.510 N 
ATOM     14  H   LIG    1        4.574   0.557  -1.377  0.00  0.00    +0.420 HD
ATOM     15  H   LIG    1        3.846  -0.747  -2.073  0.00  0.00    +0.440 HD
BRANCH  13  21
ATOM     16  C   LIG    1        6.370  -0.952  -2.674  0.00  0.00    +0.140 C 
ATOM     17  C   LIG    1        7.709  -1.691  -2.690  0.00  0.00    +0.070 C 
ATOM     18  C   LIG    1        8.614  -1.131  -1.591  0.00  0.00    +0.020 C 
ATOM     19  C   LIG    1        7.942  -1.324  -0.230  0.00  0.00    +0.050 C 
ATOM     20  C   LIG    1        6.602  -0.585  -0.213  0.00  0.00    +0.040 C 
ATOM     21  C   LIG    1        5.698  -1.145  -1.313  0.00  0.00    +0.190 C 
BRANCH  16  23
ATOM     22  C   LIG    1        6.780   1.627  -3.098  0.00  0.00    +0.100 C 
ATOM     23  C   LIG    1        6.598   0.483  -2.910  0.00  0.00    -0.250 C 
ENDBRANCH  16  23
ENDBRANCH  13  21
ENDBRANCH   1  13
TORSDOF 4
