REMARK  Name = ZINCpk00000FcoQB.1
REMARK                            x       y       z     vdW  Elec       q    Type
REMARK                         _______ _______ _______ _____ _____    ______ ____
ROOT
ATOM      1  C   LIG    1       -0.798   1.988  -1.120  0.00  0.00    +0.240 C 
ATOM      2  C   LIG    1       -0.179   1.717  -2.492  0.00  0.00    +0.030 C 
ENDROOT
BRANCH   1   3
ATOM      3  C   LIG    1       -1.004   3.471  -0.946  0.00  0.00    +0.450 A 
ATOM      4  N   LIG    1       -0.501   4.044   0.112  0.00  0.00    -0.560 NA
ATOM      5  C   LIG    1       -0.638   5.365   0.335  0.00  0.00    +0.530 A 
ATOM      6  C   LIG    1       -1.391   6.160  -0.651  0.00  0.00    -0.210 A 
ATOM      7  C   LIG    1       -1.590   7.530  -0.501  0.00  0.00    +0.110 A 
ATOM      8  C   LIG    1       -2.303   8.221  -1.458  0.00  0.00    -0.010 A 
ATOM      9  C   LIG    1       -2.821   7.561  -2.562  0.00  0.00    +0.080 A 
ATOM     10  C   LIG    1       -2.633   6.204  -2.724  0.00  0.00    -0.020 A 
ATOM     11  C   LIG    1       -1.917   5.491  -1.772  0.00  0.00    +0.180 A 
ATOM     12  O   LIG    1       -0.159   5.887   1.327  0.00  0.00    -0.470 OA
ATOM     13  N   LIG    1       -1.701   4.132  -1.886  0.00  0.00    -0.630 N 
ATOM     14  H   LIG    1       -2.054   3.651  -2.651  0.00  0.00    +0.420 HD
ENDBRANCH   1   3
BRANCH   1  17
ATOM     15  C   LIG    1        2.350   1.527   0.896  0.00  0.00    +0.300 C 
ATOM     16  C   LIG    1        1.462   2.019  -0.250  0.00  0.00    +0.180 C 
ATOM     17  N   LIG    1        0.102   1.492  -0.070  0.00  0.00    -0.500 NA
ATOM     18  C   LIG    1        0.113   0.022  -0.037  0.00  0.00    +0.150 C 
ATOM     19  C   LIG    1        1.015  -0.450   1.107  0.00  0.00    +0.250 C 
ATOM     20  O   LIG    1        2.324   0.097   0.932  0.00  0.00    -0.370 OA
BRANCH  15  24
ATOM     21  C   LIG    1        6.586   4.150   1.401  0.00  0.00    +0.190 C 
ATOM     22  C   LIG    1        5.587   3.138   0.903  0.00  0.00    +0.290 A 
ATOM     23  N   LIG    1        4.363   2.986   1.341  0.00  0.00    -0.530 NA
ATOM     24  C   LIG    1        3.765   1.999   0.676  0.00  0.00    +0.240 A 
ATOM     25  N   LIG    1        4.605   1.502  -0.194  0.00  0.00    -0.290 NA
ATOM     26  N   LIG    1        5.798   2.232  -0.068  0.00  0.00    -0.480 N 
ATOM     27  H   LIG    1        6.613   2.106  -0.578  0.00  0.00    +0.440 HD
ENDBRANCH  15  24
ENDBRANCH   1  17
TORSDOF 3
