REMARK  Name = ZINCpk00000FcoQB.0
REMARK                            x       y       z     vdW  Elec       q    Type
REMARK                         _______ _______ _______ _____ _____    ______ ____
ROOT
ATOM      1  C   LIG    1        4.856   1.144  -0.036  0.00  0.00    +0.240 C 
ATOM      2  C   LIG    1        3.472   1.774  -0.206  0.00  0.00    +0.080 C 
ENDROOT
BRANCH   1   3
ATOM      3  C   LIG    1        4.936   0.461   1.305  0.00  0.00    +0.410 A 
ATOM      4  N   LIG    1        5.921   0.774   2.100  0.00  0.00    -0.580 NA
ATOM      5  C   LIG    1        6.060   0.207   3.314  0.00  0.00    +0.530 A 
ATOM      6  C   LIG    1        5.059  -0.791   3.732  0.00  0.00    -0.210 A 
ATOM      7  C   LIG    1        5.122  -1.429   4.968  0.00  0.00    +0.110 A 
ATOM      8  C   LIG    1        4.157  -2.354   5.303  0.00  0.00    -0.010 A 
ATOM      9  C   LIG    1        3.126  -2.647   4.421  0.00  0.00    +0.080 A 
ATOM     10  C   LIG    1        3.054  -2.026   3.191  0.00  0.00    -0.020 A 
ATOM     11  C   LIG    1        4.017  -1.092   2.836  0.00  0.00    +0.170 A 
ATOM     12  O   LIG    1        6.987   0.510   4.045  0.00  0.00    -0.470 OA
ATOM     13  N   LIG    1        3.988  -0.439   1.619  0.00  0.00    -0.620 N 
ATOM     14  H   LIG    1        3.278  -0.631   0.987  0.00  0.00    +0.420 HD
ENDBRANCH   1   3
BRANCH   1  17
ATOM     15  C   LIG    1        8.269   2.727  -0.226  0.00  0.00    +0.270 C 
ATOM     16  C   LIG    1        7.233   1.609  -0.083  0.00  0.00    +0.200 C 
ATOM     17  N   LIG    1        5.883   2.191  -0.114  0.00  0.00    -0.500 NA
ATOM     18  C   LIG    1        5.716   3.175   0.965  0.00  0.00    +0.160 C 
ATOM     19  C   LIG    1        6.767   4.278   0.811  0.00  0.00    +0.230 C 
ATOM     20  O   LIG    1        8.071   3.690   0.812  0.00  0.00    -0.360 OA
BRANCH  15  25
ATOM     21  C   LIG    1       13.067   1.448  -1.154  0.00  0.00    +0.200 C 
ATOM     22  C   LIG    1       11.711   1.597  -0.514  0.00  0.00    +0.180 A 
ATOM     23  N   LIG    1       11.336   1.096   0.631  0.00  0.00    -0.290 NA
ATOM     24  N   LIG    1       10.116   1.426   0.869  0.00  0.00    -0.250 NA
ATOM     25  C   LIG    1        9.655   2.146  -0.117  0.00  0.00    +0.180 A 
ATOM     26  N   LIG    1       10.655   2.278  -1.022  0.00  0.00    -0.580 N 
ATOM     27  H   LIG    1       10.621   2.762  -1.862  0.00  0.00    +0.430 HD
ENDBRANCH  15  25
ENDBRANCH   1  17
TORSDOF 3
