REMARK  Name = ZINCvU0000000FTc.0
REMARK                            x       y       z     vdW  Elec       q    Type
REMARK                         _______ _______ _______ _____ _____    ______ ____
ROOT
ATOM      1  C   LIG    1        3.121   5.181  -0.001  0.00  0.00    +0.280 C 
ATOM      2  C   LIG    1        3.197   3.642  -0.009  0.00  0.00    +0.120 C 
ATOM      3  C   LIG    1        1.749   3.205   0.002  0.00  0.00    +0.180 C 
ATOM      4  N   LIG    1        0.986   4.246   0.009  0.00  0.00    -0.190 NA
ATOM      5  N   LIG    1        1.675   5.457   0.014  0.00  0.00    -0.850 N 
ENDROOT
BRANCH   1  13
ATOM      6  C   LIG    1        7.233   7.477   4.531  0.00  0.00    +0.110 C 
ATOM      7  C   LIG    1        5.742   7.261   4.554  0.00  0.00    -0.060 A 
ATOM      8  C   LIG    1        5.025   7.566   5.670  0.00  0.00    +0.040 A 
ATOM      9  C   LIG    1        3.646   7.373   5.714  0.00  0.00    +0.030 A 
ATOM     10  C   LIG    1        2.976   6.875   4.638  0.00  0.00    +0.030 A 
ATOM     11  C   LIG    1        3.683   6.550   3.470  0.00  0.00    -0.090 A 
ATOM     12  C   LIG    1        3.028   6.032   2.337  0.00  0.00    +0.110 A 
ATOM     13  C   LIG    1        3.779   5.738   1.235  0.00  0.00    -0.140 A 
ATOM     14  C   LIG    1        5.158   5.947   1.257  0.00  0.00    +0.220 A 
ATOM     15  N   LIG    1        5.764   6.436   2.314  0.00  0.00    -0.450 NA
ATOM     16 CL   LIG    1        6.095   5.560  -0.152  0.00  0.00    -0.020 Cl
ATOM     17  C   LIG    1        5.086   6.744   3.423  0.00  0.00    +0.150 A 
ENDBRANCH   1  13
BRANCH   3  18
ATOM     18  C   LIG    1        1.284   1.814  -0.001  0.00  0.00    +0.020 A 
ATOM     19  C   LIG    1       -0.017   1.404   0.010  0.00  0.00    +0.020 A 
ATOM     20  C   LIG    1        0.002  -0.004   0.002  0.00  0.00    -0.060 A 
ATOM     21  C   LIG    1        1.296  -0.383  -0.012  0.00  0.00    +0.200 A 
ATOM     22  O   LIG    1        2.067   0.717  -0.014  0.00  0.00    -0.160 OA
ENDBRANCH   3  18
BRANCH   5  23
ATOM     23  S   LIG    1        0.982   6.960   0.027  0.00  0.00    +2.700 S 
ATOM     24  O   LIG    1        1.991   7.864   0.455  0.00  0.00    -0.930 OA
ATOM     25  O   LIG    1       -0.268   6.820   0.690  0.00  0.00    -0.920 OA
BRANCH  23  26
ATOM     26  C   LIG    1        0.614   7.380  -1.644  0.00  0.00    -0.680 A 
ATOM     27  C   LIG    1        1.549   8.050  -2.410  0.00  0.00    +0.120 A 
ATOM     28  C   LIG    1        1.262   8.375  -3.723  0.00  0.00    +0.000 A 
ATOM     29  C   LIG    1        0.036   8.039  -4.266  0.00  0.00    +0.070 A 
ATOM     30  C   LIG    1       -0.901   7.373  -3.498  0.00  0.00    +0.000 A 
ATOM     31  C   LIG    1       -0.612   7.044  -2.187  0.00  0.00    +0.130 A 
ENDBRANCH  23  26
ENDBRANCH   5  23
TORSDOF 4
