REMARK  Name = ZINCrH000004tr3s.0
REMARK                            x       y       z     vdW  Elec       q    Type
REMARK                         _______ _______ _______ _____ _____    ______ ____
ROOT
ATOM      1  C   LIG    1        7.903  -2.830  -0.199  0.00  0.00    +0.560 C 
ATOM      2  N   LIG    1        6.560  -2.810  -0.083  0.00  0.00    -0.670 N 
ATOM      3  H   LIG    1        6.066  -3.642  -0.014  0.00  0.00    +0.410 HD
ATOM      4  O   LIG    1        8.529  -1.788  -0.200  0.00  0.00    -0.520 OA
ENDROOT
BRANCH   2   5
ATOM      5  C   LIG    1        5.878  -1.587  -0.059  0.00  0.00    +0.120 A 
ATOM      6  C   LIG    1        6.453  -0.484   0.550  0.00  0.00    +0.090 A 
ATOM      7  C   LIG    1        5.769   0.727   0.569  0.00  0.00    -0.100 A 
ATOM      8  C   LIG    1        4.504   0.835  -0.024  0.00  0.00    +0.070 A 
ATOM      9  O   LIG    1        4.063   2.103   0.133  0.00  0.00    -0.200 OA
ATOM     10  C   LIG    1        4.961   2.861   0.801  0.00  0.00    +0.080 A 
ATOM     11  C   LIG    1        4.953   4.195   1.193  0.00  0.00    +0.020 A 
ATOM     12  C   LIG    1        6.027   4.720   1.880  0.00  0.00    +0.060 A 
ATOM     13  C   LIG    1        7.123   3.930   2.187  0.00  0.00    -0.010 A 
ATOM     14  C   LIG    1        7.149   2.604   1.807  0.00  0.00    +0.070 A 
ATOM     15  C   LIG    1        3.941  -0.281  -0.632  0.00  0.00    +0.050 A 
ATOM     16  C   LIG    1        6.071   2.064   1.114  0.00  0.00    -0.120 A 
ATOM     17  C   LIG    1        4.622  -1.479  -0.649  0.00  0.00    +0.040 A 
ENDBRANCH   2   5
BRANCH   1  21
ATOM     18  C   LIG    1        9.945  -6.535  -0.564  0.00  0.00    +0.160 A 
ATOM     19  C   LIG    1       10.663  -5.345  -0.566  0.00  0.00    -0.010 A 
ATOM     20  C   LIG    1       10.005  -4.141  -0.448  0.00  0.00    +0.140 A 
ATOM     21  C   LIG    1        8.613  -4.118  -0.327  0.00  0.00    -0.180 A 
ATOM     22  C   LIG    1        7.895  -5.317  -0.320  0.00  0.00    +0.090 A 
ATOM     23  C   LIG    1        8.561  -6.516  -0.444  0.00  0.00    -0.080 A 
BRANCH  18  24
ATOM     24  O   LIG    1       10.598  -7.719  -0.681  0.00  0.00    -0.280 OA
BRANCH  24  25
ATOM     25  C   LIG    1        9.800  -8.904  -0.672  0.00  0.00    +0.240 C 
BRANCH  25  29
ATOM     26  N   LIG    1       10.153 -11.347  -0.827  0.00  0.00    -0.850 N 
ATOM     27  H   LIG    1       10.726 -12.124  -0.916  0.00  0.00    +0.410 HD
ATOM     28  H   LIG    1        9.193 -11.460  -0.750  0.00  0.00    +0.400 HD
ATOM     29  C   LIG    1       10.691 -10.111  -0.810  0.00  0.00    +0.520 C 
ATOM     30  O   LIG    1       11.891  -9.971  -0.907  0.00  0.00    -0.510 OA
ENDBRANCH  25  29
ENDBRANCH  24  25
ENDBRANCH  18  24
ENDBRANCH   1  21
TORSDOF 5
