REMARK  Name = ZINCrH00000No4Dy.0
REMARK                            x       y       z     vdW  Elec       q    Type
REMARK                         _______ _______ _______ _____ _____    ______ ____
ROOT
ATOM      1  N   LIG    1        2.910   1.136  -1.401  0.00  0.00    -0.580 N 
ENDROOT
BRANCH   1  10
ATOM      2  C   LIG    1        5.090   2.930  -5.412  0.00  0.00    +0.160 C 
ATOM      3  C   LIG    1        4.623   3.075  -3.986  0.00  0.00    +0.260 A 
ATOM      4  N   LIG    1        4.830   4.204  -3.340  0.00  0.00    -0.520 NA
ATOM      5  C   LIG    1        4.429   4.362  -2.078  0.00  0.00    +0.370 A 
ATOM      6  C   LIG    1        4.524   5.441  -1.178  0.00  0.00    -0.210 A 
ATOM      7  C   LIG    1        3.920   5.027   0.024  0.00  0.00    +0.370 A 
ATOM      8  N   LIG    1        3.491   3.802  -0.122  0.00  0.00    -0.320 NA
ATOM      9  N   LIG    1        3.788   3.353  -1.413  0.00  0.00    -0.340 N 
ATOM     10  C   LIG    1        3.554   2.165  -2.051  0.00  0.00    +0.500 A 
ATOM     11  C   LIG    1        3.980   2.014  -3.356  0.00  0.00    -0.160 A 
BRANCH   6  12
ATOM     12  C   LIG    1        5.122   6.716  -1.437  0.00  0.00    +0.300 C 
ATOM     13  N   LIG    1        5.595   7.728  -1.643  0.00  0.00    -0.440 NA
ENDBRANCH   6  12
ENDBRANCH   1  10
BRANCH   1  14
ATOM     14  C   LIG    1        2.469   1.308  -0.015  0.00  0.00    +0.370 C 
BRANCH  14  15
ATOM     15  C   LIG    1        1.067   1.859   0.002  0.00  0.00    -0.120 A 
ATOM     16  C   LIG    1       -0.013   1.076   0.008  0.00  0.00    -0.040 A 
ATOM     17  S   LIG    1       -1.463   2.070   0.019  0.00  0.00    +0.100 S 
ATOM     18  C   LIG    1       -0.494   3.538   0.025  0.00  0.00    -0.050 A 
ATOM     19  C   LIG    1        0.801   3.218   0.011  0.00  0.00    +0.030 A 
ENDBRANCH  14  15
ENDBRANCH   1  14
BRANCH   1  20
ATOM     20  C   LIG    1        2.666  -0.131  -2.095  0.00  0.00    +0.300 C 
BRANCH  20  21
ATOM     21  C   LIG    1        1.311  -0.071  -2.803  0.00  0.00    +0.010 C 
BRANCH  21  22
ATOM     22  C   LIG    1        1.056  -1.394  -3.529  0.00  0.00    -0.020 C 
ATOM     23  C   LIG    1        2.082  -1.568  -4.653  0.00  0.00    -0.010 C 
ATOM     24  C   LIG    1        1.770  -2.854  -5.423  0.00  0.00    +0.200 C 
ATOM     25  O   LIG    1        0.437  -2.792  -5.932  0.00  0.00    -0.380 OA
ATOM     26  C   LIG    1       -0.568  -2.678  -4.923  0.00  0.00    +0.200 C 
ATOM     27  C   LIG    1       -0.351  -1.384  -4.133  0.00  0.00    -0.010 C 
ENDBRANCH  21  22
ENDBRANCH  20  21
ENDBRANCH   1  20
TORSDOF 7
