REMARK  Name = ZINCrD0000075S4h.0
REMARK                            x       y       z     vdW  Elec       q    Type
REMARK                         _______ _______ _______ _____ _____    ______ ____
ROOT
ATOM      1  C   LIG    1        2.583   6.322  -1.408  0.00  0.00    +0.190 C 
ENDROOT
BRANCH   1   3
ATOM      2  O   LIG    1        1.654   6.120  -3.568  0.00  0.00    -0.520 OA
ATOM      3  C   LIG    1        2.293   6.812  -2.804  0.00  0.00    +0.530 C 
ATOM      4  N   LIG    1        2.744   8.018  -3.202  0.00  0.00    -0.620 N 
ATOM      5  C   LIG    1        3.608   8.912  -2.417  0.00  0.00    +0.230 C 
ATOM      6  C   LIG    1        3.843  10.181  -3.263  0.00  0.00    +0.030 C 
ATOM      7  C   LIG    1        2.633  10.177  -4.235  0.00  0.00    +0.040 C 
ATOM      8  C   LIG    1        2.448   8.661  -4.495  0.00  0.00    +0.250 C 
ENDBRANCH   1   3
BRANCH   1   9
ATOM      9  C   LIG    1        3.911   5.610  -1.392  0.00  0.00    -0.080 A 
ATOM     10  C   LIG    1        4.026   4.349  -1.945  0.00  0.00    +0.060 A 
ATOM     11  C   LIG    1        5.245   3.697  -1.934  0.00  0.00    -0.010 A 
ATOM     12  C   LIG    1        6.348   4.304  -1.361  0.00  0.00    +0.010 A 
ATOM     13  C   LIG    1        6.232   5.563  -0.803  0.00  0.00    +0.000 A 
ATOM     14  C   LIG    1        5.013   6.216  -0.818  0.00  0.00    +0.010 A 
ENDBRANCH   1   9
BRANCH   1  15
ATOM     15  N   LIG    1        1.525   5.396  -0.985  0.00  0.00    -0.660 NA
ATOM     16  H   LIG    1        0.642   5.638  -1.407  0.00  0.00    +0.350 HD
BRANCH  15  17
ATOM     17  C   LIG    1        1.415   5.356   0.480  0.00  0.00    +0.260 C 
BRANCH  17  18
ATOM     18  C   LIG    1        0.322   4.397   0.876  0.00  0.00    -0.230 A 
ATOM     19  C   LIG    1        0.473   3.075   1.118  0.00  0.00    +0.260 A 
ATOM     20  N   LIG    1       -0.740   2.575   1.444  0.00  0.00    -0.320 N 
ATOM     21  N   LIG    1       -1.666   3.625   1.393  0.00  0.00    -0.290 NA
ATOM     22  C   LIG    1       -1.028   4.718   1.059  0.00  0.00    +0.260 A 
BRANCH  20  23
ATOM     23  C   LIG    1       -1.023   1.241   1.768  0.00  0.00    +0.160 A 
ATOM     24  C   LIG    1       -0.007   0.294   1.768  0.00  0.00    -0.010 A 
ATOM     25  C   LIG    1       -0.288  -1.018   2.092  0.00  0.00    +0.040 A 
ATOM     26  C   LIG    1       -1.582  -1.393   2.406  0.00  0.00    +0.000 A 
ATOM     27  C   LIG    1       -2.597  -0.454   2.402  0.00  0.00    +0.030 A 
ATOM     28  C   LIG    1       -2.321   0.862   2.084  0.00  0.00    +0.020 A 
ENDBRANCH  20  23
ENDBRANCH  17  18
ENDBRANCH  15  17
ENDBRANCH   1  15
TORSDOF 6
