REMARK  Name = ZINCrD000000CAow.0
REMARK                            x       y       z     vdW  Elec       q    Type
REMARK                         _______ _______ _______ _____ _____    ______ ____
ROOT
ATOM      1  O   LIG    1       -0.059   0.031  -0.278  0.00  0.00    -0.530 OA
ATOM      2  C   LIG    1       -0.014   1.212   0.009  0.00  0.00    +0.570 C 
ATOM      3  N   LIG    1       -1.146   1.871   0.329  0.00  0.00    -0.610 N 
ATOM      4  C   LIG    1       -1.119   3.314   0.603  0.00  0.00    +0.280 C 
ATOM      5  C   LIG    1       -1.764   3.574   1.963  0.00  0.00    +0.030 C 
ATOM      6  C   LIG    1       -3.163   2.955   1.989  0.00  0.00    +0.110 C 
ATOM      7  C   LIG    1       -3.057   1.442   1.784  0.00  0.00    +0.030 C 
ATOM      8  C   LIG    1       -2.428   1.159   0.416  0.00  0.00    +0.290 C 
ENDROOT
BRANCH   2   9
ATOM      9  C   LIG    1        1.278   1.925   0.000  0.00  0.00    -0.140 A 
ATOM     10  C   LIG    1        1.407   3.131  -0.694  0.00  0.00    +0.050 A 
ATOM     11  C   LIG    1        2.611   3.798  -0.696  0.00  0.00    +0.000 A 
ATOM     12  C   LIG    1        3.706   3.264  -0.015  0.00  0.00    +0.030 A 
ATOM     13  C   LIG    1        3.580   2.057   0.673  0.00  0.00    +0.010 A 
ATOM     14  C   LIG    1        2.376   1.391   0.682  0.00  0.00    +0.070 A 
BRANCH  12  15
ATOM     15  C   LIG    1        5.004   3.981  -0.023  0.00  0.00    -0.210 A 
ATOM     16  C   LIG    1        5.271   5.162  -0.655  0.00  0.00    +0.260 A 
ATOM     17  N   LIG    1        6.559   5.471  -0.413  0.00  0.00    -0.470 N 
ATOM     18  H   LIG    1        7.025   6.258  -0.736  0.00  0.00    +0.440 HD
ATOM     19  N   LIG    1        7.112   4.458   0.379  0.00  0.00    -0.290 NA
ATOM     20  C   LIG    1        6.189   3.565   0.616  0.00  0.00    +0.260 A 
ENDBRANCH  12  15
ENDBRANCH   2   9
BRANCH   6  21
ATOM     21  C   LIG    1       -3.812   3.237   3.319  0.00  0.00    +0.180 A 
ATOM     22  N   LIG    1       -3.373   2.865   4.484  0.00  0.00    -0.380 NA
ATOM     23  O   LIG    1       -4.120   3.251   5.358  0.00  0.00    +0.080 OA
ATOM     24  C   LIG    1       -5.144   3.919   4.816  0.00  0.00    +0.210 A 
ATOM     25  N   LIG    1       -4.957   3.915   3.518  0.00  0.00    -0.480 NA
BRANCH  24  26
ATOM     26  C   LIG    1       -6.293   4.554   5.556  0.00  0.00    +0.070 C 
ATOM     27  C   LIG    1       -6.205   4.611   7.082  0.00  0.00    +0.070 C 
ATOM     28  C   LIG    1       -7.177   3.641   6.407  0.00  0.00    +0.070 C 
ENDBRANCH  24  26
ENDBRANCH   6  21
TORSDOF 4
