REMARK  Name = ZINCkj000005kL8x.1
REMARK                            x       y       z     vdW  Elec       q    Type
REMARK                         _______ _______ _______ _____ _____    ______ ____
ROOT
ATOM      1  N   LIG    1       -6.053  -1.544  -1.953  0.00  0.00    -0.750 N 
ATOM      2  H   LIG    1       -6.306  -0.780  -2.494  0.00  0.00    +0.400 HD
ATOM      3  C   LIG    1       -6.621  -2.746  -2.175  0.00  0.00    +0.700 C 
ATOM      4  N   LIG    1       -7.542  -2.886  -3.149  0.00  0.00    -0.740 N 
ATOM      5  H   LIG    1       -7.796  -2.122  -3.690  0.00  0.00    +0.400 HD
ATOM      6  O   LIG    1       -6.303  -3.704  -1.497  0.00  0.00    -0.590 OA
ENDROOT
BRANCH   1   7
ATOM      7  C   LIG    1       -5.052  -1.393  -0.894  0.00  0.00    +0.280 C 
BRANCH   7   8
ATOM      8  C   LIG    1       -4.570   0.059  -0.852  0.00  0.00    +0.030 C 
BRANCH   8   9
ATOM      9  C   LIG    1       -3.524   0.217   0.254  0.00  0.00    +0.030 C 
BRANCH   9  10
ATOM     10  C   LIG    1       -3.042   1.669   0.295  0.00  0.00    +0.340 C 
BRANCH  10  17
ATOM     11  C   LIG    1       -0.013   1.086   0.008  0.00  0.00    +0.230 C 
ATOM     12  C   LIG    1       -0.718   1.572   1.248  0.00  0.00    +0.310 C 
ATOM     13  N   LIG    1       -0.151   1.827   2.395  0.00  0.00    -0.480 N 
ATOM     14  C   LIG    1       -1.083   2.239   3.268  0.00  0.00    +0.220 C 
ATOM     15  C   LIG    1       -2.273   2.238   2.637  0.00  0.00    +0.240 C 
ATOM     16  H   LIG    1        0.796   1.734   2.587  0.00  0.00    +0.460 HD
ATOM     17  N   LIG    1       -2.041   1.821   1.354  0.00  0.00    -0.410 N 
ENDBRANCH  10  17
ENDBRANCH   9  10
ENDBRANCH   8   9
ENDBRANCH   7   8
ENDBRANCH   1   7
BRANCH   4  18
ATOM     18  C   LIG    1       -8.160  -4.192  -3.391  0.00  0.00    +0.290 C 
BRANCH  18  19
ATOM     19  C   LIG    1       -9.162  -4.077  -4.542  0.00  0.00    -0.050 C 
ATOM     20  C   LIG    1       -9.851  -5.442  -4.814  0.00  0.00    +0.030 C 
ATOM     21  C   LIG    1      -11.207  -4.976  -5.399  0.00  0.00    +0.200 C 
ATOM     22  O   LIG    1      -11.544  -3.788  -4.665  0.00  0.00    -0.380 OA
ATOM     23  C   LIG    1      -10.355  -3.182  -4.144  0.00  0.00    +0.190 C 
ENDBRANCH  18  19
ENDBRANCH   4  18
TORSDOF 7
