REMARK  Name = ZINCkj000005ksS3.0
REMARK                            x       y       z     vdW  Elec       q    Type
REMARK                         _______ _______ _______ _____ _____    ______ ____
ROOT
ATOM      1  S   LIG    1        0.165  -3.261  -3.229  0.00  0.00    +2.690 S 
ATOM      2  O   LIG    1        0.906  -2.128  -2.797  0.00  0.00    -0.940 OA
ATOM      3  O   LIG    1       -0.096  -4.383  -2.398  0.00  0.00    -0.940 OA
ENDROOT
BRANCH   1   9
ATOM      4  C   LIG    1        0.605  -6.678  -7.196  0.00  0.00    +0.120 C 
ATOM      5  C   LIG    1        1.144  -5.477  -6.462  0.00  0.00    -0.050 A 
ATOM      6  C   LIG    1        2.292  -4.854  -6.906  0.00  0.00    +0.090 A 
ATOM      7  C   LIG    1        2.788  -3.751  -6.234  0.00  0.00    +0.050 A 
ATOM      8  C   LIG    1        2.139  -3.266  -5.113  0.00  0.00    +0.130 A 
ATOM      9  C   LIG    1        0.990  -3.880  -4.657  0.00  0.00    -0.640 A 
ATOM     10  C   LIG    1        0.480  -4.990  -5.334  0.00  0.00    +0.060 A 
BRANCH  10  11
ATOM     11  C   LIG    1       -0.714  -5.629  -4.871  0.00  0.00    +0.220 C 
ATOM     12  N   LIG    1       -1.662  -6.135  -4.503  0.00  0.00    -0.370 NA
ENDBRANCH  10  11
ENDBRANCH   1   9
BRANCH   1  13
ATOM     13  N   LIG    1       -1.311  -2.693  -3.724  0.00  0.00    -1.000 NA
ATOM     14  C   LIG    1       -2.531  -3.477  -3.488  0.00  0.00    +0.310 C 
ATOM     15  C   LIG    1       -3.548  -2.588  -2.756  0.00  0.00    +0.060 C 
ATOM     16  C   LIG    1       -3.770  -1.306  -3.562  0.00  0.00    +0.180 C 
ATOM     17  C   LIG    1       -2.452  -0.537  -3.674  0.00  0.00    +0.060 C 
ATOM     18  C   LIG    1       -1.423  -1.400  -4.411  0.00  0.00    +0.250 C 
ATOM     19  C   LIG    1       -0.065  -0.696  -4.405  0.00  0.00    +0.060 C 
BRANCH  16  20
ATOM     20  N   LIG    1       -4.769  -0.469  -2.885  0.00  0.00    -0.640 N 
ATOM     21  H   LIG    1       -4.439  -0.232  -1.961  0.00  0.00    +0.430 HD
ATOM     22  H   LIG    1       -5.639  -0.976  -2.811  0.00  0.00    +0.440 HD
ATOM     23  H   LIG    1       -4.917   0.376  -3.417  0.00  0.00    +0.440 HD
ENDBRANCH  16  20
ENDBRANCH   1  13
TORSDOF 4
