REMARK  Name = ZINCrD000000fnzE.0
REMARK                            x       y       z     vdW  Elec       q    Type
REMARK                         _______ _______ _______ _____ _____    ______ ____
ROOT
ATOM      1  C   LIG    1        4.663   1.377   0.463  0.00  0.00    +0.360 A 
ATOM      2  N   LIG    1        3.511   1.999   0.509  0.00  0.00    -0.530 NA
ATOM      3  C   LIG    1        2.376   1.422   0.050  0.00  0.00    +0.170 A 
ATOM      4  C   LIG    1        1.147   2.086   0.100  0.00  0.00    +0.030 A 
ATOM      5  C   LIG    1        0.016   1.464  -0.378  0.00  0.00    +0.070 A 
ATOM      6  C   LIG    1        0.079   0.182  -0.910  0.00  0.00    +0.000 A 
ATOM      7  C   LIG    1        1.278  -0.494  -0.969  0.00  0.00    +0.100 A 
ATOM      8  C   LIG    1        2.436   0.117  -0.491  0.00  0.00    -0.200 A 
ATOM      9  C   LIG    1        3.741  -0.557  -0.531  0.00  0.00    +0.560 A 
ATOM     10  O   LIG    1        3.856  -1.681  -0.986  0.00  0.00    -0.490 OA
ATOM     11  N   LIG    1        4.809   0.115  -0.044  0.00  0.00    -0.490 N 
ENDROOT
BRANCH  11  12
ATOM     12  C   LIG    1        6.074  -0.486  -0.059  0.00  0.00    +0.100 A 
ATOM     13  C   LIG    1        6.908  -0.325  -1.158  0.00  0.00    +0.030 A 
ATOM     14  C   LIG    1        8.157  -0.914  -1.168  0.00  0.00    -0.070 A 
ATOM     15  C   LIG    1        8.574  -1.673  -0.090  0.00  0.00    +0.030 A 
ATOM     16  C   LIG    1        7.744  -1.840   1.004  0.00  0.00    -0.070 A 
ATOM     17  C   LIG    1        8.202  -2.667   2.177  0.00  0.00    +0.090 C 
ATOM     18  C   LIG    1        9.065  -0.734  -2.358  0.00  0.00    +0.090 C 
ATOM     19  C   LIG    1        6.496  -1.249   1.022  0.00  0.00    +0.040 A 
ENDBRANCH  11  12
BRANCH   1  20
ATOM     20  S   LIG    1        6.090   2.203   1.083  0.00  0.00    +0.100 S 
BRANCH  20  21
ATOM     21  C   LIG    1        5.345   3.768   1.605  0.00  0.00    +0.110 C 
BRANCH  21  24
ATOM     22  N   LIG    1        6.085   5.888   2.644  0.00  0.00    -0.720 N 
ATOM     23  H   LIG    1        5.165   6.194   2.600  0.00  0.00    +0.410 HD
ATOM     24  C   LIG    1        6.410   4.662   2.186  0.00  0.00    +0.530 C 
ATOM     25  O   LIG    1        7.560   4.280   2.240  0.00  0.00    -0.520 OA
BRANCH  22  26
ATOM     26  C   LIG    1        7.120   6.757   3.208  0.00  0.00    +0.310 C 
BRANCH  26  28
ATOM     27  C   LIG    1        6.653   8.480   4.874  0.00  0.00    +0.050 C 
ATOM     28  C   LIG    1        6.500   8.060   3.643  0.00  0.00    -0.060 C 
ENDBRANCH  26  28
ENDBRANCH  22  26
ENDBRANCH  21  24
ENDBRANCH  20  21
ENDBRANCH   1  20
TORSDOF 6
