REMARK  Name = ZINCtj00000nxG9W.1
REMARK                            x       y       z     vdW  Elec       q    Type
REMARK                         _______ _______ _______ _____ _____    ______ ____
ROOT
ATOM      1  N   LIG    1        1.980  -4.540  -1.141  0.00  0.00    -0.620 N 
ATOM      2  C   LIG    1        3.259  -4.410  -0.737  0.00  0.00    +0.520 C 
ATOM      3  O   LIG    1        3.503  -3.984   0.373  0.00  0.00    -0.530 OA
ATOM      4  C   LIG    1        1.684  -5.054  -2.481  0.00  0.00    +0.290 C 
ENDROOT
BRANCH   1   5
ATOM      5  C   LIG    1        0.885  -4.168  -0.242  0.00  0.00    +0.320 C 
BRANCH   5  11
ATOM      6  C   LIG    1        1.661   3.205   0.004  0.00  0.00    +0.200 C 
ATOM      7  C   LIG    1        1.246   1.756  -0.000  0.00  0.00    +0.030 C 
ATOM      8  C   LIG    1        2.078   0.694  -0.015  0.00  0.00    +0.250 C 
ATOM      9  N   LIG    1        1.291  -0.419  -0.014  0.00  0.00    -0.400 N 
ATOM     10  C   LIG    1        1.718  -1.820  -0.029  0.00  0.00    +0.350 C 
ATOM     11  C   LIG    1        0.532  -2.694  -0.450  0.00  0.00    -0.030 C 
ATOM     12  C   LIG    1       -0.692  -2.337   0.398  0.00  0.00    +0.070 C 
ATOM     13  C   LIG    1       -1.185  -0.938   0.010  0.00  0.00    +0.190 C 
ATOM     14  C   LIG    1        0.002  -0.004   0.002  0.00  0.00    +0.300 C 
ATOM     15  N   LIG    1       -0.016   1.297   0.009  0.00  0.00    -0.470 N 
ATOM     16  H   LIG    1       -0.814   1.848   0.016  0.00  0.00    +0.460 HD
ENDBRANCH   5  11
ENDBRANCH   1   5
BRANCH   2  17
ATOM     17  C   LIG    1        4.385  -4.792  -1.662  0.00  0.00    +0.060 C 
BRANCH  17  18
ATOM     18  C   LIG    1        5.724  -4.549  -0.963  0.00  0.00    +0.350 C 
BRANCH  18  19
ATOM     19  N   LIG    1        6.819  -4.921  -1.863  0.00  0.00    -0.540 N 
ATOM     20  C   LIG    1        7.339  -4.002  -2.694  0.00  0.00    +0.710 A 
ATOM     21  N   LIG    1        8.342  -4.273  -3.543  0.00  0.00    -0.660 N 
ATOM     22  H   LIG    1        8.679  -3.571  -4.121  0.00  0.00    +0.430 HD
ATOM     23  C   LIG    1        8.891  -5.506  -3.608  0.00  0.00    +0.560 A 
ATOM     24  C   LIG    1        8.361  -6.555  -2.719  0.00  0.00    -0.200 A 
ATOM     25  C   LIG    1        8.873  -7.849  -2.726  0.00  0.00    +0.140 A 
ATOM     26  C   LIG    1        8.351  -8.791  -1.864  0.00  0.00    -0.010 A 
ATOM     27  C   LIG    1        7.315  -8.459  -1.006  0.00  0.00    +0.100 A 
ATOM     28  C   LIG    1        6.795  -7.180  -0.992  0.00  0.00    -0.030 A 
ATOM     29  O   LIG    1        9.800  -5.744  -4.381  0.00  0.00    -0.480 OA
ATOM     30  O   LIG    1        6.881  -2.876  -2.676  0.00  0.00    -0.550 OA
ATOM     31  C   LIG    1        7.312  -6.218  -1.845  0.00  0.00    +0.190 A 
ENDBRANCH  18  19
ENDBRANCH  17  18
ENDBRANCH   2  17
TORSDOF 5
