REMARK  Name = ZINCnE000001SoiU.0
REMARK                            x       y       z     vdW  Elec       q    Type
REMARK                         _______ _______ _______ _____ _____    ______ ____
ROOT
ATOM      1  S   LIG    1       -1.221   7.605  -4.172  0.00  0.00    +0.040 S 
ENDROOT
BRANCH   1   2
ATOM      2  C   LIG    1       -0.465   6.447  -3.081  0.00  0.00    -0.080 A 
ATOM      3  N   LIG    1       -0.790   6.208  -1.850  0.00  0.00    -0.250 NA
ATOM      4  N   LIG    1       -0.079   5.259  -1.150  0.00  0.00    -0.500 NA
ATOM      5  C   LIG    1        0.930   4.639  -1.828  0.00  0.00    +0.340 A 
ATOM      6  N   LIG    1        1.743   3.711  -1.385  0.00  0.00    -0.630 NA
ATOM      7  S   LIG    1        0.902   5.377  -3.442  0.00  0.00    -0.090 S 
BRANCH   6   8
ATOM      8  C   LIG    1        1.619   3.225  -0.009  0.00  0.00    +0.300 C 
BRANCH   8   9
ATOM      9  C   LIG    1        1.213   1.774  -0.022  0.00  0.00    +0.030 A 
ATOM     10  C   LIG    1        2.051   0.722  -0.038  0.00  0.00    -0.080 A 
ATOM     11  C   LIG    1        1.248  -0.442  -0.047  0.00  0.00    -0.070 A 
ATOM     12  C   LIG    1       -0.033  -0.032  -0.036  0.00  0.00    +0.120 A 
ATOM     13  O   LIG    1       -0.048   1.311  -0.021  0.00  0.00    -0.170 OA
ENDBRANCH   8   9
ENDBRANCH   6   8
ENDBRANCH   1   2
BRANCH   1  14
ATOM     14  C   LIG    1       -2.524   8.341  -3.146  0.00  0.00    +0.100 C 
BRANCH  14  16
ATOM     15  O   LIG    1       -2.962   9.586  -5.102  0.00  0.00    -0.500 OA
ATOM     16  C   LIG    1       -3.275   9.370  -3.951  0.00  0.00    +0.540 C 
ATOM     17  N   LIG    1       -4.295  10.050  -3.390  0.00  0.00    -0.670 N 
ATOM     18  H   LIG    1       -4.589   9.831  -2.493  0.00  0.00    +0.410 HD
BRANCH  17  19
ATOM     19  C   LIG    1       -4.930  11.073  -4.104  0.00  0.00    +0.150 A 
ATOM     20  C   LIG    1       -5.404  12.195  -3.438  0.00  0.00    -0.020 A 
ATOM     21  C   LIG    1       -6.026  13.205  -4.146  0.00  0.00    +0.020 A 
ATOM     22  C   LIG    1       -6.185  13.095  -5.515  0.00  0.00    -0.020 A 
ATOM     23  C   LIG    1       -5.718  11.977  -6.180  0.00  0.00    +0.020 A 
ATOM     24  C   LIG    1       -5.091  10.966  -5.479  0.00  0.00    +0.020 A 
ENDBRANCH  17  19
ENDBRANCH  14  16
ENDBRANCH   1  14
TORSDOF 6
