REMARK  Name = ZINCrg00000ceRcZ.0
REMARK                            x       y       z     vdW  Elec       q    Type
REMARK                         _______ _______ _______ _____ _____    ______ ____
ROOT
ATOM      1  O   LIG    1       -5.705   1.349  -5.374  0.00  0.00    -0.540 OA
ATOM      2  C   LIG    1       -6.119   1.425  -4.233  0.00  0.00    +0.600 C 
ATOM      3  N   LIG    1       -5.285   1.776  -3.235  0.00  0.00    -0.590 N 
ATOM      4  C   LIG    1       -5.729   1.728  -1.835  0.00  0.00    +0.310 C 
ATOM      5  C   LIG    1       -4.736   0.883  -1.031  0.00  0.00    +0.050 C 
ATOM      6  C   LIG    1       -3.324   1.440  -1.224  0.00  0.00    +0.110 C 
ATOM      7  C   LIG    1       -2.335   0.614  -0.403  0.00  0.00    +0.270 C 
ATOM      8  N   LIG    1       -1.022   1.276  -0.443  0.00  0.00    -0.600 N 
ATOM      9  C   LIG    1       -0.961   2.712  -0.128  0.00  0.00    +0.250 C 
ATOM     10  C   LIG    1       -2.016   3.437  -0.972  0.00  0.00    +0.210 C 
ATOM     11  C   LIG    1        0.092   0.589  -0.765  0.00  0.00    +0.510 C 
ATOM     12  O   LIG    1        0.011  -0.575  -1.099  0.00  0.00    -0.510 OA
ATOM     13  C   LIG    1       -2.939   1.364  -2.702  0.00  0.00    +0.000 C 
ATOM     14  O   LIG    1       -3.283   2.801  -0.788  0.00  0.00    -0.360 OA
ATOM     15  C   LIG    1       -3.913   2.214  -3.525  0.00  0.00    +0.280 C 
ENDROOT
BRANCH  11  16
ATOM     16  C   LIG    1        1.437   1.267  -0.717  0.00  0.00    +0.110 C 
ATOM     17  C   LIG    1        2.527   0.274  -1.130  0.00  0.00    +0.030 C 
ATOM     18  C   LIG    1        3.896   0.947  -1.000  0.00  0.00    +0.230 C 
ATOM     19  O   LIG    1        4.078   1.402   0.343  0.00  0.00    -0.380 OA
ATOM     20  C   LIG    1        3.115   2.369   0.767  0.00  0.00    +0.230 C 
ATOM     21  F   LIG    1        1.442   2.359  -1.591  0.00  0.00    -0.190 F 
ATOM     22  C   LIG    1        1.715   1.752   0.710  0.00  0.00    +0.020 C 
ENDBRANCH  11  16
BRANCH   2  23
ATOM     23  C   LIG    1       -7.535   1.132  -3.942  0.00  0.00    -0.070 A 
ATOM     24  C   LIG    1       -8.458   0.654  -4.819  0.00  0.00    +0.250 A 
ATOM     25  O   LIG    1       -9.612   0.530  -4.144  0.00  0.00    -0.200 OA
ATOM     26  C   LIG    1       -9.405   0.931  -2.882  0.00  0.00    +0.440 A 
ATOM     27  N   LIG    1       -8.164   1.294  -2.747  0.00  0.00    -0.470 NA
ENDBRANCH   2  23
TORSDOF 2
