REMARK  Name = ZINCqH0000008ev7.0
REMARK                            x       y       z     vdW  Elec       q    Type
REMARK                         _______ _______ _______ _____ _____    ______ ____
ROOT
ATOM      1  C   LIG    1       -5.762   7.970   0.669  0.00  0.00    +0.180 A 
ATOM      2  N   LIG    1       -5.696   7.963  -0.629  0.00  0.00    -0.380 NA
ATOM      3  O   LIG    1       -4.554   7.768  -0.990  0.00  0.00    +0.080 OA
ATOM      4  C   LIG    1       -3.760   7.628   0.076  0.00  0.00    +0.190 A 
ATOM      5  N   LIG    1       -4.521   7.750   1.137  0.00  0.00    -0.470 NA
ENDROOT
BRANCH   1   7
ATOM      6  C   LIG    1       -7.602   9.552   1.179  0.00  0.00    +0.060 C 
ATOM      7  C   LIG    1       -7.003   8.181   1.498  0.00  0.00    +0.090 C 
BRANCH   7   8
ATOM      8  C   LIG    1       -8.025   7.090   1.172  0.00  0.00    +0.320 C 
BRANCH   8   9
ATOM      9  N   LIG    1       -9.182   7.223   2.061  0.00  0.00    -0.600 N 
ATOM     10  C   LIG    1       -9.203   6.575   3.242  0.00  0.00    +0.650 C 
ATOM     11  O   LIG    1       -8.262   5.879   3.570  0.00  0.00    -0.560 OA
ATOM     12  C   LIG    1      -10.317   8.061   1.666  0.00  0.00    +0.300 C 
BRANCH  10  13
ATOM     13  O   LIG    1      -10.266   6.697   4.059  0.00  0.00    -0.360 OA
BRANCH  13  14
ATOM     14  C   LIG    1      -10.219   5.970   5.315  0.00  0.00    +0.140 C 
ATOM     15  C   LIG    1      -10.088   4.472   5.033  0.00  0.00    +0.040 C 
ATOM     16  C   LIG    1      -11.505   6.230   6.103  0.00  0.00    +0.080 C 
ATOM     17  C   LIG    1       -9.016   6.442   6.133  0.00  0.00    +0.040 C 
ENDBRANCH  13  14
ENDBRANCH  10  13
ENDBRANCH   8   9
ENDBRANCH   7   8
ENDBRANCH   1   7
BRANCH   4  18
ATOM     18  C   LIG    1       -2.275   7.372   0.061  0.00  0.00    +0.220 C 
BRANCH  18  19
ATOM     19  C   LIG    1       -2.018   5.863   0.051  0.00  0.00    +0.100 C 
BRANCH  19  20
ATOM     20  S   LIG    1       -0.230   5.555   0.033  0.00  0.00    -0.060 S 
BRANCH  20  21
ATOM     21  C   LIG    1       -0.132   3.796   0.023  0.00  0.00    +0.120 A 
ATOM     22  C   LIG    1        1.114   3.175   0.008  0.00  0.00    -0.010 A 
ATOM     23  C   LIG    1        1.176   1.793   0.001  0.00  0.00    +0.080 A 
ATOM     24  C   LIG    1       -0.013   1.076   0.008  0.00  0.00    -0.040 A 
ATOM     25  C   LIG    1       -1.214   1.757   0.017  0.00  0.00    +0.280 A 
ATOM     26  N   LIG    1       -1.244   3.076   0.029  0.00  0.00    -0.490 NA
ENDBRANCH  20  21
ENDBRANCH  19  20
ENDBRANCH  18  19
ENDBRANCH   4  18
TORSDOF 9
