REMARK  Name = ZINCnE000001D7l8.1
REMARK                            x       y       z     vdW  Elec       q    Type
REMARK                         _______ _______ _______ _____ _____    ______ ____
ROOT
ATOM      1  N   LIG    1        0.281  -1.944  -4.448  0.00  0.00    -0.660 NA
ATOM      2  C   LIG    1        1.121  -2.307  -5.437  0.00  0.00    +0.440 C 
ATOM      3  O   LIG    1        2.316  -2.146  -5.306  0.00  0.00    -0.610 OA
ENDROOT
BRANCH   1   7
ATOM      4  C   LIG    1        0.707  -0.490  -1.238  0.00  0.00    +0.110 A 
ATOM      5  C   LIG    1        2.033  -0.438  -1.381  0.00  0.00    -0.230 A 
ATOM      6  S   LIG    1        2.439  -1.101  -2.962  0.00  0.00    +0.020 S 
ATOM      7  C   LIG    1        0.783  -1.385  -3.279  0.00  0.00    +0.340 A 
ATOM      8  N   LIG    1        0.064  -1.007  -2.268  0.00  0.00    -0.550 NA
BRANCH   4  10
ATOM      9  C   LIG    1       -0.019   1.526   0.010  0.00  0.00    +0.020 C 
ATOM     10  C   LIG    1        0.002  -0.004   0.002  0.00  0.00    +0.010 C 
ATOM     11  C   LIG    1       -1.433  -0.534   0.013  0.00  0.00    +0.030 C 
ATOM     12  C   LIG    1        0.742  -0.511   1.242  0.00  0.00    +0.020 C 
ENDBRANCH   4  10
ENDBRANCH   1   7
BRANCH   2  13
ATOM     13  C   LIG    1        0.577  -2.914  -6.704  0.00  0.00    +0.310 C 
BRANCH  13  14
ATOM     14  N   LIG    1        1.684  -3.219  -7.614  0.00  0.00    -0.710 N 
ATOM     15  H   LIG    1        2.596  -3.024  -7.350  0.00  0.00    +0.410 HD
ATOM     16  C   LIG    1        1.434  -3.772  -8.818  0.00  0.00    +0.550 C 
ATOM     17  O   LIG    1        0.290  -4.017  -9.148  0.00  0.00    -0.520 OA
BRANCH  16  18
ATOM     18  C   LIG    1        2.550  -4.080  -9.735  0.00  0.00    -0.120 A 
ATOM     19  C   LIG    1        3.865  -3.800  -9.359  0.00  0.00    +0.070 A 
ATOM     20  C   LIG    1        4.902  -4.090 -10.221  0.00  0.00    +0.010 A 
ATOM     21  C   LIG    1        4.643  -4.657 -11.456  0.00  0.00    +0.040 A 
ATOM     22  C   LIG    1        3.343  -4.938 -11.836  0.00  0.00    +0.020 A 
ATOM     23  C   LIG    1        2.295  -4.658 -10.982  0.00  0.00    +0.010 A 
ATOM     24 CL   LIG    1        0.664  -5.018 -11.457  0.00  0.00    -0.030 Cl
ENDBRANCH  16  18
ENDBRANCH  13  14
ENDBRANCH   2  13
TORSDOF 5
