REMARK  Name = ZINCpk00000k4nAO.1
REMARK                            x       y       z     vdW  Elec       q    Type
REMARK                         _______ _______ _______ _____ _____    ______ ____
ROOT
ATOM      1  C   LIG    1        0.068   0.470  -4.295  0.00  0.00    +0.120 C 
ATOM      2  C   LIG    1       -0.612   1.757  -3.810  0.00  0.00    +0.300 C 
ATOM      3  N   LIG    1       -0.256   1.366  -2.438  0.00  0.00    -0.650 N 
ATOM      4  C   LIG    1       -0.752   1.590  -1.205  0.00  0.00    +0.560 C 
ATOM      5  O   LIG    1       -1.793   2.197  -1.071  0.00  0.00    -0.520 OA
ATOM      6  C   LIG    1        0.885   0.628  -3.002  0.00  0.00    +0.310 C 
ENDROOT
BRANCH   4   7
ATOM      7  C   LIG    1       -0.012   1.087   0.008  0.00  0.00    +0.080 C 
ATOM      8  C   LIG    1        0.858   2.186   0.565  0.00  0.00    -0.240 A 
ATOM      9  C   LIG    1        0.967   2.474   1.887  0.00  0.00    +0.110 A 
ATOM     10  N   LIG    1        1.819   3.504   2.015  0.00  0.00    -0.470 N 
ATOM     11  H   LIG    1        2.087   3.925   2.847  0.00  0.00    +0.440 HD
ATOM     12  N   LIG    1        2.253   3.864   0.730  0.00  0.00    -0.290 NA
ATOM     13  C   LIG    1        0.237   1.731   2.978  0.00  0.00    +0.120 C 
ATOM     14  C   LIG    1       -0.274   0.405   2.402  0.00  0.00    +0.040 C 
ATOM     15  C   LIG    1        1.674   3.070  -0.137  0.00  0.00    +0.240 A 
ATOM     16  C   LIG    1       -1.016   0.669   1.090  0.00  0.00    +0.010 C 
ATOM     17  C   LIG    1       -1.741  -0.604   0.648  0.00  0.00    +0.030 C 
ENDBRANCH   4   7
BRANCH   1  21
ATOM     18  C   LIG    1        1.593   0.414  -7.581  0.00  0.00    -0.060 A 
ATOM     19  C   LIG    1        2.381   1.335  -6.961  0.00  0.00    +0.280 A 
ATOM     20  O   LIG    1        1.919   1.464  -5.707  0.00  0.00    -0.190 OA
ATOM     21  C   LIG    1        0.876   0.636  -5.557  0.00  0.00    +0.210 A 
ATOM     22  N   LIG    1        0.667   0.003  -6.672  0.00  0.00    -0.430 NA
BRANCH  18  23
ATOM     23  C   LIG    1        1.719  -0.049  -8.973  0.00  0.00    +0.550 C 
ATOM     24  O   LIG    1        2.594   0.400  -9.687  0.00  0.00    -0.500 OA
BRANCH  23  26
ATOM     25  C   LIG    1        1.045  -1.381 -10.838  0.00  0.00    +0.280 C 
ATOM     26  O   LIG    1        0.862  -0.971  -9.457  0.00  0.00    -0.340 OA
ENDBRANCH  23  26
ENDBRANCH  18  23
ENDBRANCH   1  21
TORSDOF 4
