REMARK  Name = ZINCpk00000k4nAO.0
REMARK                            x       y       z     vdW  Elec       q    Type
REMARK                         _______ _______ _______ _____ _____    ______ ____
ROOT
ATOM      1  C   LIG    1        3.138   1.603   2.905  0.00  0.00    +0.120 C 
ATOM      2  C   LIG    1        3.570   1.787   1.444  0.00  0.00    +0.290 C 
ATOM      3  N   LIG    1        2.213   1.382   1.046  0.00  0.00    -0.650 N 
ATOM      4  C   LIG    1        1.399   1.613  -0.003  0.00  0.00    +0.560 C 
ATOM      5  O   LIG    1        1.803   2.246  -0.955  0.00  0.00    -0.520 OA
ATOM      6  C   LIG    1        2.133   0.618   2.300  0.00  0.00    +0.310 C 
ENDROOT
BRANCH   4   7
ATOM      7  C   LIG    1       -0.013   1.087   0.008  0.00  0.00    +0.080 C 
ATOM      8  C   LIG    1       -0.957   2.169   0.470  0.00  0.00    -0.230 A 
ATOM      9  C   LIG    1       -0.805   3.030   1.492  0.00  0.00    +0.240 A 
ATOM     10  N   LIG    1       -1.901   3.820   1.529  0.00  0.00    -0.480 N 
ATOM     11  H   LIG    1       -2.068   4.535   2.163  0.00  0.00    +0.440 HD
ATOM     12  N   LIG    1       -2.756   3.425   0.489  0.00  0.00    -0.280 NA
ATOM     13  C   LIG    1       -2.193   2.437  -0.144  0.00  0.00    +0.090 A 
ATOM     14  C   LIG    1       -2.717   1.667  -1.332  0.00  0.00    +0.140 C 
ATOM     15  C   LIG    1       -1.919   0.363  -1.448  0.00  0.00    +0.040 C 
ATOM     16  C   LIG    1       -0.420   0.668  -1.410  0.00  0.00    +0.010 C 
ATOM     17  C   LIG    1        0.364  -0.582  -1.817  0.00  0.00    +0.020 C 
ENDBRANCH   4   7
BRANCH   1  21
ATOM     18  C   LIG    1        5.615   0.642   5.368  0.00  0.00    -0.060 A 
ATOM     19  C   LIG    1        5.612  -0.466   4.577  0.00  0.00    +0.280 A 
ATOM     20  O   LIG    1        4.720  -0.247   3.599  0.00  0.00    -0.190 OA
ATOM     21  C   LIG    1        4.185   0.968   3.784  0.00  0.00    +0.210 A 
ATOM     22  N   LIG    1        4.716   1.515   4.836  0.00  0.00    -0.430 NA
BRANCH  18  23
ATOM     23  C   LIG    1        6.440   0.859   6.569  0.00  0.00    +0.550 C 
ATOM     24  O   LIG    1        7.213  -0.003   6.939  0.00  0.00    -0.500 OA
BRANCH  23  26
ATOM     25  C   LIG    1        7.180   2.157   8.431  0.00  0.00    +0.280 C 
ATOM     26  O   LIG    1        6.337   2.013   7.257  0.00  0.00    -0.340 OA
ENDBRANCH  23  26
ENDBRANCH  18  23
ENDBRANCH   1  21
TORSDOF 4
