REMARK  Name = ZINCpk00000y6wGQ.0
REMARK                            x       y       z     vdW  Elec       q    Type
REMARK                         _______ _______ _______ _____ _____    ______ ____
ROOT
ATOM      1  N   LIG    1       -2.466   3.676   0.044  0.00  0.00    -0.570 N 
ATOM      2  C   LIG    1       -2.533   5.139   0.169  0.00  0.00    +0.300 C 
ATOM      3  C   LIG    1       -3.451   5.497   1.337  0.00  0.00    +0.010 C 
ATOM      4  C   LIG    1       -4.809   4.819   1.141  0.00  0.00    +0.250 C 
ATOM      5  C   LIG    1       -4.625   3.300   1.118  0.00  0.00    +0.010 C 
ATOM      6  C   LIG    1       -3.720   2.917  -0.058  0.00  0.00    +0.300 C 
ENDROOT
BRANCH   1  12
ATOM      7  C   LIG    1        0.169  -0.446  -0.517  0.00  0.00    +0.320 C 
ATOM      8  N   LIG    1        0.046   0.990  -0.249  0.00  0.00    -0.480 N 
ATOM      9  C   LIG    1        1.155   1.744  -0.002  0.00  0.00    +0.150 A 
ATOM     10  C   LIG    1        1.051   3.067   0.245  0.00  0.00    +0.190 A 
ATOM     11  N   LIG    1       -0.128   3.686   0.264  0.00  0.00    -0.510 NA
ATOM     12  C   LIG    1       -1.240   3.023   0.029  0.00  0.00    +0.350 A 
ATOM     13  C   LIG    1       -1.168   1.583  -0.244  0.00  0.00    +0.480 A 
ATOM     14  O   LIG    1       -2.180   0.938  -0.462  0.00  0.00    -0.530 OA
ENDBRANCH   1  12
BRANCH   4  15
ATOM     15  N   LIG    1       -5.701   5.185   2.244  0.00  0.00    -0.740 N 
ATOM     16  H   LIG    1       -5.783   4.603   3.016  0.00  0.00    +0.400 HD
ATOM     17  C   LIG    1       -6.408   6.331   2.187  0.00  0.00    +0.700 C 
ATOM     18  N   LIG    1       -7.229   6.668   3.202  0.00  0.00    -0.740 N 
ATOM     19  H   LIG    1       -7.310   6.086   3.973  0.00  0.00    +0.400 HD
ATOM     20  O   LIG    1       -6.306   7.061   1.220  0.00  0.00    -0.590 OA
BRANCH  18  21
ATOM     21  C   LIG    1       -7.997   7.914   3.140  0.00  0.00    +0.340 C 
BRANCH  21  22
ATOM     22  C   LIG    1       -8.829   8.054   4.388  0.00  0.00    -0.110 A 
ATOM     23  C   LIG    1      -10.112   7.541   4.425  0.00  0.00    +0.020 A 
ATOM     24  C   LIG    1      -10.873   7.665   5.572  0.00  0.00    +0.000 A 
ATOM     25  C   LIG    1      -10.355   8.311   6.679  0.00  0.00    +0.010 A 
ATOM     26  C   LIG    1       -9.074   8.828   6.641  0.00  0.00    +0.000 A 
ATOM     27  C   LIG    1       -8.311   8.700   5.495  0.00  0.00    +0.020 A 
ENDBRANCH  21  22
ENDBRANCH  18  21
ENDBRANCH   4  15
TORSDOF 4
