REMARK  Name = ZINCrD000000fG3r.0
REMARK                            x       y       z     vdW  Elec       q    Type
REMARK                         _______ _______ _______ _____ _____    ______ ____
ROOT
ATOM      1  C   LIG    1       -4.671   8.077  -1.394  0.00  0.00    +0.260 C 
ENDROOT
BRANCH   1   4
ATOM      2  C   LIG    1       -6.273   9.936   1.544  0.00  0.00    +0.090 C 
ATOM      3  C   LIG    1       -5.258   9.299   0.630  0.00  0.00    +0.520 C 
ATOM      4  N   LIG    1       -5.658   8.696  -0.506  0.00  0.00    -0.720 N 
ATOM      5  H   LIG    1       -6.600   8.671  -0.737  0.00  0.00    +0.400 HD
ATOM      6  O   LIG    1       -4.080   9.329   0.918  0.00  0.00    -0.520 OA
ENDBRANCH   1   4
BRANCH   1   7
ATOM      7  C   LIG    1       -3.933   6.995  -0.648  0.00  0.00    +0.500 C 
ATOM      8  N   LIG    1       -3.282   6.031  -1.329  0.00  0.00    -0.680 N 
ATOM      9  H   LIG    1       -3.223   6.076  -2.296  0.00  0.00    +0.410 HD
ATOM     10  O   LIG    1       -3.925   6.992   0.565  0.00  0.00    -0.480 OA
BRANCH   8  11
ATOM     11  C   LIG    1       -2.690   4.966  -0.641  0.00  0.00    +0.150 A 
ATOM     12  C   LIG    1       -3.271   4.481   0.523  0.00  0.00    +0.010 A 
ATOM     13  C   LIG    1       -2.683   3.430   1.198  0.00  0.00    +0.030 A 
ATOM     14  C   LIG    1       -1.517   2.857   0.720  0.00  0.00    -0.110 A 
ATOM     15  C   LIG    1       -0.689   1.712   1.272  0.00  0.00    +0.070 C 
ATOM     16  C   LIG    1        0.679   1.831   0.569  0.00  0.00    +0.030 C 
ATOM     17  C   LIG    1        0.319   2.550  -0.749  0.00  0.00    +0.080 C 
ATOM     18  C   LIG    1       -0.936   3.338  -0.440  0.00  0.00    -0.080 A 
ATOM     19  C   LIG    1       -1.521   4.392  -1.119  0.00  0.00    -0.010 A 
ENDBRANCH   8  11
ENDBRANCH   1   7
BRANCH   1  20
ATOM     20  C   LIG    1       -3.676   9.138  -1.869  0.00  0.00    +0.120 C 
BRANCH  20  21
ATOM     21  C   LIG    1       -4.394  10.155  -2.719  0.00  0.00    -0.170 A 
ATOM     22  C   LIG    1       -4.488  10.153  -4.058  0.00  0.00    +0.220 A 
ATOM     23  N   LIG    1       -5.217  11.233  -4.476  0.00  0.00    -0.590 N 
ATOM     24  H   LIG    1       -5.419  11.445  -5.401  0.00  0.00    +0.420 HD
ATOM     25  C   LIG    1       -5.621  11.975  -3.388  0.00  0.00    +0.090 A 
ATOM     26  C   LIG    1       -6.367  13.140  -3.247  0.00  0.00    -0.010 A 
ATOM     27  C   LIG    1       -6.609  13.650  -1.990  0.00  0.00    +0.030 A 
ATOM     28  C   LIG    1       -6.116  13.011  -0.861  0.00  0.00    -0.030 A 
ATOM     29  C   LIG    1       -5.381  11.866  -0.976  0.00  0.00    +0.050 A 
ATOM     30  C   LIG    1       -5.128  11.329  -2.240  0.00  0.00    -0.090 A 
ENDBRANCH  20  21
ENDBRANCH   1  20
TORSDOF 5
