REMARK  Name = ZINCpe000027pHdG.0
REMARK                            x       y       z     vdW  Elec       q    Type
REMARK                         _______ _______ _______ _____ _____    ______ ____
ROOT
ATOM      1  C   LIG    1        4.598   1.232   0.887  0.00  0.00    +0.110 C 
ATOM      2  C   LIG    1        4.209  -0.132   1.515  0.00  0.00    +0.040 C 
ATOM      3  C   LIG    1        2.678  -0.161   1.277  0.00  0.00    +0.190 C 
ATOM      4  N   LIG    1        2.490   0.466  -0.048  0.00  0.00    -0.500 NA
ATOM      5  C   LIG    1        3.643   1.344  -0.320  0.00  0.00    +0.210 C 
ENDROOT
BRANCH   1   6
ATOM      6  N   LIG    1        5.998   1.224   0.444  0.00  0.00    -0.520 NA
ATOM      7  C   LIG    1        6.904   0.938   1.564  0.00  0.00    +0.200 C 
BRANCH   6   8
ATOM      8  C   LIG    1        6.351   2.492  -0.209  0.00  0.00    +0.310 C 
BRANCH   8  12
ATOM      9  C   LIG    1       10.020   1.626  -3.506  0.00  0.00    +0.250 C 
ATOM     10  C   LIG    1        9.242   1.991  -2.267  0.00  0.00    +0.180 A 
ATOM     11  N   LIG    1        7.939   1.953  -2.124  0.00  0.00    -0.470 NA
ATOM     12  C   LIG    1        7.702   2.360  -0.864  0.00  0.00    +0.180 A 
ATOM     13  N   LIG    1        8.851   2.624  -0.317  0.00  0.00    -0.380 NA
ATOM     14  O   LIG    1        9.749   2.414  -1.105  0.00  0.00    +0.080 OA
ENDBRANCH   8  12
ENDBRANCH   6   8
ENDBRANCH   1   6
BRANCH   4  15
ATOM     15  C   LIG    1        1.230   1.220  -0.100  0.00  0.00    +0.210 C 
BRANCH  15  16
ATOM     16  C   LIG    1        0.069   0.260  -0.064  0.00  0.00    +0.510 C 
ATOM     17  N   LIG    1       -1.194   0.729  -0.107  0.00  0.00    -0.730 N 
ATOM     18  H   LIG    1       -1.355   1.684  -0.157  0.00  0.00    +0.410 HD
ATOM     19  O   LIG    1        0.271  -0.934  -0.001  0.00  0.00    -0.500 OA
BRANCH  17  20
ATOM     20  C   LIG    1       -2.323  -0.204  -0.077  0.00  0.00    +0.280 C 
ATOM     21  C   LIG    1       -2.289  -1.114  -1.323  0.00  0.00    +0.050 C 
ATOM     22  C   LIG    1       -3.779  -1.293  -1.703  0.00  0.00    +0.020 C 
ATOM     23  C   LIG    1       -4.376   0.107  -1.416  0.00  0.00    +0.040 C 
ATOM     24  C   LIG    1       -3.650   0.572  -0.137  0.00  0.00    +0.050 C 
BRANCH  20  25
ATOM     25  C   LIG    1       -2.270  -1.020   1.147  0.00  0.00    +0.200 C 
ATOM     26  N   LIG    1       -2.230  -1.650   2.091  0.00  0.00    -0.410 NA
ENDBRANCH  20  25
ENDBRANCH  17  20
ENDBRANCH  15  16
ENDBRANCH   4  15
TORSDOF 7
