REMARK  Name = ZINCpk00000kGVMs.0
REMARK                            x       y       z     vdW  Elec       q    Type
REMARK                         _______ _______ _______ _____ _____    ______ ____
ROOT
ATOM      1  C   LIG    1        2.422   1.183  -0.015  0.00  0.00    +0.260 C 
ATOM      2  C   LIG    1        3.530   2.068   0.592  0.00  0.00    +0.050 C 
ATOM      3  C   LIG    1        4.197   2.736  -0.636  0.00  0.00    -0.010 C 
ATOM      4  C   LIG    1        4.190   1.601  -1.689  0.00  0.00    +0.020 C 
ATOM      5  C   LIG    1        2.841   0.886  -1.465  0.00  0.00    +0.150 C 
ENDROOT
BRANCH   1   7
ATOM      6  C   LIG    1       -0.014   1.209   0.009  0.00  0.00    +0.510 C 
ATOM      7  N   LIG    1        1.143   1.898   0.001  0.00  0.00    -0.730 N 
ATOM      8  H   LIG    1        1.130   2.868   0.007  0.00  0.00    +0.400 HD
ATOM      9  O   LIG    1        0.002  -0.004   0.002  0.00  0.00    -0.520 OA
BRANCH   6  10
ATOM     10  C   LIG    1       -1.330   1.944   0.019  0.00  0.00    +0.060 C 
BRANCH  10  11
ATOM     11  C   LIG    1       -2.479   0.934   0.019  0.00  0.00    +0.160 C 
BRANCH  11  15
ATOM     12  C   LIG    1       -7.152   2.502  -1.261  0.00  0.00    +0.150 C 
ATOM     13  C   LIG    1       -5.836   2.344  -0.544  0.00  0.00    +0.080 A 
ATOM     14  C   LIG    1       -4.829   1.512  -0.898  0.00  0.00    -0.120 A 
ATOM     15  C   LIG    1       -3.794   1.670   0.029  0.00  0.00    +0.080 A 
ATOM     16  N   LIG    1       -4.162   2.571   0.904  0.00  0.00    -0.300 NA
ATOM     17  N   LIG    1       -5.448   3.011   0.563  0.00  0.00    -0.370 N 
ATOM     18  C   LIG    1       -6.232   4.018   1.282  0.00  0.00    +0.350 C 
ENDBRANCH  11  15
ENDBRANCH  10  11
ENDBRANCH   6  10
ENDBRANCH   1   7
BRANCH   5  19
ATOM     19  O   LIG    1        2.997  -0.522  -1.651  0.00  0.00    -0.560 OA
ATOM     20  H   LIG    1        3.261  -0.774  -2.546  0.00  0.00    +0.380 HD
ENDBRANCH   5  19
BRANCH   3  21
ATOM     21  C   LIG    1        5.630   3.163  -0.309  0.00  0.00    +0.330 C 
BRANCH  21  22
ATOM     22  N   LIG    1        6.192   3.896  -1.446  0.00  0.00    -0.360 N 
ATOM     23  C   LIG    1        6.728   5.136  -1.406  0.00  0.00    +0.250 A 
ATOM     24  C   LIG    1        7.132   5.450  -2.659  0.00  0.00    -0.190 A 
ATOM     25  C   LIG    1        6.834   4.367  -3.492  0.00  0.00    +0.250 A 
ATOM     26 CL   LIG    1        7.887   6.936  -3.146  0.00  0.00    -0.040 Cl
ATOM     27  N   LIG    1        6.276   3.433  -2.765  0.00  0.00    -0.280 NA
ENDBRANCH  21  22
ENDBRANCH   3  21
TORSDOF 7
