REMARK  Name = ZINCrH00000No560.0
REMARK                            x       y       z     vdW  Elec       q    Type
REMARK                         _______ _______ _______ _____ _____    ______ ____
ROOT
ATOM      1  C   LIG    1       -3.643  -1.111   0.013  0.00  0.00    +0.150 C 
ATOM      2  C   LIG    1       -2.482  -0.418   0.011  0.00  0.00    -0.110 C 
ENDROOT
BRANCH   1   6
ATOM      3  C   LIG    1       -3.575  -5.355  -0.009  0.00  0.00    +0.120 A 
ATOM      4  C   LIG    1       -2.383  -4.642  -0.011  0.00  0.00    -0.040 A 
ATOM      5  C   LIG    1       -2.400  -3.264  -0.004  0.00  0.00    +0.050 A 
ATOM      6  C   LIG    1       -3.622  -2.580   0.005  0.00  0.00    -0.090 A 
ATOM      7  C   LIG    1       -4.823  -3.300   0.013  0.00  0.00    -0.010 A 
ATOM      8  C   LIG    1       -4.796  -4.680  -0.000  0.00  0.00    +0.100 A 
BRANCH   3  10
ATOM      9  C   LIG    1       -2.268  -7.339  -0.026  0.00  0.00    +0.240 C 
ATOM     10  O   LIG    1       -3.552  -6.712  -0.016  0.00  0.00    -0.300 OA
ENDBRANCH   3  10
BRANCH   8  11
ATOM     11  O   LIG    1       -5.961  -5.382   0.002  0.00  0.00    -0.300 OA
BRANCH  11  12
ATOM     12  C   LIG    1       -7.174  -4.627   0.011  0.00  0.00    +0.180 C 
BRANCH  12  13
ATOM     13  C   LIG    1       -8.369  -5.582   0.012  0.00  0.00    -0.010 C 
ATOM     14  C   LIG    1       -9.665  -4.777  -0.103  0.00  0.00    +0.040 C 
ATOM     15  C   LIG    1       -8.381  -6.383   1.316  0.00  0.00    +0.020 C 
ENDBRANCH  12  13
ENDBRANCH  11  12
ENDBRANCH   8  11
ENDBRANCH   1   6
BRANCH   2  16
ATOM     16  C   LIG    1       -2.502   1.000   0.019  0.00  0.00    +0.430 C 
ATOM     17  O   LIG    1       -3.566   1.593   0.028  0.00  0.00    -0.460 OA
BRANCH  16  18
ATOM     18  C   LIG    1       -1.234   1.757   0.017  0.00  0.00    -0.150 A 
ATOM     19  C   LIG    1       -0.013   1.076   0.008  0.00  0.00    +0.080 A 
ATOM     20  C   LIG    1        1.171   1.779   0.000  0.00  0.00    +0.020 A 
ATOM     21  C   LIG    1        1.155   3.168   0.008  0.00  0.00    +0.120 A 
ATOM     22  N   LIG    1        2.158   4.129   0.003  0.00  0.00    -0.640 N 
ATOM     23  H   LIG    1        3.112   3.953  -0.007  0.00  0.00    +0.440 HD
ATOM     24  C   LIG    1        1.583   5.346   0.015  0.00  0.00    +0.680 A 
ATOM     25  N   LIG    1        0.243   5.215   0.026  0.00  0.00    -0.640 N 
ATOM     26  H   LIG    1       -0.399   5.942   0.036  0.00  0.00    +0.440 HD
ATOM     27  O   LIG    1        2.183   6.404   0.015  0.00  0.00    -0.550 OA
ATOM     28  C   LIG    1       -0.064   3.856   0.022  0.00  0.00    +0.080 A 
ATOM     29  C   LIG    1       -1.254   3.153   0.031  0.00  0.00    +0.100 A 
ENDBRANCH  16  18
ENDBRANCH   2  16
TORSDOF 7
