REMARK  Name = ZINCpk00000dHGDJ.0
REMARK                            x       y       z     vdW  Elec       q    Type
REMARK                         _______ _______ _______ _____ _____    ______ ____
ROOT
ATOM      1  O   LIG    1        6.328  -0.195   5.108  0.00  0.00    -0.520 OA
ATOM      2  C   LIG    1        5.596   0.771   5.004  0.00  0.00    +0.610 C 
ATOM      3  N   LIG    1        4.973   1.022   3.836  0.00  0.00    -0.600 N 
ATOM      4  C   LIG    1        5.260   0.210   2.645  0.00  0.00    +0.280 C 
ATOM      5  C   LIG    1        5.687   1.144   1.506  0.00  0.00    +0.310 C 
ATOM      6  N   LIG    1        4.707   2.234   1.401  0.00  0.00    -0.990 NA
ATOM      7  C   LIG    1        4.424   3.050   2.590  0.00  0.00    +0.310 C 
ATOM      8  C   LIG    1        3.993   2.112   3.730  0.00  0.00    +0.280 C 
ENDROOT
BRANCH   2   9
ATOM      9  C   LIG    1        5.393   1.663   6.150  0.00  0.00    -0.090 A 
ATOM     10  C   LIG    1        6.047   1.595   7.347  0.00  0.00    +0.050 A 
ATOM     11  C   LIG    1        5.544   2.636   8.143  0.00  0.00    -0.060 A 
ATOM     12  C   LIG    1        4.610   3.281   7.409  0.00  0.00    +0.200 A 
ATOM     13  O   LIG    1        4.522   2.692   6.209  0.00  0.00    -0.160 OA
ENDBRANCH   2   9
BRANCH   6  14
ATOM     14  S   LIG    1        3.941   2.542  -0.035  0.00  0.00    +2.700 S 
ATOM     15  O   LIG    1        3.528   3.901   0.015  0.00  0.00    -0.950 OA
ATOM     16  O   LIG    1        4.780   2.022  -1.057  0.00  0.00    -0.930 OA
BRANCH  14  17
ATOM     17  C   LIG    1        2.469   1.575  -0.059  0.00  0.00    -0.640 A 
ATOM     18  C   LIG    1        1.258   2.182  -0.058  0.00  0.00    +0.200 A 
ATOM     19  C   LIG    1        0.072   1.447  -0.076  0.00  0.00    +0.020 A 
ATOM     20  C   LIG    1        0.077   0.092  -0.094  0.00  0.00    +0.150 A 
ATOM     21  C   LIG    1        1.309  -0.610  -0.095  0.00  0.00    +0.060 A 
ATOM     22  N   LIG    1        1.568  -1.908  -0.111  0.00  0.00    -0.580 NA
ATOM     23  S   LIG    1        3.108  -2.127  -0.103  0.00  0.00    +0.840 S 
ATOM     24  N   LIG    1        3.597  -0.650  -0.080  0.00  0.00    -0.610 NA
ATOM     25  C   LIG    1        2.550   0.159  -0.076  0.00  0.00    +0.140 A 
ENDBRANCH  14  17
ENDBRANCH   6  14
TORSDOF 3
