REMARK  Name = ZINCtV000002Hotx.0
REMARK                            x       y       z     vdW  Elec       q    Type
REMARK                         _______ _______ _______ _____ _____    ______ ____
ROOT
ATOM      1  C   LIG    1       -0.015   1.517   0.007  0.00  0.00    +0.030 C 
ENDROOT
BRANCH   1   2
ATOM      2  C   LIG    1        0.014   0.010  -0.010  0.00  0.00    -0.100 A 
ATOM      3  C   LIG    1       -1.169  -0.704  -0.002  0.00  0.00    +0.040 A 
ATOM      4  C   LIG    1       -1.143  -2.086  -0.022  0.00  0.00    +0.020 A 
ATOM      5  C   LIG    1        0.067  -2.754  -0.041  0.00  0.00    +0.020 A 
ATOM      6  C   LIG    1        1.251  -2.040  -0.045  0.00  0.00    +0.010 A 
ATOM      7  C   LIG    1        1.224  -0.658  -0.029  0.00  0.00    +0.020 A 
ENDBRANCH   1   2
BRANCH   1  10
ATOM      8  N   LIG    1       -0.042   2.120   2.405  0.00  0.00    -0.660 N 
ATOM      9  H   LIG    1        0.882   1.832   2.458  0.00  0.00    +0.410 HD
ATOM     10  C   LIG    1       -0.723   1.992   1.249  0.00  0.00    +0.540 C 
ATOM     11  O   LIG    1       -1.905   2.258   1.209  0.00  0.00    -0.490 OA
BRANCH   8  17
ATOM     12  C   LIG    1       -3.542   4.997   4.316  0.00  0.00    +0.090 C 
ATOM     13  C   LIG    1       -2.368   4.067   4.484  0.00  0.00    -0.070 A 
ATOM     14  C   LIG    1       -1.910   3.756   5.751  0.00  0.00    -0.010 A 
ATOM     15  C   LIG    1       -0.832   2.904   5.910  0.00  0.00    +0.030 A 
ATOM     16  C   LIG    1       -0.211   2.360   4.803  0.00  0.00    -0.120 A 
ATOM     17  C   LIG    1       -0.669   2.670   3.529  0.00  0.00    +0.150 A 
ATOM     18  C   LIG    1        0.963   1.431   4.977  0.00  0.00    +0.080 C 
ATOM     19  C   LIG    1       -1.748   3.531   3.373  0.00  0.00    +0.020 A 
ENDBRANCH   8  17
ENDBRANCH   1  10
BRANCH   1  20
ATOM     20  S   LIG    1       -0.895   2.122  -1.460  0.00  0.00    +0.040 S 
BRANCH  20  21
ATOM     21  C   LIG    1        0.143   1.604  -2.786  0.00  0.00    -0.080 A 
ATOM     22  C   LIG    1        1.307   0.912  -2.529  0.00  0.00    +0.010 A 
ATOM     23  C   LIG    1        2.135   0.498  -3.567  0.00  0.00    +0.030 A 
ATOM     24  C   LIG    1        1.819   0.765  -4.865  0.00  0.00    +0.030 A 
ATOM     25  C   LIG    1        0.641   1.467  -5.169  0.00  0.00    -0.090 A 
ATOM     26  C   LIG    1        0.286   1.758  -6.500  0.00  0.00    +0.080 A 
ATOM     27  C   LIG    1       -0.874   2.444  -6.723  0.00  0.00    -0.030 A 
ATOM     28  C   LIG    1       -1.667   2.836  -5.647  0.00  0.00    +0.290 A 
ATOM     29  N   LIG    1       -1.331   2.564  -4.409  0.00  0.00    -0.470 NA
ATOM     30  C   LIG    1       -0.214   1.891  -4.123  0.00  0.00    +0.140 A 
ENDBRANCH  20  21
ENDBRANCH   1  20
TORSDOF 5
