REMARK  Name = ZINCqH0000034nn4.0
REMARK                            x       y       z     vdW  Elec       q    Type
REMARK                         _______ _______ _______ _____ _____    ______ ____
ROOT
ATOM      1  C   LIG    1        0.262   4.909   1.450  0.00  0.00    +0.590 C 
ATOM      2  N   LIG    1        0.887   5.995   0.954  0.00  0.00    -0.610 N 
ATOM      3  C   LIG    1        2.341   6.162   1.100  0.00  0.00    +0.290 C 
ATOM      4  C   LIG    1        2.936   6.470  -0.278  0.00  0.00    +0.170 C 
ATOM      5  N   LIG    1        2.236   7.619  -0.865  0.00  0.00    -0.540 NA
ATOM      6  C   LIG    1        0.816   7.318  -1.093  0.00  0.00    +0.180 C 
ATOM      7  C   LIG    1        2.887   8.054  -2.108  0.00  0.00    +0.190 C 
ATOM      8  C   LIG    1        0.134   7.042   0.247  0.00  0.00    +0.280 C 
ATOM      9  O   LIG    1       -0.925   4.741   1.240  0.00  0.00    -0.500 OA
ENDROOT
BRANCH   1  12
ATOM     10  N   LIG    1        2.448   3.035   3.690  0.00  0.00    -0.470 N 
ATOM     11  C   LIG    1        1.987   4.194   3.161  0.00  0.00    +0.280 A 
ATOM     12  C   LIG    1        1.013   3.928   2.245  0.00  0.00    -0.220 A 
ATOM     13  C   LIG    1        0.862   2.462   2.208  0.00  0.00    -0.060 A 
ATOM     14  C   LIG    1        0.048   1.591   1.491  0.00  0.00    +0.060 A 
ATOM     15  C   LIG    1        0.155   0.232   1.695  0.00  0.00    -0.020 A 
ATOM     16  C   LIG    1        1.070  -0.268   2.610  0.00  0.00    +0.030 A 
ATOM     17  C   LIG    1        1.882   0.583   3.327  0.00  0.00    -0.010 A 
ATOM     18  C   LIG    1        1.788   1.958   3.136  0.00  0.00    +0.090 A 
BRANCH  10  20
ATOM     19  C   LIG    1        4.848   2.705   4.023  0.00  0.00    +0.030 C 
ATOM     20  C   LIG    1        3.499   2.940   4.705  0.00  0.00    +0.280 C 
ENDBRANCH  10  20
ENDBRANCH   1  12
BRANCH   8  21
ATOM     21  C   LIG    1       -1.279   6.576   0.007  0.00  0.00    -0.050 A 
ATOM     22  C   LIG    1       -1.530   5.580  -0.919  0.00  0.00    +0.030 A 
ATOM     23  C   LIG    1       -2.826   5.149  -1.135  0.00  0.00    -0.010 A 
ATOM     24  C   LIG    1       -3.871   5.721  -0.434  0.00  0.00    -0.010 A 
ATOM     25  C   LIG    1       -3.620   6.720   0.488  0.00  0.00    +0.000 A 
ATOM     26  C   LIG    1       -2.324   7.147   0.708  0.00  0.00    +0.000 A 
ENDBRANCH   8  21
TORSDOF 3
