REMARK  Name = ZINCrg00000fRwH3.0
REMARK                            x       y       z     vdW  Elec       q    Type
REMARK                         _______ _______ _______ _____ _____    ______ ____
ROOT
ATOM      1  C   LIG    1       -4.641   4.003   4.164  0.00  0.00    +0.360 C 
ATOM      2  N   LIG    1       -3.967   2.760   3.783  0.00  0.00    -0.360 N 
ATOM      3  C   LIG    1       -2.976   2.663   2.884  0.00  0.00    +0.290 A 
ATOM      4  C   LIG    1       -2.610   1.336   2.798  0.00  0.00    -0.280 A 
ATOM      5  C   LIG    1       -3.464   0.609   3.742  0.00  0.00    +0.180 A 
ATOM      6  N   LIG    1       -4.255   1.495   4.304  0.00  0.00    -0.280 NA
ENDROOT
BRANCH   5   7
ATOM      7  C   LIG    1       -3.440  -0.849   4.012  0.00  0.00    -0.030 A 
ATOM      8  C   LIG    1       -3.174  -1.744   2.978  0.00  0.00    +0.110 A 
ATOM      9  C   LIG    1       -3.146  -3.102   3.229  0.00  0.00    +0.020 A 
ATOM     10  C   LIG    1       -3.394  -3.573   4.508  0.00  0.00    +0.080 A 
ATOM     11  O   LIG    1       -3.373  -4.914   4.761  0.00  0.00    -0.320 OA
ATOM     12  C   LIG    1       -4.631  -5.509   5.085  0.00  0.00    +0.220 C 
ATOM     13  C   LIG    1       -4.939  -5.349   6.565  0.00  0.00    -0.020 C 
ATOM     14  C   LIG    1       -5.124  -3.893   6.964  0.00  0.00    +0.220 C 
ATOM     15  O   LIG    1       -3.906  -3.164   6.796  0.00  0.00    -0.320 OA
ATOM     16  C   LIG    1       -3.665  -2.685   5.541  0.00  0.00    +0.050 A 
ATOM     17  C   LIG    1       -3.690  -1.325   5.299  0.00  0.00    +0.060 A 
ENDBRANCH   5   7
BRANCH   4  18
ATOM     18  C   LIG    1       -1.563   0.763   1.934  0.00  0.00    +0.600 C 
ATOM     19  N   LIG    1       -0.762   1.576   1.217  0.00  0.00    -0.600 N 
ATOM     20  C   LIG    1       -0.832   3.027   1.407  0.00  0.00    +0.270 C 
ATOM     21  O   LIG    1       -1.422  -0.443   1.868  0.00  0.00    -0.520 OA
BRANCH  19  22
ATOM     22  C   LIG    1        0.178   1.008   0.247  0.00  0.00    +0.250 C 
ATOM     23  C   LIG    1        1.621   1.470   0.546  0.00  0.00    +0.200 C 
ATOM     24  O   LIG    1        2.254   1.750  -0.708  0.00  0.00    -0.370 OA
ATOM     25  C   LIG    1        1.350   1.468  -1.788  0.00  0.00    +0.190 C 
ATOM     26  C   LIG    1       -0.067   1.589  -1.172  0.00  0.00    +0.140 C 
BRANCH  26  27
ATOM     27  O   LIG    1       -1.013   0.800  -1.896  0.00  0.00    -0.540 OA
ATOM     28  H   LIG    1       -1.196   1.125  -2.788  0.00  0.00    +0.380 HD
ENDBRANCH  26  27
ENDBRANCH  19  22
ENDBRANCH   4  18
TORSDOF 4
