REMARK  Name = ZINCrD000000fL6i.0
REMARK                            x       y       z     vdW  Elec       q    Type
REMARK                         _______ _______ _______ _____ _____    ______ ____
ROOT
ATOM      1  N   LIG    1       -1.378   1.843   0.410  0.00  0.00    -0.420 N 
ATOM      2  C   LIG    1       -2.370   1.721  -0.526  0.00  0.00    +0.400 A 
ATOM      3  N   LIG    1       -3.208   2.700  -0.332  0.00  0.00    -0.280 NA
ATOM      4  N   LIG    1       -2.813   3.432   0.648  0.00  0.00    -0.290 NA
ATOM      5  C   LIG    1       -1.695   2.954   1.142  0.00  0.00    +0.150 A 
ENDROOT
BRANCH   1  10
ATOM      6  C   LIG    1        0.670  -1.193   0.818  0.00  0.00    +0.160 A 
ATOM      7  C   LIG    1        1.941  -0.640   0.900  0.00  0.00    +0.040 A 
ATOM      8  C   LIG    1        2.107   0.729   0.820  0.00  0.00    +0.060 A 
ATOM      9  C   LIG    1        1.010   1.553   0.660  0.00  0.00    +0.020 A 
ATOM     10  C   LIG    1       -0.265   1.006   0.578  0.00  0.00    +0.120 A 
ATOM     11  C   LIG    1       -0.435  -0.368   0.657  0.00  0.00    +0.010 A 
BRANCH   6  14
ATOM     12  C   LIG    1        1.194  -4.891   0.355  0.00  0.00    +0.110 C 
ATOM     13  C   LIG    1        1.424  -3.402   0.360  0.00  0.00    +0.510 C 
ATOM     14  N   LIG    1        0.502  -2.580   0.899  0.00  0.00    -0.680 N 
ATOM     15  H   LIG    1       -0.277  -2.949   1.342  0.00  0.00    +0.420 HD
ATOM     16  O   LIG    1        2.439  -2.944  -0.120  0.00  0.00    -0.520 OA
ENDBRANCH   6  14
ENDBRANCH   1  10
BRANCH   5  17
ATOM     17  S   LIG    1       -0.778   3.616   2.492  0.00  0.00    +0.090 S 
BRANCH  17  18
ATOM     18  C   LIG    1       -1.815   5.040   2.909  0.00  0.00    +0.010 C 
ATOM     19  C   LIG    1       -3.177   4.550   3.407  0.00  0.00    +0.080 C 
BRANCH  18  20
ATOM     20  C   LIG    1       -1.147   5.849   3.990  0.00  0.00    +0.540 C 
ATOM     21  N   LIG    1       -1.501   7.135   4.185  0.00  0.00    -0.660 N 
ATOM     22  H   LIG    1       -2.236   7.518   3.681  0.00  0.00    +0.410 HD
ATOM     23  O   LIG    1       -0.291   5.344   4.685  0.00  0.00    -0.500 OA
BRANCH  21  24
ATOM     24  C   LIG    1       -0.808   7.918   5.115  0.00  0.00    +0.140 A 
ATOM     25  C   LIG    1       -1.476   8.904   5.830  0.00  0.00    -0.010 A 
ATOM     26  C   LIG    1       -0.791   9.671   6.751  0.00  0.00    +0.030 A 
ATOM     27  C   LIG    1        0.561   9.466   6.955  0.00  0.00    -0.010 A 
ATOM     28  C   LIG    1        1.231   8.489   6.241  0.00  0.00    +0.030 A 
ATOM     29  C   LIG    1        0.550   7.715   5.322  0.00  0.00    +0.010 A 
ENDBRANCH  21  24
ENDBRANCH  18  20
ENDBRANCH  17  18
ENDBRANCH   5  17
TORSDOF 6
