REMARK  Name = ZINCtV00000L6kyV.0
REMARK                            x       y       z     vdW  Elec       q    Type
REMARK                         _______ _______ _______ _____ _____    ______ ____
ROOT
ATOM      1  C   LIG    1       -2.556   1.605   0.034  0.00  0.00    +0.090 A 
ATOM      2  C   LIG    1       -1.170   1.884   0.017  0.00  0.00    -0.210 A 
ATOM      3  C   LIG    1       -0.013   1.076   0.008  0.00  0.00    +0.280 A 
ATOM      4  N   LIG    1        1.034   1.850   0.002  0.00  0.00    -0.230 NA
ATOM      5  N   LIG    1        0.631   3.191   0.013  0.00  0.00    -0.380 N 
ATOM      6  C   LIG    1       -0.739   3.225   0.026  0.00  0.00    +0.330 A 
ATOM      7  N   LIG    1       -1.623   4.213   0.040  0.00  0.00    -0.490 NA
ATOM      8  C   LIG    1       -2.929   3.982   0.050  0.00  0.00    +0.270 A 
ATOM      9  C   LIG    1       -3.438   2.679   0.048  0.00  0.00    -0.040 A 
ENDROOT
BRANCH   8  10
ATOM     10  C   LIG    1       -3.866   5.123   0.065  0.00  0.00    +0.060 A 
ATOM     11  C   LIG    1       -3.502   6.429   0.068  0.00  0.00    +0.040 A 
ATOM     12  C   LIG    1       -4.749   7.197   0.083  0.00  0.00    -0.140 A 
ATOM     13  C   LIG    1       -5.052   8.559   0.093  0.00  0.00    +0.070 A 
ATOM     14  C   LIG    1       -6.359   8.962   0.106  0.00  0.00    -0.010 A 
ATOM     15  C   LIG    1       -7.383   8.026   0.110  0.00  0.00    +0.050 A 
ATOM     16  C   LIG    1       -7.103   6.676   0.101  0.00  0.00    +0.030 A 
ATOM     17  C   LIG    1       -5.783   6.243   0.087  0.00  0.00    +0.070 A 
ATOM     18  O   LIG    1       -5.210   5.023   0.070  0.00  0.00    -0.180 OA
ENDBRANCH   8  10
BRANCH   1  22
ATOM     19  C   LIG    1       -3.983  -2.399   0.026  0.00  0.00    +0.140 A 
ATOM     20  C   LIG    1       -4.471  -1.492   0.957  0.00  0.00    -0.010 A 
ATOM     21  C   LIG    1       -4.010  -0.193   0.963  0.00  0.00    +0.080 A 
ATOM     22  C   LIG    1       -3.053   0.210   0.031  0.00  0.00    -0.100 A 
ATOM     23  C   LIG    1       -2.569  -0.703  -0.907  0.00  0.00    +0.080 A 
ATOM     24  C   LIG    1       -3.030  -2.002  -0.903  0.00  0.00    -0.080 A 
BRANCH  19  26
ATOM     25  C   LIG    1       -3.896  -4.559  -0.962  0.00  0.00    +0.240 C 
ATOM     26  O   LIG    1       -4.439  -3.679   0.023  0.00  0.00    -0.310 OA
ENDBRANCH  19  26
ENDBRANCH   1  22
BRANCH   5  27
ATOM     27  C   LIG    1        1.520   4.356   0.011  0.00  0.00    +0.270 C 
ATOM     28  C   LIG    1        2.391   4.330  -1.246  0.00  0.00    +0.050 C 
ATOM     29  C   LIG    1        2.414   4.317   1.252  0.00  0.00    +0.050 C 
ENDBRANCH   5  27
TORSDOF 4
