REMARK  Name = ZINCpk000000ohYe.0
REMARK                            x       y       z     vdW  Elec       q    Type
REMARK                         _______ _______ _______ _____ _____    ______ ____
ROOT
ATOM      1  N   LIG    1        0.688  -0.476  -1.203  0.00  0.00    -0.470 N 
ATOM      2  C   LIG    1        2.039  -0.731  -1.330  0.00  0.00    +0.100 A 
ATOM      3  C   LIG    1        3.123  -0.644  -0.468  0.00  0.00    +0.010 A 
ATOM      4  C   LIG    1        4.382  -0.981  -0.918  0.00  0.00    +0.130 A 
ATOM      5  C   LIG    1        4.571  -1.405  -2.226  0.00  0.00    -0.680 A 
ATOM      6  C   LIG    1        3.515  -1.496  -3.088  0.00  0.00    +0.210 A 
ATOM      7  C   LIG    1        2.231  -1.160  -2.654  0.00  0.00    +0.020 A 
ATOM      8  N   LIG    1        1.013  -1.146  -3.254  0.00  0.00    -0.480 NA
ATOM      9  C   LIG    1        0.110  -0.752  -2.404  0.00  0.00    +0.290 A 
ENDROOT
BRANCH   5  10
ATOM     10  S   LIG    1        6.189  -1.831  -2.780  0.00  0.00    +2.710 S 
ATOM     11  O   LIG    1        6.017  -2.710  -3.882  0.00  0.00    -0.960 OA
ATOM     12  O   LIG    1        6.933  -2.175  -1.619  0.00  0.00    -0.960 OA
BRANCH  10  13
ATOM     13  N   LIG    1        6.878  -0.452  -3.385  0.00  0.00    -1.250 NA
ATOM     14  H   LIG    1        7.779  -0.477  -3.744  0.00  0.00    +0.420 HD
ATOM     15  H   LIG    1        6.381   0.381  -3.381  0.00  0.00    +0.420 HD
ENDBRANCH  10  13
ENDBRANCH   5  10
BRANCH   1  16
ATOM     16  C   LIG    1        0.002  -0.004   0.002  0.00  0.00    +0.300 C 
BRANCH  16  17
ATOM     17  C   LIG    1       -0.019   1.526   0.010  0.00  0.00    +0.020 C 
BRANCH  17  19
ATOM     18  C   LIG    1       -0.756   3.549   1.278  0.00  0.00    +0.020 C 
ATOM     19  C   LIG    1       -0.735   2.019   1.269  0.00  0.00    +0.010 C 
ENDBRANCH  17  19
ENDBRANCH  16  17
ENDBRANCH   1  16
BRANCH   9  20
ATOM     20  C   LIG    1       -1.360  -0.616  -2.706  0.00  0.00    +0.310 C 
BRANCH  20  21
ATOM     21  N   LIG    1       -1.634   0.740  -3.203  0.00  0.00    -0.530 NA
ATOM     22  C   LIG    1       -0.645   1.141  -4.212  0.00  0.00    +0.180 C 
ATOM     23  C   LIG    1       -0.874   2.604  -4.598  0.00  0.00    +0.000 C 
ATOM     24  C   LIG    1       -2.292   2.764  -5.154  0.00  0.00    +0.150 C 
ATOM     25  C   LIG    1       -3.300   2.294  -4.102  0.00  0.00    +0.050 C 
ATOM     26  C   LIG    1       -3.001   0.840  -3.729  0.00  0.00    +0.190 C 
BRANCH  24  27
ATOM     27  O   LIG    1       -2.531   4.138  -5.465  0.00  0.00    -0.570 OA
ATOM     28  H   LIG    1       -1.928   4.503  -6.126  0.00  0.00    +0.380 HD
ENDBRANCH  24  27
ENDBRANCH  20  21
ENDBRANCH   9  20
TORSDOF 8
