REMARK  Name = ZINCrH000004q8yJ.0
REMARK                            x       y       z     vdW  Elec       q    Type
REMARK                         _______ _______ _______ _____ _____    ______ ____
ROOT
ATOM      1  C   LIG    1       -2.450   4.473  -2.655  0.00  0.00    +0.600 C 
ATOM      2  N   LIG    1       -2.276   3.810  -1.495  0.00  0.00    -0.710 N 
ATOM      3  H   LIG    1       -2.833   4.019  -0.729  0.00  0.00    +0.420 HD
ATOM      4  O   LIG    1       -1.752   4.211  -3.616  0.00  0.00    -0.510 OA
ENDROOT
BRANCH   1   7
ATOM      5  C   LIG    1       -3.044   6.154  -5.204  0.00  0.00    +0.140 C 
ATOM      6  C   LIG    1       -3.743   6.248  -3.872  0.00  0.00    -0.070 A 
ATOM      7  C   LIG    1       -3.482   5.514  -2.760  0.00  0.00    -0.030 A 
ATOM      8  O   LIG    1       -4.311   5.888  -1.762  0.00  0.00    -0.180 OA
ATOM      9  C   LIG    1       -5.144   6.866  -2.172  0.00  0.00    +0.070 A 
ATOM     10  C   LIG    1       -6.159   7.575  -1.541  0.00  0.00    +0.070 A 
ATOM     11  C   LIG    1       -6.856   8.542  -2.232  0.00  0.00    +0.040 A 
ATOM     12  C   LIG    1       -6.557   8.821  -3.560  0.00  0.00    +0.080 A 
ATOM     13  C   LIG    1       -5.555   8.130  -4.206  0.00  0.00    +0.060 A 
ATOM     14  F   LIG    1       -7.253   9.772  -4.221  0.00  0.00    -0.130 F 
ATOM     15  C   LIG    1       -4.840   7.147  -3.517  0.00  0.00    -0.120 A 
ENDBRANCH   1   7
BRANCH   2  16
ATOM     16  C   LIG    1       -1.247   2.773  -1.391  0.00  0.00    +0.290 C 
BRANCH  16  17
ATOM     17  C   LIG    1       -1.259   2.182   0.020  0.00  0.00    +0.250 C 
BRANCH  17  18
ATOM     18  N   LIG    1       -1.105   3.261   1.005  0.00  0.00    -0.520 NA
ATOM     19  C   LIG    1       -0.006   4.163   0.629  0.00  0.00    +0.140 C 
ATOM     20  C   LIG    1        0.081   5.303   1.647  0.00  0.00    +0.230 C 
ATOM     21  O   LIG    1        0.254   4.754   2.957  0.00  0.00    -0.380 OA
ATOM     22  C   LIG    1       -0.798   3.872   3.355  0.00  0.00    +0.220 C 
ATOM     23  C   LIG    1       -0.894   2.717   2.354  0.00  0.00    +0.160 C 
ENDBRANCH  17  18
BRANCH  17  24
ATOM     24  C   LIG    1       -0.122   1.203   0.165  0.00  0.00    -0.220 A 
ATOM     25  C   LIG    1       -0.255  -0.120   0.264  0.00  0.00    +0.030 A 
ATOM     26  C   LIG    1        0.935  -0.818   0.383  0.00  0.00    +0.000 A 
ATOM     27  C   LIG    1        2.033  -0.062   0.381  0.00  0.00    -0.060 A 
ATOM     28  S   LIG    1        1.583   1.631   0.221  0.00  0.00    +0.120 S 
ENDBRANCH  17  24
ENDBRANCH  16  17
ENDBRANCH   2  16
TORSDOF 5
