REMARK  Name = ZINCtV00001bB35N.0
REMARK                            x       y       z     vdW  Elec       q    Type
REMARK                         _______ _______ _______ _____ _____    ______ ____
ROOT
ATOM      1  C   LIG    1       -1.225   2.136   0.019  0.00  0.00    +0.580 A 
ATOM      2  N   LIG    1       -2.336   1.427   0.015  0.00  0.00    -0.570 NA
ATOM      3  C   LIG    1       -3.537   2.022   0.029  0.00  0.00    +0.210 A 
ATOM      4  C   LIG    1       -4.732   1.290   0.030  0.00  0.00    +0.020 A 
ATOM      5  C   LIG    1       -5.926   1.949   0.039  0.00  0.00    +0.060 A 
ATOM      6  C   LIG    1       -5.978   3.339   0.046  0.00  0.00    -0.010 A 
ATOM      7  C   LIG    1       -4.832   4.083   0.045  0.00  0.00    +0.060 A 
ATOM      8  C   LIG    1       -3.595   3.438   0.037  0.00  0.00    -0.200 A 
ATOM      9  C   LIG    1       -2.329   4.175   0.035  0.00  0.00    +0.340 A 
ATOM     10  N   LIG    1       -1.202   3.464   0.027  0.00  0.00    -0.550 NA
ENDROOT
BRANCH   9  11
ATOM     11  C   LIG    1       -2.302   5.644   0.044  0.00  0.00    -0.180 A 
ATOM     12  C   LIG    1       -1.375   6.410   0.689  0.00  0.00    +0.090 A 
ATOM     13  C   LIG    1       -1.553   7.761   0.551  0.00  0.00    +0.020 A 
ATOM     14  C   LIG    1       -2.632   8.122  -0.200  0.00  0.00    -0.140 A 
ATOM     15  S   LIG    1       -3.465   6.682  -0.769  0.00  0.00    +0.200 S 
BRANCH  14  16
ATOM     16  C   LIG    1       -3.039   9.511  -0.492  0.00  0.00    -0.020 A 
ATOM     17  C   LIG    1       -2.301  10.580   0.021  0.00  0.00    +0.050 A 
ATOM     18  C   LIG    1       -2.684  11.876  -0.259  0.00  0.00    +0.040 A 
ATOM     19  C   LIG    1       -3.803  12.117  -1.038  0.00  0.00    -0.030 A 
ATOM     20  C   LIG    1       -4.542  11.061  -1.544  0.00  0.00    +0.040 A 
ATOM     21 CL   LIG    1       -4.282  13.750  -1.380  0.00  0.00    -0.060 Cl
ATOM     22  C   LIG    1       -4.167   9.762  -1.276  0.00  0.00    +0.030 A 
ENDBRANCH  14  16
ENDBRANCH   9  11
BRANCH   1  23
ATOM     23  N   LIG    1       -0.018   1.461   0.010  0.00  0.00    -0.690 N 
ATOM     24  H   LIG    1        0.816   1.957   0.005  0.00  0.00    +0.410 HD
BRANCH  23  25
ATOM     25  C   LIG    1        0.002  -0.004   0.002  0.00  0.00    +0.270 C 
ATOM     26  C   LIG    1       -0.103  -0.523   1.437  0.00  0.00    +0.020 C 
BRANCH  25  28
ATOM     27  C   LIG    1        1.415   0.026  -2.058  0.00  0.00    +0.030 C 
ATOM     28  C   LIG    1        1.310  -0.493  -0.623  0.00  0.00    -0.020 C 
BRANCH  28  29
ATOM     29  C   LIG    1        1.331  -2.023  -0.631  0.00  0.00    +0.180 C 
BRANCH  29  30
ATOM     30  O   LIG    1        2.599  -2.479  -1.107  0.00  0.00    -0.570 OA
ATOM     31  H   LIG    1        2.684  -3.442  -1.139  0.00  0.00    +0.380 HD
ENDBRANCH  29  30
ENDBRANCH  28  29
ENDBRANCH  25  28
ENDBRANCH  23  25
ENDBRANCH   1  23
TORSDOF 7
