REMARK  Name = ZINCtV00001bB3O0.0
REMARK                            x       y       z     vdW  Elec       q    Type
REMARK                         _______ _______ _______ _____ _____    ______ ____
ROOT
ATOM      1  C   LIG    1        1.449  -1.145  -0.123  0.00  0.00    +0.090 C 
ATOM      2  C   LIG    1        2.520  -0.322  -0.073  0.00  0.00    -0.190 C 
ATOM      3  C   LIG    1        2.455   1.103  -0.584  0.00  0.00    +0.090 C 
ATOM      4  C   LIG    1        3.023   2.039   0.486  0.00  0.00    +0.030 C 
ATOM      5  C   LIG    1        4.481   1.675   0.780  0.00  0.00    +0.090 C 
ATOM      6  C   LIG    1        4.537   0.247   1.285  0.00  0.00    -0.180 C 
ATOM      7  C   LIG    1        5.209  -0.083   2.409  0.00  0.00    +0.090 C 
ATOM      8  C   LIG    1        3.817  -0.767   0.482  0.00  0.00    +0.420 C 
ATOM      9  O   LIG    1        4.261  -1.887   0.292  0.00  0.00    -0.420 OA
ENDROOT
BRANCH   1  13
ATOM     10  C   LIG    1        1.955  -5.322   0.409  0.00  0.00    +0.150 A 
ATOM     11  C   LIG    1        1.005  -4.638   1.160  0.00  0.00    -0.040 A 
ATOM     12  C   LIG    1        0.837  -3.282   0.992  0.00  0.00    +0.070 A 
ATOM     13  C   LIG    1        1.624  -2.592   0.062  0.00  0.00    -0.130 A 
ATOM     14  C   LIG    1        2.575  -3.286  -0.696  0.00  0.00    +0.120 A 
ATOM     15  C   LIG    1        2.739  -4.641  -0.516  0.00  0.00    -0.090 A 
BRANCH  10  17
ATOM     16  C   LIG    1        3.011  -7.323  -0.316  0.00  0.00    +0.250 C 
ATOM     17  O   LIG    1        2.117  -6.658   0.579  0.00  0.00    -0.320 OA
ENDBRANCH  10  17
ENDBRANCH   1  13
BRANCH   7  18
ATOM     18  C   LIG    1        5.066  -1.429   2.983  0.00  0.00    -0.070 A 
ATOM     19  C   LIG    1        3.834  -2.090   2.919  0.00  0.00    +0.040 A 
ATOM     20  C   LIG    1        3.704  -3.348   3.450  0.00  0.00    +0.020 A 
ATOM     21  C   LIG    1        4.797  -3.964   4.063  0.00  0.00    -0.040 A 
ATOM     22  C   LIG    1        6.024  -3.304   4.132  0.00  0.00    +0.020 A 
ATOM     23  C   LIG    1        6.160  -2.049   3.598  0.00  0.00    +0.030 A 
BRANCH  21  24
ATOM     24  C   LIG    1        4.652  -5.321   4.641  0.00  0.00    -0.050 A 
ATOM     25  C   LIG    1        5.769  -5.993   5.137  0.00  0.00    +0.010 A 
ATOM     26  C   LIG    1        5.627  -7.254   5.679  0.00  0.00    +0.000 A 
ATOM     27  C   LIG    1        4.383  -7.857   5.720  0.00  0.00    +0.000 A 
ATOM     28  C   LIG    1        3.272  -7.197   5.224  0.00  0.00    +0.000 A 
ATOM     29  C   LIG    1        3.400  -5.934   4.685  0.00  0.00    +0.020 A 
ENDBRANCH  21  24
ENDBRANCH   7  18
TORSDOF 4
