REMARK  Name = ZINCnE000001Gq54.1
REMARK                            x       y       z     vdW  Elec       q    Type
REMARK                         _______ _______ _______ _____ _____    ______ ____
ROOT
ATOM      1  C   LIG    1       -1.256  -0.753   0.010  0.00  0.00    -0.160 A 
ATOM      2  C   LIG    1       -1.305  -2.125   0.003  0.00  0.00    +0.210 A 
ATOM      3  S   LIG    1       -2.942  -2.619   0.017  0.00  0.00    +0.090 S 
ATOM      4  C   LIG    1       -3.473  -0.943   0.032  0.00  0.00    -0.090 A 
ATOM      5  N   LIG    1       -2.454  -0.159   0.030  0.00  0.00    -0.370 NA
ENDROOT
BRANCH   2   6
ATOM      6  N   LIG    1       -0.208  -2.971  -0.012  0.00  0.00    -0.640 NA
ATOM      7  C   LIG    1       -0.387  -4.307  -0.018  0.00  0.00    +0.640 C 
ATOM      8  N   LIG    1        0.681  -5.130  -0.033  0.00  0.00    -0.730 N 
ATOM      9  H   LIG    1        1.578  -4.760  -0.039  0.00  0.00    +0.390 HD
ATOM     10  O   LIG    1       -1.511  -4.770  -0.009  0.00  0.00    -0.630 OA
BRANCH   8  11
ATOM     11  C   LIG    1        0.486  -6.582  -0.038  0.00  0.00    +0.240 C 
ATOM     12  C   LIG    1        0.308  -7.078   1.398  0.00  0.00    +0.000 C 
BRANCH  11  13
ATOM     13  C   LIG    1        1.708  -7.257  -0.664  0.00  0.00    +0.000 C 
ATOM     14  C   LIG    1        1.815  -6.857  -2.137  0.00  0.00    +0.010 C 
ENDBRANCH  11  13
ENDBRANCH   8  11
ENDBRANCH   2   6
BRANCH   1  15
ATOM     15  C   LIG    1        0.002  -0.004   0.002  0.00  0.00    +0.550 C 
ATOM     16  O   LIG    1        1.064  -0.598  -0.011  0.00  0.00    -0.510 OA
BRANCH  15  17
ATOM     17  O   LIG    1       -0.016   1.345   0.009  0.00  0.00    -0.360 OA
BRANCH  17  19
ATOM     18  C   LIG    1        1.047   3.535   0.011  0.00  0.00    +0.040 C 
ATOM     19  C   LIG    1        1.268   2.022   0.001  0.00  0.00    +0.180 C 
ENDBRANCH  17  19
ENDBRANCH  15  17
ENDBRANCH   1  15
BRANCH   4  20
ATOM     20  C   LIG    1       -4.911  -0.491   0.048  0.00  0.00    +0.140 C 
BRANCH  20  21
ATOM     21  C   LIG    1       -5.412  -0.331  -1.389  0.00  0.00    +0.290 C 
ATOM     22  F   LIG    1       -5.316  -1.557  -2.055  0.00  0.00    -0.200 F 
ATOM     23  F   LIG    1       -4.631   0.622  -2.051  0.00  0.00    -0.190 F 
ATOM     24  C   LIG    1       -6.872   0.127  -1.372  0.00  0.00    +0.070 C 
ENDBRANCH  20  21
ENDBRANCH   4  20
TORSDOF 8
