REMARK  Name = ZINCtV00000L6jG5.0
REMARK                            x       y       z     vdW  Elec       q    Type
REMARK                         _______ _______ _______ _____ _____    ______ ____
ROOT
ATOM      1  N   LIG    1       -6.426   2.416  -2.660  0.00  0.00    -0.650 NA
ATOM      2  H   LIG    1       -6.336   1.478  -2.892  0.00  0.00    +0.380 HD
ATOM      3  C   LIG    1       -5.394   3.080  -2.221  0.00  0.00    +0.410 C 
ATOM      4  S   LIG    1       -3.759   2.440  -1.984  0.00  0.00    -0.090 S 
ATOM      5  C   LIG    1       -3.072   4.019  -1.384  0.00  0.00    +0.070 C 
ATOM      6  C   LIG    1       -4.255   4.959  -1.426  0.00  0.00    +0.530 C 
ATOM      7  O   LIG    1       -4.183   6.122  -1.093  0.00  0.00    -0.410 OA
ATOM      8  N   LIG    1       -5.375   4.404  -1.857  0.00  0.00    -0.460 N 
ENDROOT
BRANCH   8   9
ATOM      9  C   LIG    1       -6.538   5.164  -1.942  0.00  0.00    +0.210 A 
ATOM     10  N   LIG    1       -6.632   6.416  -1.621  0.00  0.00    -0.460 NA
ATOM     11  C   LIG    1       -7.814   6.985  -1.769  0.00  0.00    +0.250 A 
ATOM     12  C   LIG    1       -8.767   6.171  -2.228  0.00  0.00    -0.260 A 
ATOM     13  S   LIG    1       -8.053   4.581  -2.480  0.00  0.00    +0.270 S 
BRANCH  12  14
ATOM     14  C   LIG    1      -10.203   6.548  -2.486  0.00  0.00    +0.200 C 
BRANCH  14  15
ATOM     15  C   LIG    1      -10.348   7.034  -3.905  0.00  0.00    -0.060 A 
ATOM     16  C   LIG    1      -10.842   6.187  -4.879  0.00  0.00    +0.040 A 
ATOM     17  C   LIG    1      -10.975   6.632  -6.181  0.00  0.00    +0.040 A 
ATOM     18  C   LIG    1      -10.614   7.925  -6.510  0.00  0.00    +0.040 A 
ATOM     19  C   LIG    1      -10.120   8.774  -5.537  0.00  0.00    -0.030 A 
ATOM     20 CL   LIG    1       -9.665  10.398  -5.950  0.00  0.00    -0.050 Cl
ATOM     21  C   LIG    1       -9.991   8.330  -4.232  0.00  0.00    -0.020 A 
ATOM     22 CL   LIG    1       -9.377   9.397  -3.008  0.00  0.00    -0.040 Cl
ENDBRANCH  14  15
ENDBRANCH  12  14
ENDBRANCH   8   9
BRANCH   5  23
ATOM     23  C   LIG    1       -2.552   3.871   0.047  0.00  0.00    +0.150 C 
BRANCH  23  24
ATOM     24  C   LIG    1       -1.295   3.041   0.041  0.00  0.00    -0.090 A 
ATOM     25  C   LIG    1       -1.359   1.689   0.320  0.00  0.00    +0.050 A 
ATOM     26  C   LIG    1       -0.205   0.926   0.315  0.00  0.00    +0.020 A 
ATOM     27  C   LIG    1        1.012   1.516   0.031  0.00  0.00    +0.030 A 
ATOM     28  C   LIG    1        1.077   2.868  -0.249  0.00  0.00    +0.030 A 
ATOM     29  C   LIG    1       -0.076   3.632  -0.238  0.00  0.00    -0.030 A 
ATOM     30 CL   LIG    1        0.006   5.332  -0.581  0.00  0.00    -0.060 Cl
ENDBRANCH  23  24
ENDBRANCH   5  23
TORSDOF 5
