REMARK  Name = ZINCpk00000xIgkI.0
REMARK                            x       y       z     vdW  Elec       q    Type
REMARK                         _______ _______ _______ _____ _____    ______ ____
ROOT
ATOM      1  N   LIG    1       -3.613   0.473  -0.205  0.00  0.00    -0.290 N 
ATOM      2  N   LIG    1       -4.739   1.025  -0.505  0.00  0.00    -0.240 NA
ATOM      3  C   LIG    1       -4.622   2.317  -0.544  0.00  0.00    -0.000 A 
ATOM      4  C   LIG    1       -3.290   2.635  -0.234  0.00  0.00    -0.110 A 
ATOM      5  C   LIG    1       -2.775   4.048  -0.195  0.00  0.00    +0.120 C 
ATOM      6  C   LIG    1       -3.813   4.939  -0.897  0.00  0.00    +0.150 C 
ATOM      7  O   LIG    1       -5.121   4.638  -0.407  0.00  0.00    -0.370 OA
ATOM      8  C   LIG    1       -3.492   6.409  -0.619  0.00  0.00    +0.070 C 
ATOM      9  C   LIG    1       -5.652   3.378  -0.844  0.00  0.00    +0.260 C 
ATOM     10  C   LIG    1       -6.947   3.072  -0.088  0.00  0.00    +0.070 C 
ATOM     11  C   LIG    1       -2.658   1.440  -0.024  0.00  0.00    -0.030 A 
ENDROOT
BRANCH  11  12
ATOM     12  C   LIG    1       -1.244   1.236   0.330  0.00  0.00    +0.590 C 
ATOM     13  N   LIG    1       -0.799   0.002   0.639  0.00  0.00    -0.730 N 
ATOM     14  H   LIG    1       -1.423  -0.738   0.702  0.00  0.00    +0.400 HD
ATOM     15  O   LIG    1       -0.476   2.179   0.339  0.00  0.00    -0.510 OA
BRANCH  13  16
ATOM     16  C   LIG    1        0.629  -0.223   0.880  0.00  0.00    +0.300 C 
BRANCH  16  17
ATOM     17  C   LIG    1        0.882  -1.717   1.086  0.00  0.00    -0.100 C 
ATOM     18  C   LIG    1        2.361  -2.116   0.946  0.00  0.00    +0.050 C 
ATOM     19  C   LIG    1        1.869  -3.373   0.206  0.00  0.00    +0.010 C 
ATOM     20  C   LIG    1        0.614  -2.566  -0.168  0.00  0.00    +0.030 C 
BRANCH  17  21
ATOM     21  C   LIG    1        0.217  -2.264   2.351  0.00  0.00    +0.190 C 
BRANCH  21  22
ATOM     22  O   LIG    1        0.741  -1.588   3.495  0.00  0.00    -0.570 OA
ATOM     23  H   LIG    1        0.364  -1.884   4.335  0.00  0.00    +0.380 HD
ENDBRANCH  21  22
ENDBRANCH  17  21
ENDBRANCH  16  17
ENDBRANCH  13  16
ENDBRANCH  11  12
BRANCH   1  24
ATOM     24  C   LIG    1       -3.388  -0.968  -0.075  0.00  0.00    +0.350 C 
BRANCH  24  25
ATOM     25  C   LIG    1       -3.464  -1.366   1.401  0.00  0.00    +0.160 C 
BRANCH  25  27
ATOM     26  C   LIG    1       -3.295  -3.249   2.873  0.00  0.00    +0.220 C 
ATOM     27  O   LIG    1       -3.245  -2.772   1.527  0.00  0.00    -0.380 OA
ENDBRANCH  25  27
ENDBRANCH  24  25
ENDBRANCH   1  24
TORSDOF 8
