REMARK  Name = ZINCpk00000y6umD.0
REMARK                            x       y       z     vdW  Elec       q    Type
REMARK                         _______ _______ _______ _____ _____    ______ ____
ROOT
ATOM      1  C   LIG    1        3.214   3.514   2.057  0.00  0.00    +0.580 C 
ATOM      2  N   LIG    1        3.488   3.430   0.740  0.00  0.00    -0.600 N 
ATOM      3  C   LIG    1        3.662   4.572  -0.176  0.00  0.00    +0.240 C 
ATOM      4  C   LIG    1        4.534   4.023  -1.333  0.00  0.00    +0.180 C 
ATOM      5  C   LIG    1        3.987   2.576  -1.478  0.00  0.00    +0.080 C 
ATOM      6  C   LIG    1        3.662   2.184  -0.022  0.00  0.00    +0.270 C 
ATOM      7  O   LIG    1        3.043   4.600   2.574  0.00  0.00    -0.520 OA
ENDROOT
BRANCH   6   8
ATOM      8  C   LIG    1        2.390   1.377   0.020  0.00  0.00    -0.100 A 
ATOM      9  C   LIG    1        1.171   2.014   0.158  0.00  0.00    +0.060 A 
ATOM     10  C   LIG    1        0.004   1.276   0.197  0.00  0.00    +0.030 A 
ATOM     11  C   LIG    1        0.054  -0.103   0.097  0.00  0.00    +0.070 A 
ATOM     12  C   LIG    1        1.276  -0.743  -0.041  0.00  0.00    +0.080 A 
ATOM     13  F   LIG    1        1.328  -2.090  -0.139  0.00  0.00    -0.120 F 
ATOM     14  F   LIG    1       -1.087  -0.826   0.134  0.00  0.00    -0.120 F 
ATOM     15  C   LIG    1        2.443  -0.001  -0.080  0.00  0.00    +0.040 A 
ENDBRANCH   6   8
BRANCH   1  19
ATOM     16  C   LIG    1        2.978  -0.032   4.311  0.00  0.00    +0.100 A 
ATOM     17  C   LIG    1        2.639   1.168   4.932  0.00  0.00    +0.040 A 
ATOM     18  C   LIG    1        2.710   2.346   4.208  0.00  0.00    +0.140 A 
ATOM     19  C   LIG    1        3.122   2.283   2.873  0.00  0.00    -0.170 A 
ATOM     20  C   LIG    1        3.440   1.040   2.319  0.00  0.00    +0.290 A 
ATOM     21  N   LIG    1        3.364  -0.056   3.041  0.00  0.00    -0.460 NA
BRANCH  16  25
ATOM     22  N   LIG    1        3.230  -2.466   4.485  0.00  0.00    -0.830 N 
ATOM     23  H   LIG    1        3.182  -3.294   4.986  0.00  0.00    +0.410 HD
ATOM     24  H   LIG    1        3.512  -2.476   3.557  0.00  0.00    +0.410 HD
ATOM     25  C   LIG    1        2.904  -1.300   5.077  0.00  0.00    +0.580 C 
ATOM     26  O   LIG    1        2.551  -1.287   6.240  0.00  0.00    -0.530 OA
ENDBRANCH  16  25
ENDBRANCH   1  19
BRANCH   4  27
ATOM     27  O   LIG    1        5.917   4.013  -0.973  0.00  0.00    -0.560 OA
ATOM     28  H   LIG    1        6.278   4.888  -0.776  0.00  0.00    +0.390 HD
ENDBRANCH   4  27
TORSDOF 4
