REMARK  Name = ZINCvU0000000ALy.0
REMARK                            x       y       z     vdW  Elec       q    Type
REMARK                         _______ _______ _______ _____ _____    ______ ____
ROOT
ATOM      1  N   LIG    1        0.176   1.605   0.078  0.00  0.00    -0.480 N 
ATOM      2  C   LIG    1        1.552   2.111   0.011  0.00  0.00    +0.200 C 
ATOM      3  C   LIG    1        2.209   1.635  -1.287  0.00  0.00    +0.050 C 
ATOM      4  C   LIG    1        2.207   0.104  -1.322  0.00  0.00    -0.010 C 
ATOM      5  C   LIG    1        0.765  -0.399  -1.202  0.00  0.00    +0.060 C 
ATOM      6  C   LIG    1        0.150   0.137   0.093  0.00  0.00    +0.200 C 
ENDROOT
BRANCH   1  11
ATOM      7  C   LIG    1       -3.859   5.167  -1.111  0.00  0.00    +0.140 C 
ATOM      8  C   LIG    1       -3.112   4.460  -0.009  0.00  0.00    -0.180 A 
ATOM      9  C   LIG    1       -2.122   3.612  -0.208  0.00  0.00    -0.060 A 
ATOM     10  C   LIG    1       -1.550   3.051   1.002  0.00  0.00    -0.140 A 
ATOM     11  C   LIG    1       -0.490   2.124   1.174  0.00  0.00    +0.400 A 
ATOM     12  N   LIG    1       -0.152   1.758   2.402  0.00  0.00    -0.550 NA
ATOM     13  C   LIG    1       -0.775   2.249   3.458  0.00  0.00    +0.520 A 
ATOM     14  N   LIG    1       -1.761   3.110   3.351  0.00  0.00    -0.490 NA
ATOM     15  C   LIG    1       -2.179   3.535   2.152  0.00  0.00    +0.090 A 
ATOM     16  C   LIG    1       -1.624   3.252  -1.584  0.00  0.00    +0.130 C 
ATOM     17  S   LIG    1       -3.450   4.661   1.700  0.00  0.00    +0.170 S 
ENDBRANCH   1  11
BRANCH   4  18
ATOM     18  C   LIG    1        2.798  -0.370  -2.624  0.00  0.00    +0.520 C 
ATOM     19  N   LIG    1        4.066  -0.046  -2.947  0.00  0.00    -0.670 N 
ATOM     20  H   LIG    1        4.623   0.426  -2.308  0.00  0.00    +0.410 HD
ATOM     21  O   LIG    1        2.133  -1.045  -3.382  0.00  0.00    -0.510 OA
BRANCH  19  22
ATOM     22  C   LIG    1        4.579  -0.390  -4.204  0.00  0.00    +0.140 A 
ATOM     23  C   LIG    1        3.752  -0.377  -5.319  0.00  0.00    +0.070 A 
ATOM     24  C   LIG    1        4.259  -0.716  -6.559  0.00  0.00    -0.010 A 
ATOM     25  C   LIG    1        5.593  -1.070  -6.690  0.00  0.00    +0.100 A 
ATOM     26  C   LIG    1        6.421  -1.084  -5.575  0.00  0.00    -0.030 A 
ATOM     27 CL   LIG    1        8.091  -1.526  -5.741  0.00  0.00    -0.040 Cl
ATOM     28  C   LIG    1        5.917  -0.740  -4.336  0.00  0.00    +0.040 A 
BRANCH  25  29
ATOM     29  O   LIG    1        6.091  -1.404  -7.911  0.00  0.00    -0.310 OA
BRANCH  29  30
ATOM     30  C   LIG    1        5.182  -1.368  -9.014  0.00  0.00    +0.600 C 
ATOM     31  F   LIG    1        4.673  -0.073  -9.157  0.00  0.00    -0.200 F 
ATOM     32  F   LIG    1        4.130  -2.260  -8.780  0.00  0.00    -0.200 F 
ENDBRANCH  29  30
ENDBRANCH  25  29
ENDBRANCH  19  22
ENDBRANCH   4  18
TORSDOF 5
