REMARK  Name = ZINCpk00000ebM85.0
REMARK                            x       y       z     vdW  Elec       q    Type
REMARK                         _______ _______ _______ _____ _____    ______ ____
ROOT
ATOM      1  N   LIG    1        0.196   3.656  -1.005  0.00  0.00    -0.520 NA
ATOM      2  C   LIG    1       -1.137   3.061  -0.836  0.00  0.00    +0.180 C 
ATOM      3  C   LIG    1       -2.096   3.663  -1.865  0.00  0.00    +0.190 C 
ATOM      4  N   LIG    1       -1.579   3.415  -3.217  0.00  0.00    -0.530 NA
ATOM      5  C   LIG    1       -0.246   4.011  -3.386  0.00  0.00    +0.200 C 
ATOM      6  C   LIG    1        0.713   3.408  -2.357  0.00  0.00    +0.190 C 
ENDROOT
BRANCH   1  15
ATOM      7  O   LIG    1        0.522   2.412   2.176  0.00  0.00    -0.550 OA
ATOM      8  C   LIG    1        0.521   3.336   1.391  0.00  0.00    +0.530 C 
ATOM      9  N   LIG    1       -0.016   4.506   1.741  0.00  0.00    -0.720 N 
ATOM     10  H   LIG    1       -0.399   4.615   2.626  0.00  0.00    +0.400 HD
ATOM     11  C   LIG    1       -0.035   5.631   0.793  0.00  0.00    +0.280 C 
ATOM     12  C   LIG    1        1.395   6.171   0.653  0.00  0.00    +0.000 C 
ATOM     13  C   LIG    1        2.160   5.405  -0.411  0.00  0.00    +0.020 C 
ATOM     14  C   LIG    1        2.433   3.957  -0.046  0.00  0.00    +0.040 C 
ATOM     15  C   LIG    1        1.128   3.158   0.015  0.00  0.00    +0.150 C 
ENDBRANCH   1  15
BRANCH   4  16
ATOM     16  C   LIG    1       -2.512   3.913  -4.237  0.00  0.00    +0.310 C 
BRANCH  16  17
ATOM     17  C   LIG    1       -3.785   3.108  -4.190  0.00  0.00    +0.290 A 
ATOM     18  N   LIG    1       -3.975   1.979  -4.807  0.00  0.00    -0.460 NA
ATOM     19  C   LIG    1       -5.229   1.524  -4.549  0.00  0.00    +0.010 A 
ATOM     20  C   LIG    1       -5.942   0.387  -4.943  0.00  0.00    +0.160 A 
ATOM     21  C   LIG    1       -7.236   0.206  -4.506  0.00  0.00    -0.020 A 
ATOM     22  C   LIG    1       -7.837   1.143  -3.678  0.00  0.00    +0.070 A 
ATOM     23  C   LIG    1       -7.148   2.269  -3.280  0.00  0.00    +0.010 A 
ATOM     24  F   LIG    1       -5.364  -0.531  -5.749  0.00  0.00    -0.130 F 
ATOM     25  C   LIG    1       -5.843   2.469  -3.710  0.00  0.00    +0.080 A 
ATOM     26  N   LIG    1       -4.904   3.459  -3.501  0.00  0.00    -0.600 N 
ATOM     27  H   LIG    1       -5.022   4.258  -2.963  0.00  0.00    +0.420 HD
ENDBRANCH  16  17
ENDBRANCH   4  16
TORSDOF 3
