REMARK  Name = ZINCqH0000003xOj.0
REMARK                            x       y       z     vdW  Elec       q    Type
REMARK                         _______ _______ _______ _____ _____    ______ ____
ROOT
ATOM      1  C   LIG    1       -3.700  -0.695   1.472  0.00  0.00    +0.150 A 
ATOM      2  C   LIG    1       -4.736   0.224   1.379  0.00  0.00    +0.030 A 
ATOM      3  C   LIG    1       -6.047  -0.203   1.471  0.00  0.00    +0.030 A 
ATOM      4  C   LIG    1       -6.327  -1.542   1.667  0.00  0.00    +0.020 A 
ATOM      5  C   LIG    1       -5.297  -2.460   1.766  0.00  0.00    -0.080 A 
ATOM      6  C   LIG    1       -3.985  -2.040   1.670  0.00  0.00    +0.010 A 
ENDROOT
BRANCH   1   8
ATOM      7  C   LIG    1       -2.055   0.770   0.574  0.00  0.00    +0.510 C 
ATOM      8  N   LIG    1       -2.372  -0.267   1.374  0.00  0.00    -0.670 N 
ATOM      9  H   LIG    1       -1.678  -0.717   1.882  0.00  0.00    +0.410 HD
ATOM     10  O   LIG    1       -2.904   1.271  -0.133  0.00  0.00    -0.490 OA
BRANCH   7  11
ATOM     11  C   LIG    1       -0.648   1.308   0.558  0.00  0.00    +0.160 C 
ATOM     12  C   LIG    1        0.300   0.240   0.008  0.00  0.00    +0.040 C 
BRANCH  11  13
ATOM     13  O   LIG    1       -0.591   2.469  -0.273  0.00  0.00    -0.350 OA
BRANCH  13  14
ATOM     14  C   LIG    1        0.399   3.420   0.125  0.00  0.00    +0.190 C 
BRANCH  14  15
ATOM     15  C   LIG    1        0.371   4.615  -0.830  0.00  0.00    +0.190 C 
BRANCH  15  16
ATOM     16  O   LIG    1       -0.880   5.296  -0.704  0.00  0.00    -0.380 OA
BRANCH  16  18
ATOM     17  C   LIG    1       -2.380   7.081  -1.339  0.00  0.00    +0.040 C 
ATOM     18  C   LIG    1       -1.010   6.434  -1.558  0.00  0.00    +0.160 C 
ENDBRANCH  16  18
ENDBRANCH  15  16
ENDBRANCH  14  15
ENDBRANCH  13  14
ENDBRANCH  11  13
ENDBRANCH   7  11
ENDBRANCH   1   8
BRANCH   5  19
ATOM     19  C   LIG    1       -5.607  -3.919   1.981  0.00  0.00    +0.260 C 
BRANCH  19  20
ATOM     20  O   LIG    1       -5.667  -4.192   3.382  0.00  0.00    -0.300 OA
BRANCH  20  21
ATOM     21  C   LIG    1       -5.939  -5.472   3.750  0.00  0.00    +0.160 A 
ATOM     22  C   LIG    1       -6.149  -6.443   2.783  0.00  0.00    -0.080 A 
ATOM     23  C   LIG    1       -6.420  -7.745   3.158  0.00  0.00    +0.090 A 
ATOM     24  C   LIG    1       -6.493  -8.079   4.497  0.00  0.00    -0.050 A 
ATOM     25  C   LIG    1       -6.289  -7.111   5.466  0.00  0.00    +0.140 A 
ATOM     26  F   LIG    1       -6.361  -7.439   6.775  0.00  0.00    -0.130 F 
ATOM     27  C   LIG    1       -6.012  -5.807   5.094  0.00  0.00    -0.050 A 
ENDBRANCH  20  21
ENDBRANCH  19  20
ENDBRANCH   5  19
TORSDOF 10
