REMARK  Name = ZINCkj00000haZ4M.1
REMARK                            x       y       z     vdW  Elec       q    Type
REMARK                         _______ _______ _______ _____ _____    ______ ____
ROOT
ATOM      1  N   LIG    1        3.848   0.445   2.264  0.00  0.00    -0.380 N 
ATOM      2  C   LIG    1        3.098  -0.425   3.178  0.00  0.00    +0.260 C 
ATOM      3  C   LIG    1        3.940  -0.709   4.423  0.00  0.00    +0.050 C 
ATOM      4  C   LIG    1        5.240  -1.403   4.007  0.00  0.00    +0.040 C 
ATOM      5  C   LIG    1        5.978  -0.519   2.997  0.00  0.00    +0.050 C 
ATOM      6  C   LIG    1        5.059  -0.244   1.804  0.00  0.00    +0.180 C 
ATOM      7  H   LIG    1        4.107   1.294   2.745  0.00  0.00    +0.420 HD
ENDROOT
BRANCH   1   8
ATOM      8  C   LIG    1        3.006   0.778   1.107  0.00  0.00    +0.280 C 
BRANCH   8   9
ATOM      9  C   LIG    1        1.835   1.651   1.562  0.00  0.00    +0.190 C 
BRANCH   9  10
ATOM     10  C   LIG    1        1.078   2.168   0.337  0.00  0.00    -0.080 C 
ATOM     11  C   LIG    1       -0.040   3.185   0.574  0.00  0.00    +0.040 C 
ATOM     12  C   LIG    1       -0.385   1.747   0.181  0.00  0.00    +0.050 C 
ENDBRANCH   9  10
BRANCH   9  13
ATOM     13  O   LIG    1        0.952   0.877   2.376  0.00  0.00    -0.380 OA
BRANCH  13  15
ATOM     14  C   LIG    1       -0.541   0.692   4.267  0.00  0.00    +0.050 C 
ATOM     15  C   LIG    1        0.267   1.636   3.374  0.00  0.00    +0.170 C 
ENDBRANCH  13  15
ENDBRANCH   9  13
ENDBRANCH   8   9
ENDBRANCH   1   8
BRANCH   6  16
ATOM     16  C   LIG    1        5.793   0.637   0.791  0.00  0.00    +0.080 C 
BRANCH  16  17
ATOM     17  C   LIG    1        7.017  -0.110   0.258  0.00  0.00    -0.340 C 
BRANCH  17  18
ATOM     18  S   LIG    1        7.962   0.983  -0.839  0.00  0.00    +2.620 S 
ATOM     19  O   LIG    1        8.559   2.038  -0.097  0.00  0.00    -0.950 OA
ATOM     20  O   LIG    1        7.234   1.246  -2.030  0.00  0.00    -0.950 OA
BRANCH  18  21
ATOM     21  N   LIG    1        9.243   0.060  -1.339  0.00  0.00    -1.250 NA
ATOM     22  H   LIG    1        9.903   0.433  -1.944  0.00  0.00    +0.430 HD
ATOM     23  H   LIG    1        9.333  -0.854  -1.026  0.00  0.00    +0.410 HD
ENDBRANCH  18  21
ENDBRANCH  17  18
ENDBRANCH  16  17
ENDBRANCH   6  16
TORSDOF 9
