REMARK  Name = ZINCkj00000haZ4M.0
REMARK                            x       y       z     vdW  Elec       q    Type
REMARK                         _______ _______ _______ _____ _____    ______ ____
ROOT
ATOM      1  N   LIG    1        2.336   1.645  -1.493  0.00  0.00    -0.380 N 
ATOM      2  C   LIG    1        1.826   1.880  -0.137  0.00  0.00    +0.240 C 
ATOM      3  C   LIG    1        0.328   1.575  -0.091  0.00  0.00    +0.070 C 
ATOM      4  C   LIG    1        0.099   0.110  -0.477  0.00  0.00    +0.040 C 
ATOM      5  C   LIG    1        0.701  -0.142  -1.863  0.00  0.00    +0.060 C 
ATOM      6  C   LIG    1        2.186   0.227  -1.843  0.00  0.00    +0.180 C 
ATOM      7  H   LIG    1        1.817   2.209  -2.149  0.00  0.00    +0.430 HD
ENDROOT
BRANCH   1   8
ATOM      8  C   LIG    1        3.757   2.014  -1.551  0.00  0.00    +0.270 C 
BRANCH   8   9
ATOM      9  C   LIG    1        3.901   3.522  -1.341  0.00  0.00    +0.190 C 
BRANCH   9  10
ATOM     10  C   LIG    1        5.381   3.906  -1.402  0.00  0.00    -0.080 C 
ATOM     11  C   LIG    1        5.781   5.026  -2.364  0.00  0.00    +0.050 C 
ATOM     12  C   LIG    1        6.145   3.575  -2.685  0.00  0.00    +0.030 C 
ENDBRANCH   9  10
BRANCH   9  13
ATOM     13  O   LIG    1        3.187   4.216  -2.365  0.00  0.00    -0.390 OA
BRANCH  13  15
ATOM     14  C   LIG    1        1.733   6.016  -3.063  0.00  0.00    +0.050 C 
ATOM     15  C   LIG    1        2.562   5.423  -1.922  0.00  0.00    +0.170 C 
ENDBRANCH  13  15
ENDBRANCH   9  13
ENDBRANCH   8   9
ENDBRANCH   1   8
BRANCH   6  16
ATOM     16  C   LIG    1        2.911  -0.633  -0.806  0.00  0.00    +0.080 C 
BRANCH  16  17
ATOM     17  C   LIG    1        2.880  -2.098  -1.247  0.00  0.00    -0.340 C 
BRANCH  17  18
ATOM     18  S   LIG    1        3.640  -3.131   0.036  0.00  0.00    +2.620 S 
ATOM     19  O   LIG    1        2.828  -3.156   1.202  0.00  0.00    -0.950 OA
ATOM     20  O   LIG    1        5.035  -2.877   0.120  0.00  0.00    -0.950 OA
BRANCH  18  21
ATOM     21  N   LIG    1        3.542  -4.672  -0.563  0.00  0.00    -1.250 NA
ATOM     22  H   LIG    1        3.889  -5.416  -0.047  0.00  0.00    +0.430 HD
ATOM     23  H   LIG    1        3.137  -4.830  -1.430  0.00  0.00    +0.410 HD
ENDBRANCH  18  21
ENDBRANCH  17  18
ENDBRANCH  16  17
ENDBRANCH   6  16
TORSDOF 9
