REMARK  Name = ZINCrH000004kSHj.0
REMARK                            x       y       z     vdW  Elec       q    Type
REMARK                         _______ _______ _______ _____ _____    ______ ____
ROOT
ATOM      1  C   LIG    1       -1.004   5.628   1.681  0.00  0.00    -0.170 A 
ATOM      2  C   LIG    1       -1.509   4.709   2.608  0.00  0.00    +0.060 A 
ATOM      3  C   LIG    1       -1.373   3.356   2.377  0.00  0.00    +0.080 A 
ATOM      4  C   LIG    1       -0.726   2.901   1.228  0.00  0.00    +0.170 A 
ATOM      5  C   LIG    1       -0.223   3.805   0.305  0.00  0.00    -0.030 A 
ATOM      6  C   LIG    1       -0.358   5.167   0.523  0.00  0.00    +0.230 A 
ENDROOT
BRANCH   6   7
ATOM      7  N   LIG    1        0.147   6.076  -0.405  0.00  0.00    -0.660 N 
ATOM      8  H   LIG    1       -0.324   6.907  -0.575  0.00  0.00    +0.430 HD
ATOM      9  C   LIG    1        1.289   5.801  -1.065  0.00  0.00    +0.560 C 
ATOM     10  O   LIG    1        1.836   4.726  -0.911  0.00  0.00    -0.510 OA
BRANCH   9  11
ATOM     11  C   LIG    1        1.877   6.806  -1.976  0.00  0.00    -0.110 A 
ATOM     12  C   LIG    1        1.248   8.039  -2.159  0.00  0.00    +0.060 A 
ATOM     13  C   LIG    1        1.804   8.975  -3.006  0.00  0.00    +0.070 A 
ATOM     14  C   LIG    1        2.977   8.689  -3.682  0.00  0.00    -0.160 A 
ATOM     15  C   LIG    1        3.603   7.467  -3.510  0.00  0.00    +0.070 A 
ATOM     16  C   LIG    1        3.059   6.524  -2.661  0.00  0.00    +0.090 A 
BRANCH  14  17
ATOM     17  C   LIG    1        3.576   9.714  -4.610  0.00  0.00    +0.510 C 
ATOM     18  F   LIG    1        4.967   9.563  -4.636  0.00  0.00    -0.170 F 
ATOM     19  F   LIG    1        3.255  10.998  -4.157  0.00  0.00    -0.170 F 
ATOM     20  F   LIG    1        3.063   9.532  -5.899  0.00  0.00    -0.170 F 
ENDBRANCH  14  17
ENDBRANCH   9  11
ENDBRANCH   6   7
BRANCH   1  21
ATOM     21  C   LIG    1       -1.151   7.073   1.920  0.00  0.00    +0.520 C 
ATOM     22  O   LIG    1       -0.792   7.868   1.073  0.00  0.00    -0.520 OA
BRANCH  21  24
ATOM     23  C   LIG    1       -1.796   8.952   3.244  0.00  0.00    +0.290 C 
ATOM     24  O   LIG    1       -1.683   7.514   3.077  0.00  0.00    -0.350 OA
ENDBRANCH  21  24
ENDBRANCH   1  21
BRANCH   4  25
ATOM     25  O   LIG    1       -0.592   1.567   1.010  0.00  0.00    -0.290 OA
ATOM     26  C   LIG    1        0.076   1.170  -0.189  0.00  0.00    +0.260 C 
ENDBRANCH   4  25
BRANCH   3  27
ATOM     27  O   LIG    1       -1.868   2.462   3.276  0.00  0.00    -0.300 OA
ATOM     28  C   LIG    1       -2.520   2.995   4.430  0.00  0.00    +0.240 C 
ENDBRANCH   3  27
TORSDOF 7
