REMARK  Name = ZINCvU00000003R8.0
REMARK                            x       y       z     vdW  Elec       q    Type
REMARK                         _______ _______ _______ _____ _____    ______ ____
ROOT
ATOM      1  C   LIG    1        6.190   2.504  -0.783  0.00  0.00    +0.260 A 
ATOM      2  N   LIG    1        6.080   3.736  -0.350  0.00  0.00    -0.480 NA
ATOM      3  C   LIG    1        7.262   4.385  -0.516  0.00  0.00    +0.060 A 
ATOM      4  C   LIG    1        7.691   5.684  -0.232  0.00  0.00    +0.070 A 
ATOM      5  C   LIG    1        8.985   6.056  -0.523  0.00  0.00    +0.010 A 
ATOM      6  C   LIG    1        9.866   5.150  -1.096  0.00  0.00    +0.030 A 
ATOM      7  C   LIG    1        9.457   3.863  -1.382  0.00  0.00    +0.010 A 
ATOM      8  C   LIG    1        8.158   3.472  -1.096  0.00  0.00    +0.060 A 
ATOM      9  N   LIG    1        7.456   2.288  -1.250  0.00  0.00    -0.470 N 
ENDROOT
BRANCH   1  10
ATOM     10  S   LIG    1        4.901   1.304  -0.761  0.00  0.00    -0.010 S 
BRANCH  10  12
ATOM     11  C   LIG    1        3.950   2.656   1.414  0.00  0.00    +0.110 C 
ATOM     12  C   LIG    1        3.571   2.285  -0.021  0.00  0.00    +0.120 C 
BRANCH  12  13
ATOM     13  C   LIG    1        2.298   1.479  -0.012  0.00  0.00    +0.470 A 
ATOM     14  N   LIG    1        1.162   2.119   0.002  0.00  0.00    -0.580 NA
ATOM     15  C   LIG    1       -0.018   1.470   0.010  0.00  0.00    +0.540 A 
ATOM     16  C   LIG    1        0.002  -0.004   0.002  0.00  0.00    -0.210 A 
ATOM     17  C   LIG    1       -1.168  -0.760   0.010  0.00  0.00    +0.120 A 
ATOM     18  C   LIG    1       -1.086  -2.135   0.001  0.00  0.00    -0.010 A 
ATOM     19  C   LIG    1        0.150  -2.767  -0.013  0.00  0.00    +0.090 A 
ATOM     20  C   LIG    1        1.317  -2.031  -0.021  0.00  0.00    -0.020 A 
ATOM     21  C   LIG    1        1.255  -0.645  -0.013  0.00  0.00    +0.170 A 
ATOM     22  O   LIG    1       -1.071   2.083   0.018  0.00  0.00    -0.470 OA
ATOM     23  N   LIG    1        2.392   0.138  -0.020  0.00  0.00    -0.620 N 
ATOM     24  H   LIG    1        3.266  -0.283  -0.031  0.00  0.00    +0.420 HD
ENDBRANCH  12  13
ENDBRANCH  10  12
ENDBRANCH   1  10
BRANCH   9  25
ATOM     25  C   LIG    1        7.973   1.037  -1.811  0.00  0.00    +0.310 C 
BRANCH  25  26
ATOM     26  C   LIG    1        7.741   1.023  -3.323  0.00  0.00    +0.060 C 
BRANCH  26  27
ATOM     27  C   LIG    1        8.273  -0.264  -3.901  0.00  0.00    -0.090 A 
ATOM     28  C   LIG    1        9.582  -0.335  -4.340  0.00  0.00    +0.010 A 
ATOM     29  C   LIG    1       10.071  -1.516  -4.866  0.00  0.00    +0.000 A 
ATOM     30  C   LIG    1        9.249  -2.623  -4.961  0.00  0.00    +0.000 A 
ATOM     31  C   LIG    1        7.939  -2.550  -4.527  0.00  0.00    +0.000 A 
ATOM     32  C   LIG    1        7.451  -1.371  -3.997  0.00  0.00    +0.010 A 
ENDBRANCH  26  27
ENDBRANCH  25  26
ENDBRANCH   9  25
TORSDOF 6
