REMARK  Name = ZINCnE000004ReRE.0
REMARK                            x       y       z     vdW  Elec       q    Type
REMARK                         _______ _______ _______ _____ _____    ______ ____
ROOT
ATOM      1  C   LIG    1        2.471   4.157   0.002  0.00  0.00    -0.070 A 
ATOM      2  C   LIG    1        2.511   5.550   0.009  0.00  0.00    +0.000 A 
ATOM      3  C   LIG    1        3.727   6.201   0.002  0.00  0.00    +0.060 A 
ATOM      4  C   LIG    1        4.909   5.478  -0.014  0.00  0.00    -0.030 A 
ATOM      5  C   LIG    1        4.875   4.094  -0.022  0.00  0.00    -0.110 A 
ATOM      6  C   LIG    1        6.287   3.548  -0.039  0.00  0.00    +0.060 C 
ATOM      7  C   LIG    1        7.181   4.726   0.400  0.00  0.00    +0.050 C 
ATOM      8  C   LIG    1        6.347   5.953  -0.025  0.00  0.00    -0.050 C 
ATOM      9  C   LIG    1        3.661   3.433  -0.008  0.00  0.00    +0.010 A 
ENDROOT
BRANCH   1  15
ATOM     10  C   LIG    1       -4.791   2.804   0.062  0.00  0.00    +0.370 C 
ATOM     11  N   LIG    1       -3.326   2.810   0.049  0.00  0.00    -0.320 N 
ATOM     12  C   LIG    1       -2.561   3.912   0.048  0.00  0.00    +0.260 A 
ATOM     13  C   LIG    1       -1.238   3.510   0.033  0.00  0.00    -0.170 A 
ATOM     14  C   LIG    1        0.002   4.182   0.025  0.00  0.00    +0.090 A 
ATOM     15  C   LIG    1        1.168   3.449   0.010  0.00  0.00    -0.040 A 
ATOM     16  C   LIG    1        1.147   2.042   0.002  0.00  0.00    +0.040 A 
ATOM     17  C   LIG    1       -0.016   1.347   0.009  0.00  0.00    +0.110 A 
ATOM     18  F   LIG    1        0.002  -0.004   0.002  0.00  0.00    -0.140 F 
ATOM     19  C   LIG    1       -1.250   2.039   0.019  0.00  0.00    +0.070 A 
ATOM     20  N   LIG    1       -2.517   1.668   0.034  0.00  0.00    -0.300 NA
ENDBRANCH   1  15
BRANCH   8  21
ATOM     21  C   LIG    1        6.533   7.079   0.959  0.00  0.00    +0.500 C 
ATOM     22  O   LIG    1        7.634   7.578   1.113  0.00  0.00    -0.700 OA
ATOM     23  O   LIG    1        5.582   7.491   1.601  0.00  0.00    -0.690 OA
ENDBRANCH   8  21
TORSDOF 2
