REMARK  Name = ZINCqH0000000wKy.0
REMARK                            x       y       z     vdW  Elec       q    Type
REMARK                         _______ _______ _______ _____ _____    ______ ____
ROOT
ATOM      1  C   LIG    1       -1.244   3.122   0.010  0.00  0.00    -0.130 A 
ATOM      2  C   LIG    1       -1.220   1.739  -0.005  0.00  0.00    +0.050 A 
ATOM      3  C   LIG    1       -0.013   1.068  -0.008  0.00  0.00    +0.020 A 
ATOM      4  C   LIG    1        1.178   1.783  -0.006  0.00  0.00    +0.150 A 
ATOM      5  C   LIG    1        1.150   3.172   0.004  0.00  0.00    -0.010 A 
ATOM      6  C   LIG    1       -0.060   3.837   0.012  0.00  0.00    +0.050 A 
ENDROOT
BRANCH   4   7
ATOM      7  N   LIG    1        2.402   1.107  -0.014  0.00  0.00    -0.670 N 
ATOM      8  H   LIG    1        3.158   1.477  -0.496  0.00  0.00    +0.420 HD
ATOM      9  C   LIG    1        2.531  -0.059   0.649  0.00  0.00    +0.610 C 
ATOM     10  O   LIG    1        1.563  -0.566   1.183  0.00  0.00    -0.500 OA
BRANCH   9  11
ATOM     11  C   LIG    1        3.840  -0.717   0.726  0.00  0.00    -0.090 A 
ATOM     12  C   LIG    1        4.109  -1.895   1.362  0.00  0.00    +0.050 A 
ATOM     13  C   LIG    1        5.478  -2.147   1.182  0.00  0.00    -0.070 A 
ATOM     14  C   LIG    1        5.978  -1.124   0.454  0.00  0.00    +0.210 A 
ATOM     15  O   LIG    1        4.987  -0.268   0.176  0.00  0.00    -0.170 OA
ENDBRANCH   9  11
ENDBRANCH   4   7
BRANCH   1  16
ATOM     16  C   LIG    1       -2.563   3.850   0.019  0.00  0.00    +0.320 C 
BRANCH  16  18
ATOM     17  C   LIG    1       -4.155   4.739  -1.598  0.00  0.00    +0.590 C 
ATOM     18  N   LIG    1       -2.994   4.096  -1.359  0.00  0.00    -0.720 N 
ATOM     19  H   LIG    1       -2.445   3.797  -2.100  0.00  0.00    +0.400 HD
ATOM     20  O   LIG    1       -4.844   5.114  -0.669  0.00  0.00    -0.520 OA
BRANCH  17  24
ATOM     21  C   LIG    1       -4.939   5.196  -5.462  0.00  0.00    -0.260 A 
ATOM     22  C   LIG    1       -5.934   5.740  -4.693  0.00  0.00    +0.090 A 
ATOM     23  C   LIG    1       -5.741   5.625  -3.345  0.00  0.00    +0.090 A 
ATOM     24  C   LIG    1       -4.588   4.986  -2.984  0.00  0.00    -0.230 A 
ATOM     25  S   LIG    1       -3.697   4.511  -4.423  0.00  0.00    +0.210 S 
BRANCH  21  27
ATOM     26  C   LIG    1       -3.756   4.556  -7.654  0.00  0.00    +0.090 C 
ATOM     27  C   LIG    1       -4.912   5.190  -6.925  0.00  0.00    +0.420 C 
ATOM     28  O   LIG    1       -5.821   5.696  -7.550  0.00  0.00    -0.440 OA
ENDBRANCH  21  27
ENDBRANCH  17  24
ENDBRANCH  16  18
ENDBRANCH   1  16
TORSDOF 6
