REMARK  Name = ZINCtV000002OHdV.0
REMARK                            x       y       z     vdW  Elec       q    Type
REMARK                         _______ _______ _______ _____ _____    ______ ____
ROOT
ATOM      1  C   LIG    1       -3.701   6.175  -7.804  0.00  0.00    +0.270 A 
ATOM      2  N   LIG    1       -2.979   5.810  -6.790  0.00  0.00    -0.490 NA
ATOM      3  C   LIG    1       -3.558   5.029  -5.889  0.00  0.00    +0.130 A 
ATOM      4  C   LIG    1       -4.843   4.716  -6.138  0.00  0.00    -0.110 A 
ATOM      5  S   LIG    1       -5.316   5.489  -7.649  0.00  0.00    +0.210 S 
ENDROOT
BRANCH   3   6
ATOM      6  C   LIG    1       -2.841   4.538  -4.687  0.00  0.00    -0.030 A 
ATOM      7  C   LIG    1       -1.509   4.891  -4.475  0.00  0.00    +0.050 A 
ATOM      8  C   LIG    1       -0.847   4.431  -3.355  0.00  0.00    +0.000 A 
ATOM      9  C   LIG    1       -1.502   3.622  -2.444  0.00  0.00    -0.070 A 
ATOM     10  C   LIG    1       -2.822   3.264  -2.652  0.00  0.00    +0.010 A 
ATOM     11  C   LIG    1       -3.496   3.723  -3.766  0.00  0.00    +0.020 A 
BRANCH   9  12
ATOM     12  C   LIG    1       -0.773   3.123  -1.223  0.00  0.00    +0.030 C 
ATOM     13  C   LIG    1       -0.753   1.593  -1.232  0.00  0.00    +0.010 C 
ATOM     14  C   LIG    1       -0.013   1.086   0.008  0.00  0.00    +0.000 C 
ATOM     15  C   LIG    1       -0.729   1.579   1.267  0.00  0.00    +0.000 C 
ATOM     16  C   LIG    1       -0.750   3.109   1.275  0.00  0.00    +0.000 C 
ATOM     17  C   LIG    1       -1.490   3.616   0.036  0.00  0.00    +0.010 C 
ENDBRANCH   9  12
ENDBRANCH   3   6
BRANCH   1  20
ATOM     18  O   LIG    1       -5.256   6.881  -9.836  0.00  0.00    -0.480 OA
ATOM     19  C   LIG    1       -4.115   7.303  -9.846  0.00  0.00    +0.610 C 
ATOM     20  N   LIG    1       -3.270   6.985  -8.846  0.00  0.00    -0.610 N 
ATOM     21  H   LIG    1       -2.360   7.321  -8.854  0.00  0.00    +0.430 HD
BRANCH  19  22
ATOM     22  C   LIG    1       -3.659   8.160 -10.949  0.00  0.00    -0.040 A 
ATOM     23  C   LIG    1       -4.418   8.541 -12.009  0.00  0.00    +0.100 A 
ATOM     24  C   LIG    1       -3.559   9.381 -12.842  0.00  0.00    -0.150 A 
ATOM     25  C   LIG    1       -3.739  10.068 -14.044  0.00  0.00    +0.080 A 
ATOM     26  C   LIG    1       -2.703  10.780 -14.580  0.00  0.00    +0.000 A 
ATOM     27  C   LIG    1       -1.474  10.825 -13.937  0.00  0.00    +0.070 A 
ATOM     28  C   LIG    1       -1.275  10.154 -12.749  0.00  0.00    +0.030 A 
ATOM     29  C   LIG    1       -2.314   9.423 -12.185  0.00  0.00    +0.080 A 
ATOM     30  O   LIG    1       -2.420   8.683 -11.064  0.00  0.00    -0.190 OA
ENDBRANCH  19  22
ENDBRANCH   1  20
TORSDOF 4
