REMARK  Name = ZINCvU0000000FbY.0
REMARK                            x       y       z     vdW  Elec       q    Type
REMARK                         _______ _______ _______ _____ _____    ______ ____
ROOT
ATOM      1  C   LIG    1        1.147   3.183   0.024  0.00  0.00    -0.050 A 
ATOM      2  C   LIG    1        1.163   1.800  -0.165  0.00  0.00    +0.100 A 
ATOM      3  C   LIG    1       -0.020   1.093  -0.162  0.00  0.00    +0.000 A 
ATOM      4  C   LIG    1       -1.228   1.756   0.023  0.00  0.00    +0.170 A 
ATOM      5  C   LIG    1       -1.246   3.133   0.217  0.00  0.00    +0.020 A 
ATOM      6  C   LIG    1       -0.067   3.846   0.215  0.00  0.00    +0.060 A 
ENDROOT
BRANCH   1  13
ATOM      7  C   LIG    1        7.661   7.309   0.040  0.00  0.00    +0.100 C 
ATOM      8  C   LIG    1        6.600   6.240  -0.017  0.00  0.00    -0.060 A 
ATOM      9  C   LIG    1        6.959   4.917  -0.228  0.00  0.00    +0.030 A 
ATOM     10  C   LIG    1        6.014   3.938  -0.283  0.00  0.00    +0.080 A 
ATOM     11  C   LIG    1        4.646   4.253  -0.125  0.00  0.00    +0.080 A 
ATOM     12  N   LIG    1        3.584   3.428  -0.148  0.00  0.00    -0.460 NA
ATOM     13  C   LIG    1        2.414   3.945   0.021  0.00  0.00    +0.160 A 
ATOM     14  S   LIG    1        2.539   5.685   0.240  0.00  0.00    +0.070 S 
ATOM     15  C   LIG    1        4.292   5.590   0.087  0.00  0.00    -0.170 A 
ATOM     16  C   LIG    1        5.274   6.578   0.139  0.00  0.00    +0.050 A 
ENDBRANCH   1  13
BRANCH   4  17
ATOM     17  N   LIG    1       -2.425   1.037   0.019  0.00  0.00    -0.670 N 
ATOM     18  H   LIG    1       -2.448   0.131   0.365  0.00  0.00    +0.420 HD
ATOM     19  C   LIG    1       -3.549   1.602  -0.466  0.00  0.00    +0.520 C 
ATOM     20  O   LIG    1       -3.502   2.696  -0.986  0.00  0.00    -0.490 OA
BRANCH  19  21
ATOM     21  C   LIG    1       -4.864   0.873  -0.362  0.00  0.00    +0.270 C 
BRANCH  21  22
ATOM     22  O   LIG    1       -5.898   1.671  -0.943  0.00  0.00    -0.270 OA
BRANCH  22  23
ATOM     23  C   LIG    1       -7.149   1.157  -0.931  0.00  0.00    +0.410 A 
ATOM     24  N   LIG    1       -7.390  -0.034  -0.407  0.00  0.00    -0.590 NA
ATOM     25  C   LIG    1       -8.611  -0.547  -0.385  0.00  0.00    +0.540 A 
ATOM     26  N   LIG    1       -9.654   0.073  -0.881  0.00  0.00    -0.530 NA
ATOM     27  C   LIG    1       -9.521   1.285  -1.441  0.00  0.00    +0.180 A 
ATOM     28  C   LIG    1      -10.613   1.977  -1.982  0.00  0.00    +0.030 A 
ATOM     29  C   LIG    1      -10.421   3.206  -2.540  0.00  0.00    +0.070 A 
ATOM     30  C   LIG    1       -9.156   3.786  -2.580  0.00  0.00    +0.010 A 
ATOM     31  C   LIG    1       -8.072   3.140  -2.063  0.00  0.00    +0.080 A 
ATOM     32  C   LIG    1       -8.234   1.877  -1.484  0.00  0.00    -0.170 A 
ENDBRANCH  22  23
ENDBRANCH  21  22
ENDBRANCH  19  21
ENDBRANCH   4  17
TORSDOF 5
