REMARK  Name = ZINCpe00000VVGeN.0
REMARK                            x       y       z     vdW  Elec       q    Type
REMARK                         _______ _______ _______ _____ _____    ______ ____
ROOT
ATOM      1  N   LIG    1        2.296   1.312  -0.077  0.00  0.00    -0.740 N 
ATOM      2  H   LIG    1        2.444   0.371   0.109  0.00  0.00    +0.400 HD
ATOM      3  C   LIG    1        1.040   1.792  -0.164  0.00  0.00    +0.710 C 
ATOM      4  N   LIG    1       -0.011   0.966   0.007  0.00  0.00    -0.680 N 
ATOM      5  H   LIG    1        0.134   0.013   0.116  0.00  0.00    +0.410 HD
ATOM      6  O   LIG    1        0.855   2.971  -0.397  0.00  0.00    -0.570 OA
ENDROOT
BRANCH   4   7
ATOM      7  C   LIG    1       -1.313   1.483   0.023  0.00  0.00    +0.120 A 
ATOM      8  C   LIG    1       -1.561   2.754   0.536  0.00  0.00    +0.100 A 
ATOM      9  C   LIG    1       -2.862   3.225   0.528  0.00  0.00    +0.020 A 
ATOM     10  C   LIG    1       -3.872   2.417   0.021  0.00  0.00    +0.340 A 
ATOM     11  N   LIG    1       -3.601   1.212  -0.454  0.00  0.00    -0.480 NA
ATOM     12  C   LIG    1       -2.373   0.732  -0.467  0.00  0.00    +0.280 A 
BRANCH  10  13
ATOM     13  N   LIG    1       -5.192   2.882   0.013  0.00  0.00    -0.330 N 
ATOM     14  C   LIG    1       -6.277   2.228  -0.445  0.00  0.00    +0.520 A 
ATOM     15  N   LIG    1       -7.319   3.000  -0.272  0.00  0.00    -0.540 NA
ATOM     16  C   LIG    1       -6.941   4.152   0.282  0.00  0.00    +0.450 A 
ATOM     17  N   LIG    1       -5.648   4.128   0.476  0.00  0.00    -0.310 NA
ENDBRANCH  10  13
ENDBRANCH   4   7
BRANCH   1  18
ATOM     18  C   LIG    1        3.438   2.210  -0.263  0.00  0.00    +0.290 C 
BRANCH  18  19
ATOM     19  C   LIG    1        4.739   1.418  -0.115  0.00  0.00    +0.170 C 
BRANCH  19  23
ATOM     20  C   LIG    1        7.227   4.258  -3.272  0.00  0.00    +0.050 C 
ATOM     21  C   LIG    1        7.112   3.796  -1.818  0.00  0.00    +0.160 C 
ATOM     22  C   LIG    1        5.942   2.817  -1.683  0.00  0.00    +0.160 C 
ATOM     23  N   LIG    1        5.885   2.318  -0.302  0.00  0.00    -0.530 NA
ATOM     24  C   LIG    1        7.143   1.653   0.065  0.00  0.00    +0.170 C 
ATOM     25  C   LIG    1        8.301   2.643  -0.087  0.00  0.00    +0.160 C 
ATOM     26  C   LIG    1        9.623   1.934   0.215  0.00  0.00    +0.050 C 
ATOM     27  O   LIG    1        8.322   3.141  -1.428  0.00  0.00    -0.380 OA
ENDBRANCH  19  23
ENDBRANCH  18  19
ENDBRANCH   1  18
TORSDOF 5
