REMARK  Name = ZINCkj00000dDfXz.0
REMARK                            x       y       z     vdW  Elec       q    Type
REMARK                         _______ _______ _______ _____ _____    ______ ____
ROOT
ATOM      1  C   LIG    1        0.549   3.277   0.508  0.00  0.00    +0.010 A 
ATOM      2  N   LIG    1       -0.762   3.186   0.608  0.00  0.00    -0.250 NA
ATOM      3  N   LIG    1       -1.103   1.971   0.849  0.00  0.00    -0.300 N 
ATOM      4  C   LIG    1       -0.007   1.187   0.931  0.00  0.00    +0.150 A 
ATOM      5  C   LIG    1        1.070   1.978   0.716  0.00  0.00    +0.010 A 
ENDROOT
BRANCH   3   6
ATOM      6  C   LIG    1       -2.482   1.504   1.014  0.00  0.00    +0.270 C 
ATOM      7  C   LIG    1       -2.840   1.485   2.503  0.00  0.00    +0.050 C 
ATOM      8  C   LIG    1       -4.254   0.922   2.671  0.00  0.00    +0.080 C 
ATOM      9  C   LIG    1       -4.321  -0.470   2.040  0.00  0.00    +0.270 C 
ATOM     10  N   LIG    1       -3.994  -0.381   0.612  0.00  0.00    -0.500 N 
ATOM     11  H   LIG    1       -4.625   0.266   0.164  0.00  0.00    +0.430 HD
ATOM     12  H   LIG    1       -4.091  -1.292   0.189  0.00  0.00    +0.440 HD
ATOM     13  C   LIG    1       -2.614   0.090   0.445  0.00  0.00    +0.270 C 
ENDBRANCH   3   6
BRANCH   1  16
ATOM     14  C   LIG    1       -0.775   5.701  -0.062  0.00  0.00    +0.300 C 
ATOM     15  N   LIG    1        0.689   5.650  -0.075  0.00  0.00    -0.600 N 
ATOM     16  C   LIG    1        1.326   4.503   0.232  0.00  0.00    +0.600 C 
ATOM     17  O   LIG    1        2.541   4.476   0.283  0.00  0.00    -0.520 OA
BRANCH  15  18
ATOM     18  C   LIG    1        1.461   6.846  -0.424  0.00  0.00    +0.240 C 
ATOM     19  C   LIG    1        1.215   7.920   0.637  0.00  0.00    +0.030 C 
ATOM     20  C   LIG    1        1.365   9.318  -0.018  0.00  0.00    +0.140 C 
ATOM     21  S   LIG    1        0.509   9.045  -1.623  0.00  0.00    -0.280 S 
ATOM     22  C   LIG    1        1.055   7.307  -1.833  0.00  0.00    +0.120 C 
ENDBRANCH  15  18
ENDBRANCH   1  16
TORSDOF 3
