REMARK  Name = ZINCbw0000000Hnv.0
REMARK                            x       y       z     vdW  Elec       q    Type
REMARK                         _______ _______ _______ _____ _____    ______ ____
ROOT
ATOM      1  C   LIG    1        0.002  -0.004   0.002  0.00  0.00    -0.060 A 
ATOM      2  C   LIG    1        1.056  -0.684   0.582  0.00  0.00    +0.020 A 
ATOM      3  C   LIG    1        1.072  -2.068   0.580  0.00  0.00    +0.110 A 
ATOM      4  C   LIG    1        0.037  -2.771  -0.013  0.00  0.00    +0.030 A 
ATOM      5  C   LIG    1       -1.014  -2.089  -0.599  0.00  0.00    -0.060 A 
ATOM      6 BR   LIG    1       -2.428  -3.047  -1.409  0.00  0.00    -0.030 Br
ATOM      7  F   LIG    1        2.100  -2.733   1.152  0.00  0.00    -0.130 F 
ATOM      8  C   LIG    1       -1.031  -0.706  -0.591  0.00  0.00    +0.060 A 
ENDROOT
BRANCH   1   9
ATOM      9  C   LIG    1       -0.018   1.503   0.010  0.00  0.00    +0.280 C 
BRANCH   9  11
ATOM     10  N   LIG    1       -1.239   2.344   2.156  0.00  0.00    -0.420 NA
ATOM     11  C   LIG    1       -0.707   1.978   1.221  0.00  0.00    +0.200 C 
ENDBRANCH   9  11
ENDBRANCH   1   9
TORSDOF 2
