REMARK  Name = ZINCqH0000004SaB.0
REMARK                            x       y       z     vdW  Elec       q    Type
REMARK                         _______ _______ _______ _____ _____    ______ ____
ROOT
ATOM      1  S   LIG    1       -5.204   4.250   0.078  0.00  0.00    +0.070 S 
ENDROOT
BRANCH   1   3
ATOM      2  N   LIG    1       -7.879   3.429   0.101  0.00  0.00    -0.460 N 
ATOM      3  C   LIG    1       -6.549   3.112   0.085  0.00  0.00    +0.150 A 
ATOM      4  N   LIG    1       -6.461   1.801   0.071  0.00  0.00    -0.290 NA
ATOM      5  N   LIG    1       -7.635   1.278   0.085  0.00  0.00    -0.260 NA
ATOM      6  C   LIG    1       -8.548   2.225   0.100  0.00  0.00    +0.260 A 
BRANCH   6   7
ATOM      7  C   LIG    1      -10.007   2.034   0.113  0.00  0.00    -0.130 A 
ATOM      8  C   LIG    1      -10.646   0.879  -0.179  0.00  0.00    +0.070 A 
ATOM      9  C   LIG    1      -12.020   0.945  -0.094  0.00  0.00    +0.010 A 
ATOM     10  C   LIG    1      -12.510   2.139   0.253  0.00  0.00    -0.030 A 
ATOM     11  S   LIG    1      -11.191   3.275   0.504  0.00  0.00    +0.130 S 
ENDBRANCH   6   7
BRANCH   2  13
ATOM     12  C   LIG    1       -8.690   5.245  -1.323  0.00  0.00    +0.060 C 
ATOM     13  C   LIG    1       -8.470   4.770   0.115  0.00  0.00    +0.310 C 
ENDBRANCH   2  13
ENDBRANCH   1   3
BRANCH   1  14
ATOM     14  C   LIG    1       -3.813   3.091   0.058  0.00  0.00    +0.110 C 
BRANCH  14  15
ATOM     15  C   LIG    1       -2.518   3.862   0.049  0.00  0.00    +0.420 C 
ATOM     16  O   LIG    1       -2.534   5.075   0.056  0.00  0.00    -0.430 OA
BRANCH  15  17
ATOM     17  C   LIG    1       -1.237   3.144   0.032  0.00  0.00    -0.170 A 
ATOM     18  C   LIG    1       -1.216   1.745   0.017  0.00  0.00    +0.090 A 
ATOM     19  C   LIG    1       -0.013   1.076   0.008  0.00  0.00    +0.020 A 
ATOM     20  C   LIG    1        1.184   1.784   0.000  0.00  0.00    +0.090 A 
ATOM     21  O   LIG    1        2.359   1.101  -0.011  0.00  0.00    -0.300 OA
ATOM     22  C   LIG    1        3.527   1.835  -0.395  0.00  0.00    +0.230 C 
ATOM     23  C   LIG    1        3.523   3.173   0.356  0.00  0.00    +0.230 C 
ATOM     24  O   LIG    1        2.334   3.885  -0.005  0.00  0.00    -0.300 OA
ATOM     25  C   LIG    1        1.171   3.178   0.007  0.00  0.00    +0.040 A 
ATOM     26  C   LIG    1       -0.032   3.857   0.024  0.00  0.00    +0.100 A 
ENDBRANCH  15  17
ENDBRANCH  14  15
ENDBRANCH   1  14
TORSDOF 6
