REMARK  Name = ZINCrH000009n5OH.0
REMARK                            x       y       z     vdW  Elec       q    Type
REMARK                         _______ _______ _______ _____ _____    ______ ____
ROOT
ATOM      1  C   LIG    1       -5.477  -1.136  -2.749  0.00  0.00    +0.560 C 
ATOM      2  N   LIG    1       -5.275  -1.280  -1.425  0.00  0.00    -0.610 N 
ATOM      3  C   LIG    1       -5.611  -0.191  -0.498  0.00  0.00    +0.280 C 
ATOM      4  C   LIG    1       -4.356   0.183   0.300  0.00  0.00    +0.050 C 
ATOM      5  C   LIG    1       -3.760  -1.092   0.906  0.00  0.00    -0.130 C 
ATOM      6  C   LIG    1       -4.241  -1.509   2.296  0.00  0.00    +0.030 C 
ATOM      7  C   LIG    1       -3.443  -2.202  -0.100  0.00  0.00    +0.050 C 
ATOM      8  C   LIG    1       -2.833  -0.939   2.112  0.00  0.00    +0.230 C 
ATOM      9  C   LIG    1       -4.716  -2.529  -0.891  0.00  0.00    +0.270 C 
ATOM     10  O   LIG    1       -6.035  -0.145  -3.173  0.00  0.00    -0.530 OA
ENDROOT
BRANCH   8  11
ATOM     11  N   LIG    1       -1.706  -1.869   2.221  0.00  0.00    -0.700 N 
ATOM     12  H   LIG    1       -1.753  -2.740   1.795  0.00  0.00    +0.400 HD
ATOM     13  C   LIG    1       -0.603  -1.514   2.909  0.00  0.00    +0.590 C 
ATOM     14  O   LIG    1       -0.544  -0.423   3.443  0.00  0.00    -0.530 OA
BRANCH  13  15
ATOM     15  C   LIG    1        0.530  -2.446   3.013  0.00  0.00    -0.230 A 
ATOM     16  C   LIG    1        0.620  -3.693   2.477  0.00  0.00    +0.280 A 
ATOM     17  O   LIG    1        1.804  -4.236   2.786  0.00  0.00    -0.180 OA
ATOM     18  C   LIG    1        2.550  -3.395   3.531  0.00  0.00    +0.050 A 
ATOM     19  C   LIG    1        3.820  -3.493   4.088  0.00  0.00    +0.040 A 
ATOM     20  C   LIG    1        4.339  -2.437   4.806  0.00  0.00    +0.050 A 
ATOM     21  C   LIG    1        3.602  -1.277   4.992  0.00  0.00    +0.000 A 
ATOM     22  C   LIG    1        2.339  -1.164   4.451  0.00  0.00    +0.080 A 
ATOM     23  C   LIG    1        1.808  -2.220   3.717  0.00  0.00    -0.090 A 
ENDBRANCH  13  15
ENDBRANCH   8  11
BRANCH   1  24
ATOM     24  C   LIG    1       -5.011  -2.204  -3.704  0.00  0.00    -0.160 C 
ATOM     25  C   LIG    1       -5.849  -2.442  -4.962  0.00  0.00    +0.060 C 
ATOM     26  C   LIG    1       -5.868  -3.466  -3.825  0.00  0.00    +0.050 C 
BRANCH  24  28
ATOM     27  C   LIG    1       -2.869  -1.028  -4.223  0.00  0.00    +0.020 C 
ATOM     28  C   LIG    1       -3.494  -2.366  -3.824  0.00  0.00    +0.060 C 
ENDBRANCH  24  28
ENDBRANCH   1  24
TORSDOF 4
