REMARK  Name = ZINCvU0000000GAX.0
REMARK                            x       y       z     vdW  Elec       q    Type
REMARK                         _______ _______ _______ _____ _____    ______ ____
ROOT
ATOM      1  C   LIG    1        1.208   1.794   0.000  0.00  0.00    +0.290 A 
ATOM      2  N   LIG    1       -0.016   1.336   0.009  0.00  0.00    -0.510 NA
ATOM      3  C   LIG    1        0.002  -0.004   0.002  0.00  0.00    +0.260 A 
ATOM      4  N   LIG    1        1.253  -0.409  -0.012  0.00  0.00    -0.290 NA
ATOM      5  N   LIG    1        2.051   0.747  -0.013  0.00  0.00    -0.370 N 
ENDROOT
BRANCH   3   6
ATOM      6  C   LIG    1       -1.192  -0.885   0.009  0.00  0.00    -0.060 A 
ATOM      7  C   LIG    1       -2.478  -0.338   0.030  0.00  0.00    +0.140 A 
ATOM      8  C   LIG    1       -3.559  -1.202   0.031  0.00  0.00    -0.010 A 
ATOM      9  C   LIG    1       -3.334  -2.568   0.021  0.00  0.00    +0.180 A 
ATOM     10  N   LIG    1       -2.107  -3.055   0.007  0.00  0.00    -0.480 NA
ATOM     11 CL   LIG    1       -4.686  -3.657   0.029  0.00  0.00    -0.020 Cl
ATOM     12  C   LIG    1       -1.049  -2.271   0.001  0.00  0.00    +0.330 A 
ENDBRANCH   3   6
BRANCH   5  13
ATOM     13  C   LIG    1        3.515   0.801  -0.027  0.00  0.00    +0.260 C 
ATOM     14  C   LIG    1        4.031   0.133  -1.298  0.00  0.00    +0.040 C 
ATOM     15  C   LIG    1        5.526   0.416  -1.468  0.00  0.00    +0.130 C 
ATOM     16  S   LIG    1        6.426  -0.325  -0.074  0.00  0.00    -0.250 S 
ATOM     17  C   LIG    1        5.554   0.372   1.361  0.00  0.00    +0.130 C 
ATOM     18  C   LIG    1        4.056   0.093   1.212  0.00  0.00    +0.040 C 
ENDBRANCH   5  13
BRANCH   1  19
ATOM     19  C   LIG    1        1.605   3.248   0.004  0.00  0.00    +0.270 C 
BRANCH  19  22
ATOM     20  C   LIG    1        1.034   4.059   3.510  0.00  0.00    +0.260 A 
ATOM     21  N   LIG    1        0.788   3.611   2.319  0.00  0.00    -0.470 NA
ATOM     22  C   LIG    1        1.752   3.725   1.426  0.00  0.00    +0.090 A 
ATOM     23  C   LIG    1        2.869   4.293   1.885  0.00  0.00    -0.100 A 
ATOM     24  S   LIG    1        2.617   4.701   3.580  0.00  0.00    +0.190 S 
BRANCH  20  31
ATOM     25  C   LIG    1       -1.800   2.906   3.333  0.00  0.00    +0.150 C 
ATOM     26  C   LIG    1       -1.130   3.517   4.537  0.00  0.00    +0.050 A 
ATOM     27  C   LIG    1       -1.677   3.656   5.761  0.00  0.00    -0.040 A 
ATOM     28  C   LIG    1       -0.718   4.277   6.587  0.00  0.00    -0.010 A 
ATOM     29  C   LIG    1        0.384   4.490   5.838  0.00  0.00    -0.000 A 
ATOM     30  C   LIG    1        1.662   5.132   6.311  0.00  0.00    +0.150 C 
ATOM     31  N   LIG    1        0.140   4.022   4.578  0.00  0.00    -0.370 N 
ENDBRANCH  20  31
ENDBRANCH  19  22
ENDBRANCH   1  19
TORSDOF 5
