REMARK  Name = ZINCkj000005iBIc.0
REMARK                            x       y       z     vdW  Elec       q    Type
REMARK                         _______ _______ _______ _____ _____    ______ ____
ROOT
ATOM      1  S   LIG    1        1.695  -2.690   1.056  0.00  0.00    +2.690 S 
ATOM      2  O   LIG    1        0.503  -2.978   1.774  0.00  0.00    -0.940 OA
ATOM      3  O   LIG    1        2.994  -2.962   1.564  0.00  0.00    -0.950 OA
ENDROOT
BRANCH   1   7
ATOM      4  C   LIG    1        1.587   1.740   0.122  0.00  0.00    +0.200 A 
ATOM      5  C   LIG    1        2.804   1.092   0.280  0.00  0.00    -0.050 A 
ATOM      6  C   LIG    1        2.834  -0.259   0.565  0.00  0.00    +0.060 A 
ATOM      7  C   LIG    1        1.653  -0.966   0.693  0.00  0.00    -0.730 A 
ATOM      8  C   LIG    1        0.439  -0.323   0.536  0.00  0.00    +0.070 A 
ATOM      9  C   LIG    1       -0.847  -1.097   0.676  0.00  0.00    +0.110 C 
ATOM     10  C   LIG    1        4.155  -0.963   0.737  0.00  0.00    +0.120 C 
ATOM     11  C   LIG    1        0.403   1.028   0.251  0.00  0.00    -0.100 A 
BRANCH   4  13
ATOM     12  C   LIG    1        0.266   3.670  -0.307  0.00  0.00    +0.250 C 
ATOM     13  O   LIG    1        1.555   3.069  -0.158  0.00  0.00    -0.310 OA
ENDBRANCH   4  13
ENDBRANCH   1   7
BRANCH   1  14
ATOM     14  N   LIG    1        1.579  -3.497  -0.386  0.00  0.00    -1.110 NA
ATOM     15  H   LIG    1        0.802  -4.046  -0.573  0.00  0.00    +0.420 HD
BRANCH  14  16
ATOM     16  C   LIG    1        2.651  -3.382  -1.378  0.00  0.00    +0.250 C 
ATOM     17  C   LIG    1        2.217  -2.425  -2.492  0.00  0.00    +0.050 C 
ATOM     18  C   LIG    1        3.307  -2.372  -3.565  0.00  0.00    +0.270 C 
ATOM     19  N   LIG    1        3.517  -3.713  -4.122  0.00  0.00    -0.510 N 
ATOM     20  C   LIG    1        4.003  -4.619  -3.074  0.00  0.00    +0.270 C 
ATOM     21  H   LIG    1        2.644  -4.063  -4.489  0.00  0.00    +0.430 HD
ATOM     22  H   LIG    1        4.198  -3.665  -4.865  0.00  0.00    +0.440 HD
ATOM     23  C   LIG    1        2.939  -4.759  -1.983  0.00  0.00    +0.060 C 
ENDBRANCH  14  16
ENDBRANCH   1  14
TORSDOF 4
