REMARK  Name = ZINCpk00000FaPXG.0
REMARK                            x       y       z     vdW  Elec       q    Type
REMARK                         _______ _______ _______ _____ _____    ______ ____
ROOT
ATOM      1  C   LIG    1       -6.059  -2.248  -2.146  0.00  0.00    +0.580 C 
ATOM      2  N   LIG    1       -5.151  -2.648  -1.234  0.00  0.00    -0.610 N 
ATOM      3  C   LIG    1       -5.452  -3.338   0.029  0.00  0.00    +0.260 C 
ATOM      4  C   LIG    1       -4.111  -3.572   0.755  0.00  0.00    +0.050 C 
ATOM      5  C   LIG    1       -3.184  -2.498   0.126  0.00  0.00    +0.250 C 
ATOM      6  C   LIG    1       -3.692  -2.466  -1.337  0.00  0.00    +0.260 C 
ATOM      7  O   LIG    1       -5.705  -1.605  -3.114  0.00  0.00    -0.510 OA
ENDROOT
BRANCH   1  11
ATOM      8  C   LIG    1       -9.979  -5.107  -3.292  0.00  0.00    +0.150 C 
ATOM      9  C   LIG    1       -9.374  -3.965  -2.518  0.00  0.00    +0.180 A 
ATOM     10  C   LIG    1       -8.068  -3.658  -2.694  0.00  0.00    -0.060 A 
ATOM     11  C   LIG    1       -7.492  -2.593  -1.968  0.00  0.00    -0.000 A 
ATOM     12  C   LIG    1       -8.285  -1.873  -1.094  0.00  0.00    -0.060 A 
ATOM     13  C   LIG    1       -9.642  -2.228  -0.951  0.00  0.00    +0.520 A 
ATOM     14  O   LIG    1      -10.357  -1.604  -0.185  0.00  0.00    -0.540 OA
ATOM     15  N   LIG    1      -10.149  -3.255  -1.659  0.00  0.00    -0.600 N 
ATOM     16  H   LIG    1      -11.083  -3.492  -1.553  0.00  0.00    +0.420 HD
ENDBRANCH   1  11
BRANCH   5  17
ATOM     17  N   LIG    1       -1.781  -2.915   0.186  0.00  0.00    -0.690 N 
ATOM     18  H   LIG    1       -1.558  -3.854   0.278  0.00  0.00    +0.420 HD
BRANCH  17  19
ATOM     19  C   LIG    1       -0.768  -1.963   0.111  0.00  0.00    +0.410 A 
ATOM     20  N   LIG    1       -1.079  -0.694  -0.014  0.00  0.00    -0.350 NA
ATOM     21  N   LIG    1       -0.078   0.279  -0.091  0.00  0.00    -0.250 N 
ATOM     22  C   LIG    1       -0.111   1.635  -0.219  0.00  0.00    +0.170 A 
ATOM     23  C   LIG    1        1.172   2.068  -0.241  0.00  0.00    +0.200 A 
ATOM     24  N   LIG    1        1.978   1.012  -0.129  0.00  0.00    -0.460 NA
ATOM     25  C   LIG    1        1.242  -0.087  -0.037  0.00  0.00    +0.140 A 
ATOM     26  C   LIG    1        1.573  -1.450   0.097  0.00  0.00    +0.180 A 
ATOM     27  C   LIG    1        0.577  -2.372   0.169  0.00  0.00    -0.050 A 
ENDBRANCH  17  19
ENDBRANCH   5  17
TORSDOF 3
