REMARK  Name = ZINCkj000005gCeo.1
REMARK                            x       y       z     vdW  Elec       q    Type
REMARK                         _______ _______ _______ _____ _____    ______ ____
ROOT
ATOM      1  N   LIG    1       -1.905   6.507   3.959  0.00  0.00    -0.730 N 
ATOM      2  H   LIG    1       -1.603   7.095   3.248  0.00  0.00    +0.390 HD
ATOM      3  C   LIG    1       -1.870   5.171   3.789  0.00  0.00    +0.700 C 
ATOM      4  N   LIG    1       -1.415   4.650   2.633  0.00  0.00    -0.750 N 
ATOM      5  H   LIG    1       -1.112   5.237   1.922  0.00  0.00    +0.400 HD
ATOM      6  O   LIG    1       -2.249   4.435   4.680  0.00  0.00    -0.580 OA
ENDROOT
BRANCH   1   7
ATOM      7  C   LIG    1       -2.400   7.073   5.216  0.00  0.00    +0.250 C 
ATOM      8  C   LIG    1       -1.262   7.121   6.237  0.00  0.00    +0.020 C 
BRANCH   7   9
ATOM      9  C   LIG    1       -2.922   8.490   4.967  0.00  0.00    +0.020 C 
BRANCH   9  10
ATOM     10  C   LIG    1       -4.140   8.430   4.043  0.00  0.00    -0.020 C 
ATOM     11  C   LIG    1       -5.281   7.697   4.751  0.00  0.00    +0.030 C 
BRANCH  10  13
ATOM     12  C   LIG    1       -5.723   9.793   2.673  0.00  0.00    +0.010 C 
ATOM     13  C   LIG    1       -4.586   9.851   3.694  0.00  0.00    +0.000 C 
ENDBRANCH  10  13
ENDBRANCH   9  10
ENDBRANCH   7   9
ENDBRANCH   1   7
BRANCH   4  14
ATOM     14  C   LIG    1       -1.376   3.197   2.448  0.00  0.00    +0.320 C 
BRANCH  14  15
ATOM     15  C   LIG    1       -0.705   2.870   1.113  0.00  0.00    +0.140 C 
ATOM     16  C   LIG    1        0.763   3.300   1.160  0.00  0.00    +0.280 C 
ATOM     17  N   LIG    1        1.402   3.004  -0.129  0.00  0.00    -0.380 N 
ATOM     18  C   LIG    1        0.723   3.751  -1.196  0.00  0.00    +0.280 C 
ATOM     19  C   LIG    1       -0.745   3.325  -1.263  0.00  0.00    +0.210 C 
ATOM     20  C   LIG    1        1.307   1.564  -0.403  0.00  0.00    +0.320 C 
ATOM     21  H   LIG    1        2.373   3.276  -0.093  0.00  0.00    +0.430 HD
ATOM     22  N   LIG    1       -1.389   3.592   0.030  0.00  0.00    -0.540 NA
ATOM     23  C   LIG    1       -2.817   3.248  -0.011  0.00  0.00    +0.240 C 
ENDBRANCH  14  15
ENDBRANCH   4  14
TORSDOF 6
