REMARK  Name = ZINCkj000005gCeo.0
REMARK                            x       y       z     vdW  Elec       q    Type
REMARK                         _______ _______ _______ _____ _____    ______ ____
ROOT
ATOM      1  N   LIG    1        0.450   1.509   5.507  0.00  0.00    -0.730 N 
ATOM      2  H   LIG    1       -0.363   2.010   5.677  0.00  0.00    +0.390 HD
ATOM      3  C   LIG    1        0.745   1.110   4.254  0.00  0.00    +0.700 C 
ATOM      4  N   LIG    1       -0.089   1.407   3.238  0.00  0.00    -0.750 N 
ATOM      5  H   LIG    1       -0.902   1.908   3.408  0.00  0.00    +0.400 HD
ATOM      6  O   LIG    1        1.764   0.482   4.040  0.00  0.00    -0.580 OA
ENDROOT
BRANCH   1   7
ATOM      7  C   LIG    1        1.357   1.186   6.611  0.00  0.00    +0.250 C 
ATOM      8  C   LIG    1        2.459   2.244   6.691  0.00  0.00    +0.020 C 
BRANCH   7   9
ATOM      9  C   LIG    1        0.573   1.166   7.925  0.00  0.00    +0.020 C 
BRANCH   9  10
ATOM     10  C   LIG    1       -0.447   0.026   7.893  0.00  0.00    -0.020 C 
ATOM     11  C   LIG    1        0.288  -1.315   7.839  0.00  0.00    +0.030 C 
BRANCH  10  13
ATOM     12  C   LIG    1       -2.413  -0.979   9.062  0.00  0.00    +0.000 C 
ATOM     13  C   LIG    1       -1.314   0.082   9.152  0.00  0.00    +0.000 C 
ENDBRANCH  10  13
ENDBRANCH   9  10
ENDBRANCH   7   9
ENDBRANCH   1   7
BRANCH   4  14
ATOM     14  C   LIG    1        0.232   0.973   1.876  0.00  0.00    +0.320 C 
BRANCH  14  15
ATOM     15  C   LIG    1       -0.803   1.541   0.902  0.00  0.00    +0.130 C 
ATOM     16  C   LIG    1       -0.685   3.066   0.864  0.00  0.00    +0.280 C 
ATOM     17  N   LIG    1       -1.693   3.612  -0.055  0.00  0.00    -0.390 N 
ATOM     18  C   LIG    1       -3.036   3.252   0.417  0.00  0.00    +0.280 C 
ATOM     19  C   LIG    1       -3.173   1.728   0.452  0.00  0.00    +0.210 C 
ATOM     20  C   LIG    1       -1.567   5.075  -0.105  0.00  0.00    +0.330 C 
ATOM     21  H   LIG    1       -1.547   3.231  -0.978  0.00  0.00    +0.420 HD
ATOM     22  N   LIG    1       -2.153   1.168   1.349  0.00  0.00    -0.540 NA
ATOM     23  C   LIG    1       -2.288  -0.291   1.454  0.00  0.00    +0.230 C 
ENDBRANCH  14  15
ENDBRANCH   4  14
TORSDOF 6
