REMARK  Name = ZINCvU0000000Jkk.1
REMARK                            x       y       z     vdW  Elec       q    Type
REMARK                         _______ _______ _______ _____ _____    ______ ____
ROOT
ATOM      1  O   LIG    1       -1.285  10.321   1.253  0.00  0.00    -0.490 OA
ATOM      2  C   LIG    1       -0.078  10.340   1.137  0.00  0.00    +0.530 C 
ATOM      3  N   LIG    1        0.621   9.188   1.167  0.00  0.00    -0.680 N 
ATOM      4  H   LIG    1        1.590   9.208   1.138  0.00  0.00    +0.410 HD
ENDROOT
BRANCH   3   5
ATOM      5  C   LIG    1       -0.052   7.964   1.239  0.00  0.00    +0.200 A 
ATOM      6  C   LIG    1        0.459   6.885   0.582  0.00  0.00    -0.020 A 
ATOM      7  C   LIG    1       -0.213   5.646   0.649  0.00  0.00    +0.120 A 
ATOM      8  N   LIG    1        0.008   4.443   0.151  0.00  0.00    -0.310 NA
ATOM      9  N   LIG    1       -1.021   3.587   0.559  0.00  0.00    -0.330 N 
ATOM     10  C   LIG    1       -1.893   4.253   1.329  0.00  0.00    +0.270 A 
ATOM     11  C   LIG    1       -1.454   5.560   1.434  0.00  0.00    -0.210 A 
ATOM     12  C   LIG    1       -1.928   6.716   2.091  0.00  0.00    +0.100 A 
ATOM     13  C   LIG    1       -1.236   7.877   1.986  0.00  0.00    -0.010 A 
BRANCH   9  14
ATOM     14  C   LIG    1       -1.127   2.170   0.203  0.00  0.00    +0.340 C 
BRANCH  14  15
ATOM     15  C   LIG    1       -1.092   2.023  -1.320  0.00  0.00    +0.050 C 
BRANCH  15  16
ATOM     16  C   LIG    1       -1.202   0.543  -1.692  0.00  0.00    +0.070 C 
BRANCH  16  17
ATOM     17  C   LIG    1       -1.167   0.396  -3.215  0.00  0.00    +0.450 C 
ATOM     18  F   LIG    1       -2.238   1.099  -3.776  0.00  0.00    -0.180 F 
ATOM     19  F   LIG    1       -1.268  -0.957  -3.555  0.00  0.00    -0.180 F 
ATOM     20  F   LIG    1        0.037   0.912  -3.705  0.00  0.00    -0.180 F 
ENDBRANCH  16  17
ENDBRANCH  15  16
ENDBRANCH  14  15
ENDBRANCH   9  14
ENDBRANCH   3   5
BRANCH   2  21
ATOM     21  C   LIG    1        0.641  11.653   0.959  0.00  0.00    +0.180 C 
BRANCH  21  22
ATOM     22  C   LIG    1        1.228  12.087   2.277  0.00  0.00    -0.090 A 
ATOM     23  C   LIG    1        0.427  12.700   3.222  0.00  0.00    +0.060 A 
ATOM     24  C   LIG    1        0.965  13.094   4.433  0.00  0.00    +0.000 A 
ATOM     25  C   LIG    1        2.306  12.884   4.695  0.00  0.00    +0.010 A 
ATOM     26  C   LIG    1        3.108  12.276   3.747  0.00  0.00    +0.000 A 
ATOM     27  C   LIG    1        2.569  11.878   2.538  0.00  0.00    +0.010 A 
ENDBRANCH  21  22
BRANCH  21  28
ATOM     28  N   LIG    1       -0.308  12.670   0.486  0.00  0.00    -0.490 NA
ATOM     29  C   LIG    1        0.354  13.994   0.353  0.00  0.00    +0.180 C 
ATOM     30  C   LIG    1       -0.583  14.763  -0.612  0.00  0.00    +0.030 C 
ATOM     31  C   LIG    1       -1.029  13.667  -1.607  0.00  0.00    +0.010 C 
ATOM     32  C   LIG    1       -0.815  12.336  -0.862  0.00  0.00    +0.160 C 
ENDBRANCH  21  28
ENDBRANCH   2  21
TORSDOF 8
