REMARK  Name = ZINCrD0000075XQ5.0
REMARK                            x       y       z     vdW  Elec       q    Type
REMARK                         _______ _______ _______ _____ _____    ______ ____
ROOT
ATOM      1  O   LIG    1       -3.029  -0.333   4.574  0.00  0.00    -0.520 OA
ATOM      2  C   LIG    1       -2.642  -0.121   3.441  0.00  0.00    +0.710 C 
ATOM      3  N   LIG    1       -2.377   1.104   2.956  0.00  0.00    -0.730 N 
ATOM      4  H   LIG    1       -2.404   1.947   3.432  0.00  0.00    +0.440 HD
ATOM      5  C   LIG    1       -2.021   0.923   1.532  0.00  0.00    +0.180 C 
ATOM      6  C   LIG    1       -1.994  -0.567   1.361  0.00  0.00    +0.540 C 
ATOM      7  O   LIG    1       -1.654  -1.224   0.400  0.00  0.00    -0.450 OA
ATOM      8  C   LIG    1       -0.666   1.574   1.283  0.00  0.00    +0.060 C 
ATOM      9  C   LIG    1       -0.013   1.082   0.008  0.00  0.00    +0.020 C 
ATOM     10  C   LIG    1       -0.678   1.573  -1.263  0.00  0.00    +0.020 C 
ATOM     11  C   LIG    1       -2.011   0.864  -1.490  0.00  0.00    +0.060 C 
ATOM     12  C   LIG    1       -3.087   1.555  -0.678  0.00  0.00    -0.050 A 
ATOM     13  C   LIG    1       -4.102   2.185  -1.391  0.00  0.00    +0.010 A 
ATOM     14  C   LIG    1       -5.123   2.831  -0.723  0.00  0.00    +0.030 A 
ATOM     15  C   LIG    1       -5.132   2.849   0.658  0.00  0.00    +0.010 A 
ATOM     16  C   LIG    1       -4.120   2.225   1.361  0.00  0.00    +0.030 A 
ATOM     17  C   LIG    1       -3.090   1.576   0.686  0.00  0.00    -0.100 A 
ATOM     18  N   LIG    1       -2.432  -1.081   2.535  0.00  0.00    -0.580 N 
ENDROOT
BRANCH  18  19
ATOM     19  C   LIG    1       -2.632  -2.511   2.779  0.00  0.00    +0.350 C 
BRANCH  19  20
ATOM     20  C   LIG    1       -1.339  -3.122   3.323  0.00  0.00    +0.200 C 
BRANCH  20  21
ATOM     21  O   LIG    1       -1.047  -2.557   4.603  0.00  0.00    -0.300 OA
BRANCH  21  22
ATOM     22  C   LIG    1        0.078  -2.996   5.228  0.00  0.00    +0.120 A 
ATOM     23  C   LIG    1        0.879  -3.954   4.625  0.00  0.00    -0.040 A 
ATOM     24  C   LIG    1        2.024  -4.396   5.260  0.00  0.00    +0.030 A 
ATOM     25  C   LIG    1        2.366  -3.889   6.502  0.00  0.00    +0.060 A 
ATOM     26  C   LIG    1        1.565  -2.936   7.108  0.00  0.00    +0.030 A 
ATOM     27  F   LIG    1        3.483  -4.325   7.124  0.00  0.00    -0.140 F 
ATOM     28  C   LIG    1        0.422  -2.489   6.473  0.00  0.00    +0.020 A 
ENDBRANCH  21  22
ENDBRANCH  20  21
ENDBRANCH  19  20
ENDBRANCH  18  19
TORSDOF 4
