REMARK  Name = ZINCrD00000l2Lm3.0
REMARK                            x       y       z     vdW  Elec       q    Type
REMARK                         _______ _______ _______ _____ _____    ______ ____
ROOT
ATOM      1  C   LIG    1       -2.752   3.321  -1.498  0.00  0.00    +0.310 A 
ATOM      2  C   LIG    1       -2.135   4.545  -1.738  0.00  0.00    -0.070 A 
ATOM      3  C   LIG    1       -2.765   5.475  -2.548  0.00  0.00    +0.080 A 
ATOM      4  C   LIG    1       -4.003   5.157  -3.084  0.00  0.00    -0.030 A 
ATOM      5  C   LIG    1       -4.569   3.917  -2.799  0.00  0.00    +0.180 A 
ATOM      6  N   LIG    1       -3.934   3.046  -2.024  0.00  0.00    -0.440 NA
ENDROOT
BRANCH   1  16
ATOM      7  O   LIG    1       -0.943  -0.716   0.269  0.00  0.00    -0.510 OA
ATOM      8  C   LIG    1        0.002  -0.004   0.002  0.00  0.00    +0.530 C 
ATOM      9  N   LIG    1        1.228  -0.441  -0.347  0.00  0.00    -0.740 N 
ATOM     10  H   LIG    1        1.481  -1.375  -0.405  0.00  0.00    +0.410 HD
ATOM     11  C   LIG    1        2.133   0.682  -0.627  0.00  0.00    +0.250 C 
ATOM     12  C   LIG    1        1.457   1.925  -0.002  0.00  0.00    +0.060 C 
ATOM     13  C   LIG    1       -0.018   1.498   0.010  0.00  0.00    -0.100 C 
ATOM     14  C   LIG    1       -0.742   2.049   1.244  0.00  0.00    +0.080 C 
ATOM     15  C   LIG    1       -1.883   2.922   0.672  0.00  0.00    +0.190 C 
ATOM     16  N   LIG    1       -2.122   2.380  -0.692  0.00  0.00    -0.460 N 
ATOM     17  C   LIG    1       -0.763   2.061  -1.207  0.00  0.00    +0.230 C 
ENDBRANCH   1  16
BRANCH   5  18
ATOM     18  C   LIG    1       -5.893   3.567  -3.368  0.00  0.00    -0.060 A 
ATOM     19  C   LIG    1       -6.567   4.474  -4.182  0.00  0.00    +0.080 A 
ATOM     20  C   LIG    1       -7.798   4.142  -4.709  0.00  0.00    +0.000 A 
ATOM     21  C   LIG    1       -8.367   2.912  -4.431  0.00  0.00    +0.080 A 
ATOM     22  C   LIG    1       -7.707   2.004  -3.625  0.00  0.00    -0.060 A 
ATOM     23  C   LIG    1       -6.468   2.321  -3.093  0.00  0.00    +0.150 A 
BRANCH  23  24
ATOM     24  O   LIG    1       -5.815   1.428  -2.305  0.00  0.00    -0.260 OA
BRANCH  24  25
ATOM     25  C   LIG    1       -6.464   0.177  -2.068  0.00  0.00    +0.600 C 
ATOM     26  F   LIG    1       -7.696   0.401  -1.444  0.00  0.00    -0.170 F 
ATOM     27  F   LIG    1       -5.660  -0.616  -1.243  0.00  0.00    -0.120 F 
ATOM     28  F   LIG    1       -6.671  -0.478  -3.287  0.00  0.00    -0.170 F 
ENDBRANCH  24  25
ENDBRANCH  23  24
ENDBRANCH   5  18
TORSDOF 4
