REMARK  Name = ZINCrH000004pyEw.0
REMARK                            x       y       z     vdW  Elec       q    Type
REMARK                         _______ _______ _______ _____ _____    ______ ____
ROOT
ATOM      1  C   LIG    1       -2.890   3.747   0.310  0.00  0.00    +0.330 C 
ENDROOT
BRANCH   1   2
ATOM      2  C   LIG    1       -1.696   2.833   0.406  0.00  0.00    -0.150 A 
ATOM      3  C   LIG    1       -1.879   1.469   0.540  0.00  0.00    +0.070 A 
ATOM      4  C   LIG    1       -0.786   0.630   0.633  0.00  0.00    -0.020 A 
ATOM      5  C   LIG    1        0.497   1.156   0.582  0.00  0.00    +0.140 A 
ATOM      6  C   LIG    1        0.678   2.524   0.442  0.00  0.00    -0.080 A 
ATOM      7  C   LIG    1       -0.418   3.360   0.355  0.00  0.00    +0.070 A 
BRANCH   5   8
ATOM      8  O   LIG    1        1.574   0.332   0.668  0.00  0.00    -0.310 OA
BRANCH   8   9
ATOM      9  C   LIG    1        2.865   0.942   0.608  0.00  0.00    +0.270 C 
BRANCH   9  10
ATOM     10  C   LIG    1        3.929  -0.119   0.718  0.00  0.00    -0.150 A 
ATOM     11  C   LIG    1        4.426  -0.488   1.958  0.00  0.00    +0.090 A 
ATOM     12  C   LIG    1        5.400  -1.474   2.011  0.00  0.00    -0.030 A 
ATOM     13  C   LIG    1        5.848  -2.043   0.834  0.00  0.00    +0.270 A 
ATOM     14  N   LIG    1        5.356  -1.663  -0.329  0.00  0.00    -0.490 NA
ATOM     15  C   LIG    1        4.425  -0.733  -0.417  0.00  0.00    +0.290 A 
ENDBRANCH   9  10
ENDBRANCH   8   9
ENDBRANCH   5   8
ENDBRANCH   1   2
BRANCH   1  17
ATOM     16  C   LIG    1       -4.324   4.681  -1.425  0.00  0.00    +0.520 C 
ATOM     17  N   LIG    1       -3.275   3.902  -1.096  0.00  0.00    -0.720 N 
ATOM     18  H   LIG    1       -2.773   3.445  -1.789  0.00  0.00    +0.400 HD
ATOM     19  O   LIG    1       -4.951   5.252  -0.558  0.00  0.00    -0.510 OA
BRANCH  16  21
ATOM     20  C   LIG    1       -3.552   5.443  -3.655  0.00  0.00    +0.060 C 
ATOM     21  C   LIG    1       -4.719   4.840  -2.871  0.00  0.00    +0.170 C 
BRANCH  21  22
ATOM     22  O   LIG    1       -5.852   5.707  -2.962  0.00  0.00    -0.290 OA
BRANCH  22  23
ATOM     23  C   LIG    1       -6.650   5.566  -4.053  0.00  0.00    +0.130 A 
ATOM     24  C   LIG    1       -7.830   6.290  -4.149  0.00  0.00    -0.020 A 
ATOM     25  C   LIG    1       -8.637   6.149  -5.261  0.00  0.00    +0.050 A 
ATOM     26  C   LIG    1       -8.275   5.280  -6.274  0.00  0.00    -0.040 A 
ATOM     27  C   LIG    1       -7.102   4.553  -6.178  0.00  0.00    +0.050 A 
ATOM     28  C   LIG    1       -6.289   4.694  -5.070  0.00  0.00    -0.080 A 
ENDBRANCH  22  23
ENDBRANCH  21  22
ENDBRANCH  16  21
ENDBRANCH   1  17
TORSDOF 8
