REMARK  Name = ZINCpk00000eawsa.0
REMARK                            x       y       z     vdW  Elec       q    Type
REMARK                         _______ _______ _______ _____ _____    ______ ____
ROOT
ATOM      1  N   LIG    1       -1.894   1.641   1.508  0.00  0.00    -0.720 N 
ATOM      2  H   LIG    1       -2.196   0.883   0.983  0.00  0.00    +0.400 HD
ATOM      3  C   LIG    1       -2.626   2.070   2.555  0.00  0.00    +0.600 C 
ATOM      4  O   LIG    1       -2.294   3.074   3.159  0.00  0.00    -0.560 OA
ENDROOT
BRANCH   3   5
ATOM      5  C   LIG    1       -3.823   1.327   2.968  0.00  0.00    -0.310 A 
ATOM      6  C   LIG    1       -4.730   1.701   3.957  0.00  0.00    +0.380 A 
ATOM      7  N   LIG    1       -4.793   2.787   4.792  0.00  0.00    -0.590 N 
ATOM      8  H   LIG    1       -4.108   3.473   4.745  0.00  0.00    +0.450 HD
ATOM      9  C   LIG    1       -5.813   2.907   5.688  0.00  0.00    +0.380 A 
ATOM     10  C   LIG    1       -6.767   1.951   5.753  0.00  0.00    -0.120 A 
ATOM     11  C   LIG    1       -6.698   0.836   4.893  0.00  0.00    +0.560 A 
ATOM     12  O   LIG    1       -7.554  -0.030   4.945  0.00  0.00    -0.480 OA
ATOM     13  N   LIG    1       -5.682   0.731   4.012  0.00  0.00    -0.360 N 
ATOM     14  N   LIG    1       -5.368  -0.243   3.058  0.00  0.00    -0.260 NA
ATOM     15  C   LIG    1       -4.277   0.101   2.433  0.00  0.00    +0.340 A 
ENDBRANCH   3   5
BRANCH   1  16
ATOM     16  C   LIG    1       -0.642   2.319   1.162  0.00  0.00    +0.320 C 
BRANCH  16  17
ATOM     17  C   LIG    1       -0.075   1.718  -0.125  0.00  0.00    -0.090 C 
ATOM     18  C   LIG    1        1.347   1.157  -0.076  0.00  0.00    +0.050 C 
ATOM     19  C   LIG    1        0.153   0.205  -0.158  0.00  0.00    +0.030 C 
BRANCH  17  25
ATOM     20  C   LIG    1       -0.596   3.766  -1.476  0.00  0.00    +0.140 A 
ATOM     21  C   LIG    1       -1.004   4.374  -2.654  0.00  0.00    -0.080 A 
ATOM     22  C   LIG    1       -1.331   3.602  -3.752  0.00  0.00    +0.040 A 
ATOM     23  C   LIG    1       -1.253   2.224  -3.677  0.00  0.00    -0.020 A 
ATOM     24  C   LIG    1       -0.841   1.615  -2.506  0.00  0.00    +0.050 A 
ATOM     25  C   LIG    1       -0.518   2.382  -1.403  0.00  0.00    -0.080 A 
BRANCH  20  27
ATOM     26  C   LIG    1       -0.494   5.931  -0.500  0.00  0.00    +0.240 C 
ATOM     27  O   LIG    1       -0.274   4.523  -0.394  0.00  0.00    -0.310 OA
ENDBRANCH  20  27
ENDBRANCH  17  25
ENDBRANCH  16  17
ENDBRANCH   1  16
TORSDOF 5
