REMARK  Name = ZINCpe00000Rku5e.0
REMARK                            x       y       z     vdW  Elec       q    Type
REMARK                         _______ _______ _______ _____ _____    ______ ____
ROOT
ATOM      1  C   LIG    1       -2.788   2.631  -2.392  0.00  0.00    +0.330 C 
ENDROOT
BRANCH   1   2
ATOM      2  C   LIG    1       -4.270   2.661  -2.122  0.00  0.00    -0.090 A 
ATOM      3  C   LIG    1       -5.048   1.554  -2.407  0.00  0.00    +0.040 A 
ATOM      4  C   LIG    1       -6.407   1.581  -2.156  0.00  0.00    +0.070 A 
ATOM      5  C   LIG    1       -6.990   2.717  -1.627  0.00  0.00    -0.080 A 
ATOM      6  C   LIG    1       -6.213   3.825  -1.346  0.00  0.00    +0.070 A 
ATOM      7  C   LIG    1       -4.854   3.798  -1.593  0.00  0.00    +0.040 A 
BRANCH   5   8
ATOM      8  C   LIG    1       -8.472   2.747  -1.356  0.00  0.00    +0.000 C 
ATOM      9  N   LIG    1       -9.393   2.696  -2.494  0.00  0.00    -0.050 NA
ATOM     10  N   LIG    1       -9.274   3.811  -1.965  0.00  0.00    -0.060 NA
BRANCH   8  11
ATOM     11  C   LIG    1       -8.927   2.161  -0.018  0.00  0.00    +0.500 C 
ATOM     12  F   LIG    1       -8.549   0.817   0.056  0.00  0.00    -0.160 F 
ATOM     13  F   LIG    1      -10.318   2.261   0.086  0.00  0.00    -0.170 F 
ATOM     14  F   LIG    1       -8.329   2.872   1.029  0.00  0.00    -0.150 F 
ENDBRANCH   8  11
ENDBRANCH   5   8
ENDBRANCH   1   2
BRANCH   1  17
ATOM     15  O   LIG    1       -0.115   2.334  -2.205  0.00  0.00    -0.510 OA
ATOM     16  C   LIG    1       -0.742   2.030  -1.212  0.00  0.00    +0.540 C 
ATOM     17  N   LIG    1       -2.085   2.142  -1.203  0.00  0.00    -0.710 N 
ATOM     18  H   LIG    1       -2.586   1.899  -0.408  0.00  0.00    +0.410 HD
BRANCH  16  19
ATOM     19  C   LIG    1       -0.019   1.528   0.010  0.00  0.00    -0.450 C 
ATOM     20  C   LIG    1        0.002  -0.004   0.002  0.00  0.00    +0.250 C 
ATOM     21  N   LIG    1        0.653  -0.500   1.216  0.00  0.00    -0.700 NA
ATOM     22  H   LIG    1        0.439  -1.474   1.369  0.00  0.00    +0.370 HD
ATOM     23  C   LIG    1        2.101  -0.277   1.206  0.00  0.00    +0.220 C 
ATOM     24  C   LIG    1        2.400   1.213   1.398  0.00  0.00    -0.320 C 
ATOM     25  S   LIG    1        1.696   2.133  -0.003  0.00  0.00    +2.440 S 
ATOM     26  O   LIG    1        1.692   3.518   0.317  0.00  0.00    -0.930 OA
ATOM     27  O   LIG    1        2.325   1.694  -1.199  0.00  0.00    -0.910 OA
ENDBRANCH  16  19
ENDBRANCH   1  17
TORSDOF 5
