REMARK  Name = ZINCqH0000034u2m.0
REMARK                            x       y       z     vdW  Elec       q    Type
REMARK                         _______ _______ _______ _____ _____    ______ ____
ROOT
ATOM      1  C   LIG    1       -0.901   1.545   0.414  0.00  0.00    -0.160 A 
ATOM      2  C   LIG    1       -1.110   2.923   0.313  0.00  0.00    +0.110 A 
ATOM      3  C   LIG    1       -0.047   3.789   0.401  0.00  0.00    +0.010 A 
ATOM      4  C   LIG    1        1.250   3.303   0.598  0.00  0.00    +0.170 A 
ATOM      5  C   LIG    1        1.453   1.933   0.702  0.00  0.00    -0.150 A 
ATOM      6  C   LIG    1        2.930   1.681   0.908  0.00  0.00    +0.110 C 
ATOM      7  C   LIG    1        3.563   3.082   0.910  0.00  0.00    +0.290 C 
ATOM      8  N   LIG    1        2.445   4.009   0.712  0.00  0.00    -0.550 N 
ATOM      9  C   LIG    1        2.558   5.351   0.650  0.00  0.00    +0.570 C 
ATOM     10  O   LIG    1        1.589   6.030   0.371  0.00  0.00    -0.510 OA
ATOM     11  C   LIG    1        0.393   1.058   0.615  0.00  0.00    +0.090 A 
ENDROOT
BRANCH   9  12
ATOM     12  C   LIG    1        3.859   5.996   0.920  0.00  0.00    -0.140 A 
ATOM     13  C   LIG    1        3.936   7.376   1.011  0.00  0.00    +0.120 A 
ATOM     14  C   LIG    1        5.174   7.982   1.273  0.00  0.00    -0.070 A 
ATOM     15  C   LIG    1        5.292   9.379   1.377  0.00  0.00    +0.040 A 
ATOM     16  C   LIG    1        6.509   9.936   1.626  0.00  0.00    +0.010 A 
ATOM     17  C   LIG    1        7.643   9.141   1.780  0.00  0.00    +0.030 A 
ATOM     18  C   LIG    1        7.567   7.785   1.685  0.00  0.00    +0.020 A 
ATOM     19  C   LIG    1        6.329   7.173   1.429  0.00  0.00    -0.030 A 
ATOM     20  C   LIG    1        6.218   5.774   1.325  0.00  0.00    +0.030 A 
ATOM     21  C   LIG    1        5.012   5.205   1.077  0.00  0.00    +0.020 A 
ENDBRANCH   9  12
BRANCH   1  24
ATOM     22  C   LIG    1       -2.950  -1.599  -0.159  0.00  0.00    +0.290 C 
ATOM     23  N   LIG    1       -1.852  -0.629  -0.180  0.00  0.00    -0.620 N 
ATOM     24  C   LIG    1       -2.040   0.612   0.314  0.00  0.00    +0.560 C 
ATOM     25  O   LIG    1       -3.147   0.961   0.676  0.00  0.00    -0.530 OA
ATOM     26  C   LIG    1       -0.551  -1.007  -0.737  0.00  0.00    +0.280 C 
ENDBRANCH   1  24
TORSDOF 2
