REMARK  Name = ZINCvU0000000IDl.1
REMARK                            x       y       z     vdW  Elec       q    Type
REMARK                         _______ _______ _______ _____ _____    ______ ____
ROOT
ATOM      1  N   LIG    1        0.790   3.929  -1.024  0.00  0.00    -0.520 NA
ATOM      2  C   LIG    1        1.568   3.344   0.077  0.00  0.00    +0.190 C 
ATOM      3  C   LIG    1        1.518   1.818  -0.020  0.00  0.00    +0.190 C 
ATOM      4  N   LIG    1        0.118   1.372   0.033  0.00  0.00    -0.530 NA
ATOM      5  C   LIG    1       -0.660   1.956  -1.068  0.00  0.00    +0.190 C 
ATOM      6  C   LIG    1       -0.609   3.483  -0.971  0.00  0.00    +0.190 C 
ENDROOT
BRANCH   1   7
ATOM      7  C   LIG    1        0.876   5.395  -1.009  0.00  0.00    +0.220 C 
BRANCH   7   9
ATOM      8  O   LIG    1       -0.173   5.192  -3.113  0.00  0.00    -0.490 OA
ATOM      9  C   LIG    1        0.280   5.946  -2.279  0.00  0.00    +0.520 C 
ATOM     10  N   LIG    1        0.249   7.278  -2.486  0.00  0.00    -0.670 N 
ATOM     11  H   LIG    1        0.536   7.885  -1.786  0.00  0.00    +0.410 HD
BRANCH  10  12
ATOM     12  C   LIG    1       -0.197   7.785  -3.713  0.00  0.00    +0.170 A 
ATOM     13  C   LIG    1       -0.119   7.004  -4.857  0.00  0.00    +0.060 A 
ATOM     14  C   LIG    1       -0.566   7.505  -6.065  0.00  0.00    +0.060 A 
ATOM     15  C   LIG    1       -1.079   8.787  -6.137  0.00  0.00    -0.050 A 
ATOM     16  C   LIG    1       -1.153   9.571  -4.999  0.00  0.00    +0.070 A 
ATOM     17 CL   LIG    1       -1.633   9.415  -7.658  0.00  0.00    -0.060 Cl
ATOM     18  C   LIG    1       -0.713   9.073  -3.787  0.00  0.00    -0.060 A 
ATOM     19 CL   LIG    1       -0.805  10.056  -2.359  0.00  0.00    -0.050 Cl
ENDBRANCH  10  12
ENDBRANCH   7   9
ENDBRANCH   1   7
BRANCH   4  20
ATOM     20  C   LIG    1        0.032  -0.094   0.018  0.00  0.00    +0.230 C 
BRANCH  20  21
ATOM     21  C   LIG    1       -1.404  -0.515   0.196  0.00  0.00    -0.080 A 
ATOM     22  C   LIG    1       -2.241   0.215   1.019  0.00  0.00    +0.040 A 
ATOM     23  C   LIG    1       -3.560  -0.168   1.178  0.00  0.00    +0.000 A 
ATOM     24  C   LIG    1       -4.039  -1.286   0.523  0.00  0.00    +0.000 A 
ATOM     25  C   LIG    1       -3.200  -2.020  -0.296  0.00  0.00    +0.000 A 
ATOM     26  C   LIG    1       -1.883  -1.634  -0.459  0.00  0.00    +0.010 A 
ENDBRANCH  20  21
BRANCH  20  27
ATOM     27  C   LIG    1        0.863  -0.658   1.142  0.00  0.00    -0.080 A 
ATOM     28  C   LIG    1        0.793  -0.095   2.403  0.00  0.00    +0.040 A 
ATOM     29  C   LIG    1        1.553  -0.615   3.434  0.00  0.00    +0.000 A 
ATOM     30  C   LIG    1        2.389  -1.691   3.203  0.00  0.00    +0.000 A 
ATOM     31  C   LIG    1        2.462  -2.251   1.941  0.00  0.00    +0.000 A 
ATOM     32  C   LIG    1        1.700  -1.734   0.910  0.00  0.00    +0.010 A 
ENDBRANCH  20  27
ENDBRANCH   4  20
TORSDOF 6
