REMARK  Name = ZINCtV00000tRP49.0
REMARK                            x       y       z     vdW  Elec       q    Type
REMARK                         _______ _______ _______ _____ _____    ______ ____
ROOT
ATOM      1  C   LIG    1        4.297   3.230   0.000  0.00  0.00    +0.200 C 
ENDROOT
BRANCH   1   2
ATOM      2  C   LIG    1        4.566   4.216  -1.107  0.00  0.00    -0.150 A 
ATOM      3  C   LIG    1        3.876   4.339  -2.252  0.00  0.00    +0.090 A 
ATOM      4  N   LIG    1        4.410   5.342  -3.014  0.00  0.00    -0.590 N 
ATOM      5  H   LIG    1        4.081   5.617  -3.884  0.00  0.00    +0.410 HD
ATOM      6  C   LIG    1        5.485   5.903  -2.361  0.00  0.00    +0.100 A 
ATOM      7  C   LIG    1        6.367   6.931  -2.677  0.00  0.00    -0.010 A 
ATOM      8  C   LIG    1        7.359   7.279  -1.786  0.00  0.00    +0.020 A 
ATOM      9  C   LIG    1        7.496   6.606  -0.581  0.00  0.00    -0.030 A 
ATOM     10  C   LIG    1        6.644   5.590  -0.252  0.00  0.00    +0.050 A 
ATOM     11  C   LIG    1        2.688   3.497  -2.641  0.00  0.00    +0.140 C 
ATOM     12  C   LIG    1        5.627   5.226  -1.136  0.00  0.00    -0.090 A 
ENDBRANCH   1   2
BRANCH   1  13
ATOM     13  C   LIG    1        4.572   1.833  -0.493  0.00  0.00    -0.150 A 
ATOM     14  C   LIG    1        3.760   0.770  -0.376  0.00  0.00    +0.080 A 
ATOM     15  N   LIG    1        4.346  -0.330  -0.942  0.00  0.00    -0.590 N 
ATOM     16  H   LIG    1        3.951  -1.214  -0.979  0.00  0.00    +0.410 HD
ATOM     17  C   LIG    1        5.581   0.007  -1.450  0.00  0.00    +0.100 A 
ATOM     18  C   LIG    1        6.572  -0.709  -2.113  0.00  0.00    -0.010 A 
ATOM     19  C   LIG    1        7.729  -0.073  -2.507  0.00  0.00    +0.020 A 
ATOM     20  C   LIG    1        7.917   1.278  -2.250  0.00  0.00    -0.030 A 
ATOM     21  C   LIG    1        6.956   2.001  -1.600  0.00  0.00    +0.060 A 
ATOM     22  C   LIG    1        2.405   0.785   0.282  0.00  0.00    +0.140 C 
ATOM     23  C   LIG    1        5.776   1.377  -1.192  0.00  0.00    -0.090 A 
ENDBRANCH   1  13
BRANCH   1  27
ATOM     24  C   LIG    1        6.839   4.092   3.325  0.00  0.00    +0.120 A 
ATOM     25  C   LIG    1        5.575   4.659   3.252  0.00  0.00    -0.020 A 
ATOM     26  C   LIG    1        4.755   4.379   2.175  0.00  0.00    +0.060 A 
ATOM     27  C   LIG    1        5.193   3.534   1.173  0.00  0.00    -0.100 A 
ATOM     28  C   LIG    1        6.451   2.963   1.246  0.00  0.00    +0.060 A 
ATOM     29  C   LIG    1        7.277   3.245   2.317  0.00  0.00    -0.090 A 
BRANCH  24  31
ATOM     30  C   LIG    1        8.935   3.747   4.392  0.00  0.00    +0.240 C 
ATOM     31  O   LIG    1        7.647   4.366   4.383  0.00  0.00    -0.320 OA
ENDBRANCH  24  31
ENDBRANCH   1  27
TORSDOF 4
