REMARK  Name = ZINCqH0000037Ygv.2
REMARK                            x       y       z     vdW  Elec       q    Type
REMARK                         _______ _______ _______ _____ _____    ______ ____
ROOT
ATOM      1  N   LIG    1        3.001   1.396  -1.387  0.00  0.00    -0.510 NA
ATOM      2  C   LIG    1        3.120   2.788  -1.893  0.00  0.00    +0.170 C 
ATOM      3  C   LIG    1        4.104   2.688  -3.079  0.00  0.00    +0.040 C 
ATOM      4  C   LIG    1        4.934   1.417  -2.805  0.00  0.00    -0.020 C 
ATOM      5  C   LIG    1        4.382   0.856  -1.477  0.00  0.00    +0.200 C 
ENDROOT
BRANCH   4   6
ATOM      6  C   LIG    1        6.393   1.766  -2.661  0.00  0.00    -0.070 A 
ATOM      7  C   LIG    1        7.339   1.113  -3.428  0.00  0.00    +0.030 A 
ATOM      8  C   LIG    1        8.677   1.437  -3.298  0.00  0.00    +0.000 A 
ATOM      9  C   LIG    1        9.069   2.406  -2.394  0.00  0.00    +0.000 A 
ATOM     10  C   LIG    1        8.123   3.056  -1.623  0.00  0.00    +0.000 A 
ATOM     11  C   LIG    1        6.785   2.735  -1.756  0.00  0.00    +0.000 A 
ENDBRANCH   4   6
BRANCH   1  12
ATOM     12  C   LIG    1        2.519   1.380   0.000  0.00  0.00    +0.280 C 
BRANCH  12  15
ATOM     13  C   LIG    1       -0.683   3.057   0.098  0.00  0.00    +0.240 A 
ATOM     14  N   LIG    1        0.629   3.075   0.079  0.00  0.00    -0.460 NA
ATOM     15  C   LIG    1        1.075   1.811   0.035  0.00  0.00    -0.000 A 
ATOM     16  C   LIG    1        0.005   0.996   0.027  0.00  0.00    +0.170 A 
ATOM     17  O   LIG    1       -1.093   1.777   0.061  0.00  0.00    -0.200 OA
BRANCH  13  22
ATOM     18  C   LIG    1       -4.107   7.678   0.284  0.00  0.00    +0.100 C 
ATOM     19  C   LIG    1       -3.210   6.468   0.236  0.00  0.00    -0.060 A 
ATOM     20  C   LIG    1       -3.765   5.201   0.207  0.00  0.00    +0.010 A 
ATOM     21  C   LIG    1       -2.949   4.088   0.162  0.00  0.00    +0.050 A 
ATOM     22  C   LIG    1       -1.562   4.244   0.146  0.00  0.00    -0.030 A 
ATOM     23  C   LIG    1       -1.010   5.525   0.181  0.00  0.00    +0.070 A 
ATOM     24  C   LIG    1       -1.836   6.629   0.220  0.00  0.00    +0.010 A 
ENDBRANCH  13  22
ENDBRANCH  12  15
ENDBRANCH   1  12
BRANCH   4  25
ATOM     25  C   LIG    1        4.741   0.403  -3.934  0.00  0.00    +0.200 C 
BRANCH  25  26
ATOM     26  O   LIG    1        5.197   0.967  -5.165  0.00  0.00    -0.570 OA
ATOM     27  H   LIG    1        5.104   0.378  -5.926  0.00  0.00    +0.380 HD
ENDBRANCH  25  26
ENDBRANCH   4  25
TORSDOF 6
