REMARK  Name = ZINCqH0000050b5u.0
REMARK                            x       y       z     vdW  Elec       q    Type
REMARK                         _______ _______ _______ _____ _____    ______ ____
ROOT
ATOM      1  O   LIG    1       -4.891   0.788   0.030  0.00  0.00    -0.330 OA
ENDROOT
BRANCH   1   2
ATOM      2  C   LIG    1       -6.138   1.286   0.039  0.00  0.00    +0.480 C 
ATOM      3  O   LIG    1       -6.311   2.482   0.046  0.00  0.00    -0.490 OA
BRANCH   2   4
ATOM      4  C   LIG    1       -7.321   0.353   0.040  0.00  0.00    +0.150 C 
BRANCH   4   5
ATOM      5  S   LIG    1       -8.851   1.320   0.052  0.00  0.00    +0.090 S 
BRANCH   5  11
ATOM      6  C   LIG    1       -9.994  -3.668   0.031  0.00  0.00    +0.140 C 
ATOM      7  C   LIG    1      -10.480  -2.242   0.041  0.00  0.00    +0.190 A 
ATOM      8  C   LIG    1      -11.838  -1.964   0.050  0.00  0.00    -0.090 A 
ATOM      9  C   LIG    1      -12.244  -0.638   0.059  0.00  0.00    +0.200 A 
ATOM     10  N   LIG    1      -11.328   0.316   0.059  0.00  0.00    -0.510 NA
ATOM     11  C   LIG    1      -10.037   0.017   0.052  0.00  0.00    +0.290 A 
ATOM     12  C   LIG    1      -13.710  -0.289   0.067  0.00  0.00    +0.150 C 
ATOM     13  N   LIG    1       -9.617  -1.240   0.038  0.00  0.00    -0.540 NA
ENDBRANCH   5  11
ENDBRANCH   4   5
ENDBRANCH   2   4
ENDBRANCH   1   2
BRANCH   1  14
ATOM     14  C   LIG    1       -3.799   1.746   0.030  0.00  0.00    +0.240 C 
BRANCH  14  15
ATOM     15  C   LIG    1       -2.485   1.008   0.020  0.00  0.00    +0.400 C 
ATOM     16  O   LIG    1       -2.470  -0.204   0.013  0.00  0.00    -0.430 OA
BRANCH  15  17
ATOM     17  C   LIG    1       -1.221   1.760   0.017  0.00  0.00    -0.170 A 
ATOM     18  C   LIG    1       -0.013   1.076   0.008  0.00  0.00    +0.120 A 
ATOM     19  C   LIG    1        1.189   1.800   0.000  0.00  0.00    -0.070 A 
ATOM     20  C   LIG    1        2.432   1.143  -0.015  0.00  0.00    +0.040 A 
ATOM     21  C   LIG    1        3.580   1.875  -0.022  0.00  0.00    +0.010 A 
ATOM     22  C   LIG    1        3.542   3.267  -0.015  0.00  0.00    +0.030 A 
ATOM     23  C   LIG    1        2.357   3.937  -0.000  0.00  0.00    +0.020 A 
ATOM     24  C   LIG    1        1.151   3.218   0.008  0.00  0.00    -0.030 A 
ATOM     25  C   LIG    1       -0.090   3.882   0.023  0.00  0.00    +0.030 A 
ATOM     26  C   LIG    1       -1.244   3.168   0.030  0.00  0.00    +0.040 A 
ENDBRANCH  15  17
ENDBRANCH  14  15
ENDBRANCH   1  14
TORSDOF 7
