REMARK  Name = ZINCvU0000000IxA.0
REMARK                            x       y       z     vdW  Elec       q    Type
REMARK                         _______ _______ _______ _____ _____    ______ ____
ROOT
ATOM      1  C   LIG    1        2.137  -2.841  -2.537  0.00  0.00    +0.240 A 
ATOM      2  N   LIG    1        1.584  -4.031  -2.532  0.00  0.00    -0.270 NA
ATOM      3  N   LIG    1        0.340  -3.938  -2.841  0.00  0.00    -0.290 NA
ATOM      4  C   LIG    1        0.021  -2.682  -3.057  0.00  0.00    +0.140 A 
ATOM      5  N   LIG    1        1.152  -1.939  -2.867  0.00  0.00    -0.450 N 
ENDROOT
BRANCH   1   9
ATOM      6  C   LIG    1        6.202  -1.941  -1.684  0.00  0.00    +0.150 A 
ATOM      7  C   LIG    1        5.564  -2.973  -1.007  0.00  0.00    -0.010 A 
ATOM      8  C   LIG    1        4.245  -3.268  -1.281  0.00  0.00    +0.110 A 
ATOM      9  C   LIG    1        3.551  -2.528  -2.240  0.00  0.00    -0.050 A 
ATOM     10  C   LIG    1        4.198  -1.496  -2.923  0.00  0.00    +0.070 A 
ATOM     11  C   LIG    1        5.515  -1.203  -2.639  0.00  0.00    -0.070 A 
BRANCH   6  13
ATOM     12  C   LIG    1        8.095  -0.580  -2.144  0.00  0.00    +0.240 C 
ATOM     13  O   LIG    1        7.501  -1.653  -1.411  0.00  0.00    -0.310 OA
ENDBRANCH   6  13
ENDBRANCH   1   9
BRANCH   4  14
ATOM     14  S   LIG    1       -1.569  -2.070  -3.506  0.00  0.00    +0.090 S 
BRANCH  14  15
ATOM     15  C   LIG    1       -2.500  -3.621  -3.558  0.00  0.00    +0.110 C 
BRANCH  15  16
ATOM     16  C   LIG    1       -3.931  -3.335  -3.934  0.00  0.00    +0.530 C 
ATOM     17  N   LIG    1       -4.816  -4.347  -4.035  0.00  0.00    -0.670 N 
ATOM     18  H   LIG    1       -4.553  -5.248  -3.791  0.00  0.00    +0.420 HD
ATOM     19  O   LIG    1       -4.287  -2.195  -4.145  0.00  0.00    -0.490 OA
BRANCH  17  20
ATOM     20  C   LIG    1       -6.115  -4.097  -4.491  0.00  0.00    +0.140 A 
ATOM     21  C   LIG    1       -6.633  -4.829  -5.551  0.00  0.00    -0.080 A 
ATOM     22  C   LIG    1       -7.916  -4.580  -6.000  0.00  0.00    +0.020 A 
ATOM     23  C   LIG    1       -8.685  -3.604  -5.394  0.00  0.00    -0.070 A 
ATOM     24  C   LIG    1       -8.173  -2.873  -4.337  0.00  0.00    +0.030 A 
ATOM     25  C   LIG    1      -10.084  -3.336  -5.886  0.00  0.00    +0.100 C 
ATOM     26  C   LIG    1       -5.796  -5.893  -6.213  0.00  0.00    +0.100 C 
ATOM     27  C   LIG    1       -6.893  -3.120  -3.881  0.00  0.00    -0.020 A 
ATOM     28 CL   LIG    1       -6.253  -2.207  -2.550  0.00  0.00    -0.050 Cl
ENDBRANCH  17  20
ENDBRANCH  15  16
ENDBRANCH  14  15
ENDBRANCH   4  14
BRANCH   5  29
ATOM     29  C   LIG    1        1.289  -0.486  -2.996  0.00  0.00    +0.300 C 
BRANCH  29  30
ATOM     30  C   LIG    1        1.094   0.167  -1.626  0.00  0.00    -0.030 C 
ATOM     31  C   LIG    1        2.225  -0.265  -0.690  0.00  0.00    +0.030 C 
ATOM     32  C   LIG    1        1.113   1.689  -1.780  0.00  0.00    +0.040 C 
ENDBRANCH  29  30
ENDBRANCH   5  29
TORSDOF 8
