REMARK  Name = ZINCAx0000000k1z.0
REMARK                            x       y       z     vdW  Elec       q    Type
REMARK                         _______ _______ _______ _____ _____    ______ ____
ROOT
ATOM      1  C   LIG    1        1.144  -4.056   0.258  0.00  0.00    +0.210 C 
ENDROOT
BRANCH   1   2
ATOM      2  C   LIG    1       -0.118  -4.876   0.183  0.00  0.00    +0.190 A 
ATOM      3  N   LIG    1       -0.880  -5.204   1.184  0.00  0.00    -0.360 NA
ATOM      4  O   LIG    1       -1.823  -5.864   0.801  0.00  0.00    +0.100 OA
ATOM      5  C   LIG    1       -1.745  -6.035  -0.527  0.00  0.00    +0.260 A 
ATOM      6  N   LIG    1       -0.655  -5.404  -0.927  0.00  0.00    -0.430 NA
BRANCH   5   7
ATOM      7  C   LIG    1       -2.694  -6.783  -1.378  0.00  0.00    +0.150 A 
ATOM      8  N   LIG    1       -2.607  -6.938  -2.685  0.00  0.00    -0.220 NA
ATOM      9  N   LIG    1       -3.697  -7.711  -3.105  0.00  0.00    -0.310 N 
ATOM     10  C   LIG    1       -4.447  -8.010  -2.012  0.00  0.00    +0.250 A 
ATOM     11  C   LIG    1       -3.854  -7.452  -0.935  0.00  0.00    -0.050 A 
BRANCH   9  12
ATOM     12  C   LIG    1       -3.968  -8.104  -4.422  0.00  0.00    +0.160 A 
ATOM     13  C   LIG    1       -5.145  -8.781  -4.716  0.00  0.00    +0.030 A 
ATOM     14  C   LIG    1       -5.419  -9.171  -6.015  0.00  0.00    +0.060 A 
ATOM     15  C   LIG    1       -4.524  -8.890  -7.027  0.00  0.00    +0.060 A 
ATOM     16  C   LIG    1       -3.338  -8.210  -6.742  0.00  0.00    +0.000 A 
ATOM     17  C   LIG    1       -3.065  -7.812  -5.433  0.00  0.00    +0.080 A 
BRANCH  16  18
ATOM     18  C   LIG    1       -2.408  -7.917  -7.790  0.00  0.00    +0.250 C 
ATOM     19  N   LIG    1       -1.670  -7.684  -8.622  0.00  0.00    -0.400 NA
ENDBRANCH  16  18
ENDBRANCH   9  12
ENDBRANCH   5   7
ENDBRANCH   1   2
BRANCH   1  22
ATOM     20  N   LIG    1        1.785  -1.670   0.117  0.00  0.00    -0.630 N 
ATOM     21  H   LIG    1        2.713  -1.947   0.173  0.00  0.00    +0.410 HD
ATOM     22  C   LIG    1        0.806  -2.597   0.086  0.00  0.00    +0.520 C 
ATOM     23  O   LIG    1       -0.346  -2.257  -0.081  0.00  0.00    -0.500 OA
BRANCH  20  26
ATOM     24  C   LIG    1        2.524   0.377   2.280  0.00  0.00    +0.170 C 
ATOM     25  C   LIG    1        1.767   0.630   1.002  0.00  0.00    +0.190 A 
ATOM     26  C   LIG    1        1.459  -0.300   0.070  0.00  0.00    -0.090 A 
ATOM     27  C   LIG    1        0.725   0.381  -0.997  0.00  0.00    +0.540 A 
ATOM     28  N   LIG    1        0.635   1.680  -0.644  0.00  0.00    -0.360 N 
ATOM     29  O   LIG    1        0.280  -0.128  -2.010  0.00  0.00    -0.510 OA
ATOM     30  N   LIG    1        1.277   1.841   0.590  0.00  0.00    -0.390 N 
ATOM     31  C   LIG    1        1.404   3.102   1.323  0.00  0.00    +0.360 C 
BRANCH  28  32
ATOM     32  C   LIG    1        0.014   2.691  -1.384  0.00  0.00    +0.150 A 
ATOM     33  C   LIG    1        0.169   2.739  -2.763  0.00  0.00    +0.020 A 
ATOM     34  C   LIG    1       -0.449   3.736  -3.492  0.00  0.00    +0.030 A 
ATOM     35  C   LIG    1       -1.214   4.692  -2.849  0.00  0.00    +0.010 A 
ATOM     36  C   LIG    1       -1.366   4.650  -1.475  0.00  0.00    +0.030 A 
ATOM     37  C   LIG    1       -0.754   3.653  -0.741  0.00  0.00    -0.010 A 
ENDBRANCH  28  32
ENDBRANCH  20  26
ENDBRANCH   1  22
TORSDOF 7
