REMARK  Name = ZINCAx0000000j0s.1
REMARK                            x       y       z     vdW  Elec       q    Type
REMARK                         _______ _______ _______ _____ _____    ______ ____
ROOT
ATOM      1  C   LIG    1        0.401  -7.481   5.592  0.00  0.00    +0.160 A 
ATOM      2  C   LIG    1        0.438  -8.380   4.532  0.00  0.00    -0.010 A 
ATOM      3  C   LIG    1        0.407  -7.918   3.234  0.00  0.00    +0.130 A 
ATOM      4  C   LIG    1        0.338  -6.545   2.985  0.00  0.00    -0.180 A 
ATOM      5  C   LIG    1        0.306  -5.645   4.053  0.00  0.00    +0.090 A 
ATOM      6  C   LIG    1        0.333  -6.115   5.348  0.00  0.00    -0.080 A 
ENDROOT
BRANCH   4   7
ATOM      7  C   LIG    1        0.305  -6.046   1.596  0.00  0.00    +0.560 C 
ATOM      8  N   LIG    1        0.238  -4.721   1.357  0.00  0.00    -0.730 N 
ATOM      9  H   LIG    1        0.212  -4.096   2.098  0.00  0.00    +0.400 HD
ATOM     10  O   LIG    1        0.338  -6.830   0.667  0.00  0.00    -0.530 OA
BRANCH   8  11
ATOM     11  C   LIG    1        0.205  -4.226  -0.021  0.00  0.00    +0.330 C 
BRANCH  11  12
ATOM     12  C   LIG    1        0.132  -2.721  -0.013  0.00  0.00    -0.190 A 
ATOM     13  C   LIG    1       -1.100  -2.080  -0.001  0.00  0.00    +0.110 A 
ATOM     14  C   LIG    1       -1.123  -0.697   0.012  0.00  0.00    -0.050 A 
ATOM     15  C   LIG    1        0.080   0.001   0.003  0.00  0.00    +0.320 A 
ATOM     16  N   LIG    1        1.235  -0.648  -0.009  0.00  0.00    -0.520 NA
ATOM     17  C   LIG    1        1.288  -1.966  -0.016  0.00  0.00    +0.310 A 
BRANCH  15  18
ATOM     18  N   LIG    1        0.071   1.391   0.010  0.00  0.00    -0.480 N 
ATOM     19  C   LIG    1       -0.703   1.919  -1.122  0.00  0.00    +0.210 C 
ATOM     20  C   LIG    1       -0.755   3.446  -1.032  0.00  0.00    +0.190 C 
ATOM     21  N   LIG    1        0.613   3.981  -1.038  0.00  0.00    -0.550 NA
ATOM     22  C   LIG    1        1.387   3.453   0.093  0.00  0.00    +0.180 C 
ATOM     23  C   LIG    1        0.603   5.450  -1.030  0.00  0.00    +0.190 C 
ATOM     24  C   LIG    1        1.440   1.926   0.004  0.00  0.00    +0.220 C 
ENDBRANCH  15  18
ENDBRANCH  11  12
ENDBRANCH   8  11
ENDBRANCH   4   7
BRANCH   1  25
ATOM     25  O   LIG    1        0.432  -7.940   6.869  0.00  0.00    -0.280 OA
BRANCH  25  26
ATOM     26  C   LIG    1        0.390  -6.963   7.910  0.00  0.00    +0.240 C 
BRANCH  26  29
ATOM     27  N   LIG    1        0.405  -6.926  10.383  0.00  0.00    -0.670 N 
ATOM     28  H   LIG    1        0.425  -5.957  10.339  0.00  0.00    +0.420 HD
ATOM     29  C   LIG    1        0.433  -7.653   9.249  0.00  0.00    +0.510 C 
ATOM     30  O   LIG    1        0.493  -8.863   9.306  0.00  0.00    -0.490 OA
BRANCH  27  35
ATOM     31  C   LIG    1        0.948  -9.407  13.047  0.00  0.00    +0.150 A 
ATOM     32  C   LIG    1        0.228  -8.835  14.086  0.00  0.00    -0.090 A 
ATOM     33  C   LIG    1       -0.431  -7.635  13.894  0.00  0.00    +0.070 A 
ATOM     34  C   LIG    1       -0.368  -6.998  12.671  0.00  0.00    -0.050 A 
ATOM     35  C   LIG    1        0.347  -7.568  11.625  0.00  0.00    +0.180 A 
ATOM     36  C   LIG    1        1.008  -8.773  11.815  0.00  0.00    -0.010 A 
BRANCH  31  38
ATOM     37  C   LIG    1        1.490 -11.183  14.531  0.00  0.00    +0.250 C 
ATOM     38  O   LIG    1        1.595 -10.587  13.236  0.00  0.00    -0.310 OA
ENDBRANCH  31  38
ENDBRANCH  27  35
ENDBRANCH  26  29
ENDBRANCH  25  26
ENDBRANCH   1  25
TORSDOF 9
