REMARK  Name = ZINCpk00000eaQwt.0
REMARK                            x       y       z     vdW  Elec       q    Type
REMARK                         _______ _______ _______ _____ _____    ______ ____
ROOT
ATOM      1  S   LIG    1       -1.179   0.541  -2.390  0.00  0.00    +2.690 S 
ATOM      2  O   LIG    1       -0.303  -0.575  -2.308  0.00  0.00    -0.950 OA
ATOM      3  O   LIG    1       -1.322   1.332  -3.561  0.00  0.00    -0.950 OA
ENDROOT
BRANCH   1   9
ATOM      4  C   LIG    1       -7.023  -3.778   0.071  0.00  0.00    +0.070 C 
ATOM      5  C   LIG    1       -6.152  -2.521   0.120  0.00  0.00    +0.160 C 
ATOM      6  C   LIG    1       -4.667  -2.874  -0.132  0.00  0.00    +0.090 C 
ATOM      7  C   LIG    1       -4.192  -1.677  -0.932  0.00  0.00    -0.200 A 
ATOM      8  C   LIG    1       -2.933  -1.213  -1.244  0.00  0.00    +0.170 A 
ATOM      9  C   LIG    1       -2.788  -0.060  -1.995  0.00  0.00    -0.710 A 
ATOM     10  C   LIG    1       -3.909   0.616  -2.440  0.00  0.00    +0.170 A 
ATOM     11  C   LIG    1       -5.171   0.148  -2.136  0.00  0.00    -0.020 A 
ATOM     12  C   LIG    1       -5.326  -1.009  -1.377  0.00  0.00    +0.170 A 
ATOM     13  O   LIG    1       -6.461  -1.644  -0.976  0.00  0.00    -0.300 OA
ENDBRANCH   1   9
BRANCH   1  14
ATOM     14  N   LIG    1       -0.732   1.577  -1.178  0.00  0.00    -1.000 NA
ATOM     15  C   LIG    1       -0.013   1.086   0.008  0.00  0.00    +0.310 C 
ATOM     16  C   LIG    1       -0.738   1.584   1.263  0.00  0.00    +0.180 C 
ATOM     17  N   LIG    1       -0.895   3.043   1.186  0.00  0.00    -0.520 NA
ATOM     18  C   LIG    1       -1.732   3.434   0.044  0.00  0.00    +0.220 C 
ATOM     19  C   LIG    1       -1.434   3.580   2.443  0.00  0.00    +0.200 C 
ATOM     20  C   LIG    1       -1.043   3.012  -1.258  0.00  0.00    +0.340 C 
BRANCH  18  21
ATOM     21  C   LIG    1       -1.923   4.929   0.050  0.00  0.00    +0.200 A 
ATOM     22  N   LIG    1       -0.981   5.817  -0.111  0.00  0.00    -0.460 NA
ATOM     23  C   LIG    1       -1.516   7.046  -0.050  0.00  0.00    +0.140 A 
ATOM     24  C   LIG    1       -2.839   6.914   0.164  0.00  0.00    +0.130 A 
ATOM     25  N   LIG    1       -3.098   5.571   0.228  0.00  0.00    -0.570 N 
ATOM     26  H   LIG    1       -3.964   5.158   0.373  0.00  0.00    +0.420 HD
ENDBRANCH  18  21
ENDBRANCH   1  14
TORSDOF 3
