REMARK  Name = ZINCrH000004qr5h.0
REMARK                            x       y       z     vdW  Elec       q    Type
REMARK                         _______ _______ _______ _____ _____    ______ ____
ROOT
ATOM      1  C   LIG    1        2.372   1.101   2.602  0.00  0.00    +0.560 C 
ATOM      2  N   LIG    1        2.337   2.066   1.662  0.00  0.00    -0.700 N 
ATOM      3  H   LIG    1        2.857   2.876   1.779  0.00  0.00    +0.410 HD
ATOM      4  O   LIG    1        1.720   0.086   2.456  0.00  0.00    -0.510 OA
ENDROOT
BRANCH   1   8
ATOM      5  C   LIG    1        5.771   3.661   5.225  0.00  0.00    +0.160 C 
ATOM      6  C   LIG    1        4.833   2.489   5.090  0.00  0.00    +0.210 A 
ATOM      7  C   LIG    1        4.076   2.360   3.937  0.00  0.00    -0.030 A 
ATOM      8  C   LIG    1        3.204   1.278   3.814  0.00  0.00    +0.000 A 
ATOM      9  C   LIG    1        3.145   0.357   4.877  0.00  0.00    -0.210 A 
ATOM     10  C   LIG    1        2.387  -0.870   5.120  0.00  0.00    +0.160 A 
ATOM     11  N   LIG    1        2.736  -1.316   6.288  0.00  0.00    -0.280 NA
ATOM     12  O   LIG    1        3.700  -0.454   6.859  0.00  0.00    -0.080 OA
ATOM     13  C   LIG    1        1.384  -1.499   4.187  0.00  0.00    +0.210 C 
ATOM     14  C   LIG    1        3.952   0.562   6.010  0.00  0.00    +0.300 A 
ATOM     15  N   LIG    1        4.757   1.612   6.069  0.00  0.00    -0.470 NA
ENDBRANCH   1   8
BRANCH   2  16
ATOM     16  C   LIG    1        1.514   1.891   0.463  0.00  0.00    +0.370 C 
BRANCH  16  17
ATOM     17  C   LIG    1        0.101   2.326   0.755  0.00  0.00    +0.110 A 
ATOM     18  C   LIG    1       -0.920   1.395   0.729  0.00  0.00    -0.010 A 
ATOM     19  C   LIG    1       -2.217   1.807   0.995  0.00  0.00    +0.060 A 
ATOM     20  C   LIG    1       -2.438   3.144   1.288  0.00  0.00    -0.030 A 
ATOM     21  C   LIG    1       -1.367   4.018   1.295  0.00  0.00    +0.260 A 
ATOM     22  N   LIG    1       -0.147   3.591   1.033  0.00  0.00    -0.470 NA
ENDBRANCH  16  17
BRANCH  16  23
ATOM     23  C   LIG    1        2.075   2.727  -0.659  0.00  0.00    -0.100 A 
ATOM     24  C   LIG    1        2.552   3.998  -0.401  0.00  0.00    +0.030 A 
ATOM     25  C   LIG    1        3.071   4.763  -1.429  0.00  0.00    +0.010 A 
ATOM     26  C   LIG    1        3.104   4.260  -2.716  0.00  0.00    +0.010 A 
ATOM     27  C   LIG    1        2.623   2.990  -2.974  0.00  0.00    +0.010 A 
ATOM     28  C   LIG    1        2.108   2.224  -1.946  0.00  0.00    +0.020 A 
ENDBRANCH  16  23
ENDBRANCH   2  16
TORSDOF 4
