REMARK  Name = ZINCrD00000l4JMs.0
REMARK                            x       y       z     vdW  Elec       q    Type
REMARK                         _______ _______ _______ _____ _____    ______ ____
ROOT
ATOM      1  N   LIG    1       -1.910  -8.371   4.588  0.00  0.00    -0.670 N 
ATOM      2  H   LIG    1       -2.724  -8.892   4.503  0.00  0.00    +0.410 HD
ATOM      3  C   LIG    1       -0.936  -8.774   5.427  0.00  0.00    +0.560 C 
ATOM      4  O   LIG    1        0.041  -8.073   5.606  0.00  0.00    -0.520 OA
ENDROOT
BRANCH   3   5
ATOM      5  C   LIG    1       -1.055 -10.067   6.130  0.00  0.00    -0.100 A 
ATOM      6  C   LIG    1       -0.046 -10.470   6.983  0.00  0.00    +0.130 A 
ATOM      7  C   LIG    1       -0.162 -11.700   7.658  0.00  0.00    +0.090 A 
ATOM      8  N   LIG    1        0.595 -12.359   8.518  0.00  0.00    -0.290 NA
ATOM      9  N   LIG    1       -0.039 -13.562   8.851  0.00  0.00    -0.420 N 
ATOM     10  H   LIG    1        0.313 -14.225   9.465  0.00  0.00    +0.450 HD
ATOM     11  C   LIG    1       -1.204 -13.661   8.196  0.00  0.00    +0.120 A 
ATOM     12  C   LIG    1       -2.177 -14.808   8.288  0.00  0.00    +0.160 C 
ATOM     13  C   LIG    1       -1.356 -12.527   7.422  0.00  0.00    -0.200 A 
ATOM     14  C   LIG    1       -2.350 -12.061   6.532  0.00  0.00    +0.100 A 
ATOM     15  C   LIG    1       -2.195 -10.869   5.912  0.00  0.00    -0.010 A 
ENDBRANCH   3   5
BRANCH   1  19
ATOM     16  C   LIG    1       -1.426  -4.885   2.353  0.00  0.00    +0.120 A 
ATOM     17  C   LIG    1       -0.328  -5.680   2.644  0.00  0.00    -0.060 A 
ATOM     18  C   LIG    1       -0.486  -6.832   3.389  0.00  0.00    +0.060 A 
ATOM     19  C   LIG    1       -1.748  -7.200   3.837  0.00  0.00    +0.110 A 
ATOM     20  C   LIG    1       -2.848  -6.407   3.541  0.00  0.00    +0.040 A 
ATOM     21  C   LIG    1       -2.687  -5.252   2.801  0.00  0.00    +0.010 A 
BRANCH  16  22
ATOM     22  O   LIG    1       -1.269  -3.748   1.623  0.00  0.00    -0.310 OA
BRANCH  22  23
ATOM     23  C   LIG    1        0.057  -3.431   1.195  0.00  0.00    +0.350 C 
BRANCH  23  27
ATOM     24  C   LIG    1        0.204   1.402  -0.108  0.00  0.00    +0.260 C 
ATOM     25  C   LIG    1        0.101  -0.102  -0.131  0.00  0.00    +0.180 A 
ATOM     26  N   LIG    1        0.185  -0.906   0.901  0.00  0.00    -0.470 NA
ATOM     27  C   LIG    1        0.036  -2.147   0.406  0.00  0.00    +0.170 A 
ATOM     28  N   LIG    1       -0.128  -2.037  -0.878  0.00  0.00    -0.360 NA
ATOM     29  O   LIG    1       -0.100  -0.869  -1.206  0.00  0.00    +0.090 OA
ENDBRANCH  23  27
ENDBRANCH  22  23
ENDBRANCH  16  22
ENDBRANCH   1  19
TORSDOF 5
