REMARK  Name = ZINCrH000004l280.0
REMARK                            x       y       z     vdW  Elec       q    Type
REMARK                         _______ _______ _______ _____ _____    ______ ____
ROOT
ATOM      1  C   LIG    1       -3.603  -1.653  -0.487  0.00  0.00    +0.230 C 
ATOM      2  C   LIG    1       -3.430  -2.186  -1.911  0.00  0.00    +0.000 C 
ATOM      3  C   LIG    1       -2.416  -3.333  -1.903  0.00  0.00    +0.260 C 
ATOM      4  N   LIG    1       -2.853  -4.344  -0.931  0.00  0.00    -0.610 N 
ATOM      5  C   LIG    1       -3.136  -3.922   0.448  0.00  0.00    +0.300 C 
ATOM      6  C   LIG    1       -2.992  -5.634  -1.296  0.00  0.00    +0.600 C 
ATOM      7  O   LIG    1       -3.291  -6.472  -0.466  0.00  0.00    -0.520 OA
ATOM      8  C   LIG    1       -4.142  -2.767   0.414  0.00  0.00    +0.020 C 
ENDROOT
BRANCH   6   9
ATOM      9  C   LIG    1       -2.783  -6.027  -2.692  0.00  0.00    -0.270 A 
ATOM     10  C   LIG    1       -3.594  -6.848  -3.409  0.00  0.00    +0.110 A 
ATOM     11  C   LIG    1       -3.171  -7.062  -4.717  0.00  0.00    -0.130 A 
ATOM     12  C   LIG    1       -2.036  -6.417  -5.036  0.00  0.00    -0.230 A 
ATOM     13  C   LIG    1       -1.648  -6.707  -6.481  0.00  0.00    +0.120 C 
ATOM     14  C   LIG    1       -2.453  -7.966  -6.862  0.00  0.00    +0.040 C 
ATOM     15  C   LIG    1       -3.670  -7.858  -5.922  0.00  0.00    +0.100 C 
ATOM     16  S   LIG    1       -1.451  -5.504  -3.707  0.00  0.00    +0.230 S 
ENDBRANCH   6   9
BRANCH   1  17
ATOM     17  N   LIG    1       -4.548  -0.533  -0.496  0.00  0.00    -0.740 N 
ATOM     18  H   LIG    1       -5.486  -0.688  -0.304  0.00  0.00    +0.400 HD
BRANCH  17  23
ATOM     19  C   LIG    1       -4.536   3.106  -1.076  0.00  0.00    -0.080 A 
ATOM     20  C   LIG    1       -3.184   3.318  -1.352  0.00  0.00    +0.020 A 
ATOM     21  C   LIG    1       -2.302   2.256  -1.341  0.00  0.00    +0.050 A 
ATOM     22  C   LIG    1       -2.753   0.980  -1.058  0.00  0.00    -0.030 A 
ATOM     23  C   LIG    1       -4.097   0.758  -0.782  0.00  0.00    +0.210 A 
ATOM     24  C   LIG    1       -4.991   1.818  -0.790  0.00  0.00    +0.000 A 
BRANCH  19  25
ATOM     25  C   LIG    1       -5.482   4.241  -1.088  0.00  0.00    +0.510 C 
ATOM     26  O   LIG    1       -6.658   4.054  -0.848  0.00  0.00    -0.500 OA
BRANCH  25  28
ATOM     27  C   LIG    1       -6.025   6.549  -1.358  0.00  0.00    +0.260 C 
ATOM     28  O   LIG    1       -5.040   5.483  -1.365  0.00  0.00    -0.350 OA
ENDBRANCH  25  28
ENDBRANCH  19  25
ENDBRANCH  17  23
ENDBRANCH   1  17
TORSDOF 5
