REMARK  Name = ZINCpk00000KfLpr.0
REMARK                            x       y       z     vdW  Elec       q    Type
REMARK                         _______ _______ _______ _____ _____    ______ ____
ROOT
ATOM      1  C   LIG    1       -2.551   0.092   2.326  0.00  0.00    +0.050 C 
ATOM      2  C   LIG    1       -3.193   1.063   1.333  0.00  0.00    +0.260 C 
ATOM      3  C   LIG    1       -3.194   2.472   1.929  0.00  0.00    +0.070 C 
ATOM      4  C   LIG    1       -3.443   3.491   0.848  0.00  0.00    +0.530 C 
ATOM      5  N   LIG    1       -2.463   3.820  -0.020  0.00  0.00    -0.680 N 
ATOM      6  H   LIG    1       -2.611   4.526  -0.669  0.00  0.00    +0.410 HD
ATOM      7  C   LIG    1       -1.235   3.149   0.009  0.00  0.00    +0.140 A 
ATOM      8  C   LIG    1       -0.042   3.852   0.007  0.00  0.00    +0.020 A 
ATOM      9  C   LIG    1        1.160   3.168   0.005  0.00  0.00    +0.050 A 
ATOM     10  C   LIG    1        1.175   1.785   0.000  0.00  0.00    +0.020 A 
ATOM     11  C   LIG    1       -0.013   1.076   0.008  0.00  0.00    +0.030 A 
ATOM     12  C   LIG    1       -1.220   1.754   0.017  0.00  0.00    +0.110 A 
ATOM     13  O   LIG    1       -4.531   4.020   0.758  0.00  0.00    -0.520 OA
ATOM     14  N   LIG    1       -2.433   1.053   0.083  0.00  0.00    -0.570 N 
ATOM     15  C   LIG    1       -2.890   0.381  -0.993  0.00  0.00    +0.530 C 
ATOM     16  O   LIG    1       -3.941  -0.222  -0.929  0.00  0.00    -0.500 OA
ENDROOT
BRANCH  15  17
ATOM     17  C   LIG    1       -2.096   0.379  -2.274  0.00  0.00    +0.210 C 
BRANCH  17  18
ATOM     18  N   LIG    1       -2.802  -0.418  -3.286  0.00  0.00    -0.510 NA
ATOM     19  C   LIG    1       -2.187  -0.252  -4.610  0.00  0.00    +0.250 C 
ATOM     20  C   LIG    1       -0.685  -0.549  -4.522  0.00  0.00    +0.250 C 
ATOM     21  N   LIG    1       -0.510  -1.830  -3.832  0.00  0.00    -0.460 N 
ATOM     22  C   LIG    1        0.589  -2.631  -3.791  0.00  0.00    +0.130 A 
ATOM     23  C   LIG    1        0.261  -3.698  -3.033  0.00  0.00    +0.140 A 
ATOM     24  N   LIG    1       -1.010  -3.545  -2.624  0.00  0.00    -0.480 NA
ATOM     25  C   LIG    1       -1.479  -2.430  -3.096  0.00  0.00    +0.170 A 
ATOM     26  C   LIG    1       -2.854  -1.839  -2.898  0.00  0.00    +0.370 C 
ENDBRANCH  17  18
ENDBRANCH  15  17
TORSDOF 2
