REMARK  Name = ZINCvU00000004S0.1
REMARK                            x       y       z     vdW  Elec       q    Type
REMARK                         _______ _______ _______ _____ _____    ______ ____
ROOT
ATOM      1  N   LIG    1       -1.017   2.980   0.127  0.00  0.00    -0.370 N 
ATOM      2  N   LIG    1       -0.474   4.259   0.306  0.00  0.00    -0.260 NA
ATOM      3  C   LIG    1        0.803   4.195   0.052  0.00  0.00    +0.320 A 
ATOM      4  N   LIG    1        1.118   2.894  -0.287  0.00  0.00    -0.490 N 
ATOM      5  C   LIG    1       -0.010   2.158  -0.234  0.00  0.00    +0.460 A 
ATOM      6  S   LIG    1       -0.142   0.485  -0.571  0.00  0.00    -0.570 S 
ENDROOT
BRANCH   3   7
ATOM      7  C   LIG    1        1.755   5.326   0.117  0.00  0.00    -0.040 A 
ATOM      8  C   LIG    1        1.442   6.462   0.864  0.00  0.00    +0.100 A 
ATOM      9  C   LIG    1        2.336   7.511   0.925  0.00  0.00    +0.040 A 
ATOM     10  C   LIG    1        3.537   7.442   0.239  0.00  0.00    -0.010 A 
ATOM     11  C   LIG    1        3.851   6.319  -0.507  0.00  0.00    +0.040 A 
ATOM     12 CL   LIG    1        4.654   8.769   0.316  0.00  0.00    -0.050 Cl
ATOM     13  C   LIG    1        2.967   5.262  -0.572  0.00  0.00    +0.060 A 
ENDBRANCH   3   7
BRANCH   1  14
ATOM     14  C   LIG    1       -2.422   2.603   0.302  0.00  0.00    +0.410 C 
BRANCH  14  15
ATOM     15  C   LIG    1       -2.657   2.172   1.752  0.00  0.00    +0.080 C 
BRANCH  15  18
ATOM     16  N   LIG    1       -4.543   1.369   3.136  0.00  0.00    -0.620 N 
ATOM     17  H   LIG    1       -3.930   1.320   3.886  0.00  0.00    +0.430 HD
ATOM     18  C   LIG    1       -4.102   1.784   1.932  0.00  0.00    +0.520 C 
ATOM     19  O   LIG    1       -4.868   1.846   0.994  0.00  0.00    -0.460 OA
BRANCH  16  23
ATOM     20  C   LIG    1       -8.161   0.307   3.942  0.00  0.00    -0.020 A 
ATOM     21  N   LIG    1       -7.961   0.673   2.709  0.00  0.00    -0.240 NA
ATOM     22  N   LIG    1       -6.798   1.037   2.386  0.00  0.00    -0.250 NA
ATOM     23  C   LIG    1       -5.879   1.011   3.303  0.00  0.00    +0.250 A 
ATOM     24  S   LIG    1       -6.625   0.448   4.800  0.00  0.00    +0.130 S 
BRANCH  20  25
ATOM     25  S   LIG    1       -9.690  -0.231   4.631  0.00  0.00    +0.030 S 
BRANCH  25  26
ATOM     26  C   LIG    1      -10.829  -0.135   3.222  0.00  0.00    +0.130 C 
BRANCH  26  28
ATOM     27  C   LIG    1      -13.195   0.286   3.653  0.00  0.00    +0.060 C 
ATOM     28  C   LIG    1      -12.204  -0.571   3.657  0.00  0.00    -0.040 C 
ENDBRANCH  26  28
ENDBRANCH  25  26
ENDBRANCH  20  25
ENDBRANCH  16  23
ENDBRANCH  15  18
ENDBRANCH  14  15
ENDBRANCH   1  14
BRANCH   4  29
ATOM     29  C   LIG    1        2.450   2.399  -0.645  0.00  0.00    +0.330 C 
BRANCH  29  30
ATOM     30  C   LIG    1        2.603   2.401  -2.167  0.00  0.00    +0.020 C 
BRANCH  30  31
ATOM     31  C   LIG    1        4.035   2.007  -2.537  0.00  0.00    +0.010 C 
ATOM     32  C   LIG    1        4.188   2.010  -4.059  0.00  0.00    +0.020 C 
ENDBRANCH  30  31
ENDBRANCH  29  30
ENDBRANCH   4  29
TORSDOF 11
