REMARK  Name = ZINCtj00001UqOzi.1
REMARK                            x       y       z     vdW  Elec       q    Type
REMARK                         _______ _______ _______ _____ _____    ______ ____
ROOT
ATOM      1  C   LIG    1        4.392   0.570   6.370  0.00  0.00    +0.040 C 
ENDROOT
BRANCH   1   2
ATOM      2  C   LIG    1        3.038   0.911   5.744  0.00  0.00    +0.040 C 
BRANCH   2   3
ATOM      3  C   LIG    1        2.871   0.134   4.437  0.00  0.00    +0.130 C 
BRANCH   3   6
ATOM      4  N   LIG    1       -0.020   1.094   2.454  0.00  0.00    -0.280 N 
ATOM      5  C   LIG    1        1.318   0.932   2.567  0.00  0.00    +0.170 A 
ATOM      6  C   LIG    1        1.538   0.470   3.820  0.00  0.00    -0.030 A 
ATOM      7  N   LIG    1        0.338   0.366   4.402  0.00  0.00    -0.270 NA
ATOM      8  N   LIG    1       -0.565   0.743   3.566  0.00  0.00    -0.080 NA
BRANCH   4  10
ATOM      9  C   LIG    1       -0.013   1.086   0.008  0.00  0.00    +0.080 C 
ATOM     10  C   LIG    1       -0.729   1.579   1.267  0.00  0.00    +0.310 C 
BRANCH  10  11
ATOM     11  C   LIG    1       -0.750   3.109   1.275  0.00  0.00    +0.050 C 
ATOM     12  C   LIG    1       -1.836   3.841   2.115  0.00  0.00    +0.040 C 
ATOM     13  C   LIG    1       -1.419   5.013   1.172  0.00  0.00    -0.030 C 
ATOM     14  C   LIG    1        0.123   5.202   1.382  0.00  0.00    +0.220 C 
ATOM     15  C   LIG    1       -1.444   3.871   0.120  0.00  0.00    +0.040 C 
ATOM     16  O   LIG    1        0.530   3.795   1.431  0.00  0.00    -0.350 OA
ENDBRANCH  10  11
ENDBRANCH   4  10
ENDBRANCH   3   6
ENDBRANCH   2   3
ENDBRANCH   1   2
BRANCH   1  17
ATOM     17  C   LIG    1        4.560   1.347   7.678  0.00  0.00    +0.030 C 
BRANCH  17  18
ATOM     18  C   LIG    1        5.913   1.006   8.304  0.00  0.00    +0.270 C 
BRANCH  18  19
ATOM     19  N   LIG    1        6.074   1.752   9.559  0.00  0.00    -0.390 N 
ATOM     20  C   LIG    1        7.421   1.516  10.097  0.00  0.00    +0.290 C 
ATOM     21  C   LIG    1        7.710   2.512  11.228  0.00  0.00    +0.340 C 
ATOM     22  N   LIG    1        6.585   2.474  12.162  0.00  0.00    -0.480 N 
ATOM     23  C   LIG    1        6.493   2.931  13.422  0.00  0.00    +0.220 A 
ATOM     24  N   LIG    1        5.284   2.656  13.843  0.00  0.00    -0.260 NA
ATOM     25  N   LIG    1        4.624   2.056  12.910  0.00  0.00    -0.230 NA
ATOM     26  C   LIG    1        5.377   1.926  11.863  0.00  0.00    +0.110 A 
ATOM     27  C   LIG    1        5.059   1.304  10.527  0.00  0.00    +0.430 C 
ATOM     28  H   LIG    1        5.953   2.738   9.380  0.00  0.00    +0.430 HD
BRANCH  23  29
ATOM     29  C   LIG    1        7.576   3.627  14.205  0.00  0.00    +0.330 C 
BRANCH  29  30
ATOM     30  O   LIG    1        7.488   5.037  13.990  0.00  0.00    -0.560 OA
ATOM     31  H   LIG    1        8.157   5.550  14.464  0.00  0.00    +0.400 HD
ENDBRANCH  29  30
ENDBRANCH  23  29
ENDBRANCH  18  19
ENDBRANCH  17  18
ENDBRANCH   1  17
TORSDOF 10
