REMARK  Name = ZINCrH000004qWW4.0
REMARK                            x       y       z     vdW  Elec       q    Type
REMARK                         _______ _______ _______ _____ _____    ______ ____
ROOT
ATOM      1  N   LIG    1        4.025  -0.058   1.399  0.00  0.00    -0.750 N 
ATOM      2  H   LIG    1        3.413  -0.002   2.149  0.00  0.00    +0.400 HD
ENDROOT
BRANCH   1   3
ATOM      3  C   LIG    1        5.404   0.006   1.617  0.00  0.00    +0.230 A 
ATOM      4  C   LIG    1        6.285  -0.187   0.561  0.00  0.00    -0.080 A 
ATOM      5  C   LIG    1        7.647  -0.118   0.780  0.00  0.00    +0.050 A 
ATOM      6  C   LIG    1        8.134   0.133   2.049  0.00  0.00    -0.050 A 
ATOM      7  C   LIG    1        7.259   0.321   3.104  0.00  0.00    +0.090 A 
ATOM      8  C   LIG    1        5.896   0.258   2.892  0.00  0.00    -0.180 A 
BRANCH   8   9
ATOM      9  C   LIG    1        4.943   0.463   4.041  0.00  0.00    +0.370 C 
BRANCH   9  10
ATOM     10  N   LIG    1        4.424   1.832   4.008  0.00  0.00    -0.630 N 
ATOM     11  C   LIG    1        3.156   2.248   3.390  0.00  0.00    +0.240 C 
ATOM     12  C   LIG    1        3.104   3.767   3.640  0.00  0.00    +0.250 C 
ATOM     13  N   LIG    1        4.348   4.047   4.372  0.00  0.00    -0.740 N 
ATOM     14  H   LIG    1        4.631   4.919   4.687  0.00  0.00    +0.430 HD
ATOM     15  C   LIG    1        5.026   2.904   4.541  0.00  0.00    +0.700 C 
ATOM     16  O   LIG    1        6.093   2.844   5.120  0.00  0.00    -0.580 OA
ENDBRANCH   9  10
ENDBRANCH   8   9
ENDBRANCH   1   3
BRANCH   1  17
ATOM     17  C   LIG    1        3.506  -0.210   0.038  0.00  0.00    +0.400 C 
BRANCH  17  21
ATOM     18  C   LIG    1       -0.135   0.219   0.079  0.00  0.00    +0.060 A 
ATOM     19  N   LIG    1        0.056  -1.071   0.205  0.00  0.00    -0.350 NA
ATOM     20  O   LIG    1        1.233  -1.346   0.205  0.00  0.00    +0.120 OA
ATOM     21  C   LIG    1        2.000  -0.253   0.077  0.00  0.00    -0.050 A 
ATOM     22  C   LIG    1        1.159   0.803  -0.010  0.00  0.00    -0.020 A 
BRANCH  18  27
ATOM     23  C   LIG    1       -5.193   2.968  -0.102  0.00  0.00    +0.090 C 
ATOM     24  C   LIG    1       -3.870   2.249  -0.055  0.00  0.00    -0.070 A 
ATOM     25  C   LIG    1       -3.838   0.873   0.083  0.00  0.00    +0.010 A 
ATOM     26  C   LIG    1       -2.629   0.209   0.127  0.00  0.00    +0.040 A 
ATOM     27  C   LIG    1       -1.439   0.927   0.032  0.00  0.00    -0.030 A 
ATOM     28  C   LIG    1       -1.476   2.314  -0.101  0.00  0.00    +0.040 A 
ATOM     29  C   LIG    1       -2.691   2.967  -0.149  0.00  0.00    +0.010 A 
ENDBRANCH  18  27
ENDBRANCH  17  21
ENDBRANCH   1  17
TORSDOF 6
