REMARK  Name = ZINCrH000004sPe6.0
REMARK                            x       y       z     vdW  Elec       q    Type
REMARK                         _______ _______ _______ _____ _____    ______ ____
ROOT
ATOM      1  N   LIG    1       -0.161  -0.407  -0.101  0.00  0.00    -0.490 N 
ATOM      2  C   LIG    1        1.122  -0.872  -0.632  0.00  0.00    +0.220 C 
ATOM      3  C   LIG    1        2.249  -0.290   0.232  0.00  0.00    +0.000 C 
ATOM      4  C   LIG    1        2.288   1.222  -0.001  0.00  0.00    +0.080 C 
ATOM      5  C   LIG    1        0.892   1.785   0.090  0.00  0.00    -0.130 A 
ATOM      6  C   LIG    1        0.748   3.162   0.232  0.00  0.00    +0.160 A 
ATOM      7  C   LIG    1       -0.515   3.730   0.312  0.00  0.00    +0.020 A 
ATOM      8  C   LIG    1       -1.636   2.925   0.250  0.00  0.00    +0.040 A 
ATOM      9  C   LIG    1       -1.497   1.559   0.116  0.00  0.00    +0.000 A 
ATOM     10  C   LIG    1       -0.230   0.979   0.032  0.00  0.00    +0.120 A 
ENDROOT
BRANCH   6  11
ATOM     11  N   LIG    1        1.883   3.978   0.295  0.00  0.00    -0.670 N 
ATOM     12  H   LIG    1        2.671   3.752  -0.222  0.00  0.00    +0.410 HD
ATOM     13  C   LIG    1        1.880   5.077   1.075  0.00  0.00    +0.560 C 
ATOM     14  O   LIG    1        0.867   5.403   1.663  0.00  0.00    -0.510 OA
BRANCH  13  15
ATOM     15  C   LIG    1        3.108   5.885   1.217  0.00  0.00    -0.150 A 
ATOM     16  C   LIG    1        4.275   5.509   0.548  0.00  0.00    +0.080 A 
ATOM     17  C   LIG    1        5.417   6.270   0.679  0.00  0.00    -0.010 A 
ATOM     18  C   LIG    1        5.411   7.400   1.482  0.00  0.00    +0.130 A 
ATOM     19  C   LIG    1        4.257   7.775   2.153  0.00  0.00    -0.010 A 
ATOM     20  F   LIG    1        6.535   8.139   1.612  0.00  0.00    -0.130 F 
ATOM     21  C   LIG    1        3.108   7.024   2.024  0.00  0.00    +0.120 A 
ENDBRANCH  13  15
ENDBRANCH   6  11
BRANCH   1  22
ATOM     22  C   LIG    1       -0.479  -1.075   1.168  0.00  0.00    +0.360 C 
BRANCH  22  27
ATOM     23  C   LIG    1        1.390  -5.721   1.186  0.00  0.00    +0.210 C 
ATOM     24  C   LIG    1        0.481  -4.531   1.015  0.00  0.00    +0.170 A 
ATOM     25  N   LIG    1       -0.729  -4.550   0.543  0.00  0.00    -0.380 NA
ATOM     26  O   LIG    1       -1.196  -3.430   0.539  0.00  0.00    +0.090 OA
ATOM     27  C   LIG    1       -0.296  -2.563   1.013  0.00  0.00    +0.180 A 
ATOM     28  N   LIG    1        0.774  -3.255   1.322  0.00  0.00    -0.470 NA
ENDBRANCH  22  27
ENDBRANCH   1  22
TORSDOF 4
