REMARK  Name = ZINCpe00000VVH6T.0
REMARK                            x       y       z     vdW  Elec       q    Type
REMARK                         _______ _______ _______ _____ _____    ______ ____
ROOT
ATOM      1  N   LIG    1        0.002  -0.004   0.002  0.00  0.00    -0.520 NA
ATOM      2  C   LIG    1       -0.018   1.465   0.010  0.00  0.00    +0.180 C 
ATOM      3  C   LIG    1        1.419   1.992  -0.001  0.00  0.00    +0.200 C 
ATOM      4  N   LIG    1        2.138   1.472   1.171  0.00  0.00    -0.550 NA
ATOM      5  C   LIG    1        2.158   0.003   1.162  0.00  0.00    +0.210 C 
ATOM      6  C   LIG    1        0.721  -0.525   1.173  0.00  0.00    +0.190 C 
ENDROOT
BRANCH   1   7
ATOM      7  C   LIG    1       -1.361  -0.549  -0.064  0.00  0.00    +0.210 C 
BRANCH   7  10
ATOM      8  N   LIG    1       -2.434  -2.749  -0.417  0.00  0.00    -0.730 N 
ATOM      9  H   LIG    1       -3.294  -2.309  -0.326  0.00  0.00    +0.400 HD
ATOM     10  C   LIG    1       -1.297  -2.033  -0.317  0.00  0.00    +0.510 C 
ATOM     11  O   LIG    1       -0.222  -2.583  -0.431  0.00  0.00    -0.520 OA
BRANCH   8  12
ATOM     12  C   LIG    1       -2.372  -4.192  -0.663  0.00  0.00    +0.280 C 
BRANCH  12  13
ATOM     13  C   LIG    1       -3.791  -4.759  -0.732  0.00  0.00    +0.180 C 
BRANCH  13  15
ATOM     14  C   LIG    1       -5.810  -4.679  -2.022  0.00  0.00    +0.200 C 
ATOM     15  O   LIG    1       -4.468  -4.211  -1.865  0.00  0.00    -0.390 OA
ENDBRANCH  13  15
ENDBRANCH  12  13
ENDBRANCH   8  12
ENDBRANCH   7  10
ENDBRANCH   1   7
BRANCH   4  16
ATOM     16  C   LIG    1        3.501   2.017   1.237  0.00  0.00    +0.500 C 
BRANCH  16  17
ATOM     17  N   LIG    1        3.463   3.357   1.827  0.00  0.00    -0.320 N 
ATOM     18  N   LIG    1        3.018   4.447   1.115  0.00  0.00    -0.340 NA
ATOM     19  C   LIG    1        3.005   5.605   1.699  0.00  0.00    +0.350 A 
ATOM     20  S   LIG    1        3.632   5.324   3.334  0.00  0.00    +0.070 S 
ATOM     21  C   LIG    1        3.866   3.582   3.092  0.00  0.00    +0.250 A 
ATOM     22  S   LIG    1        4.471   2.442   4.216  0.00  0.00    -0.450 S 
BRANCH  19  23
ATOM     23  N   LIG    1        2.592   6.813   1.157  0.00  0.00    -0.670 N 
ATOM     24  H   LIG    1        2.264   6.848   0.244  0.00  0.00    +0.420 HD
BRANCH  23  25
ATOM     25  C   LIG    1        2.651   8.036   1.961  0.00  0.00    +0.230 C 
ATOM     26  C   LIG    1        1.625   9.042   1.436  0.00  0.00    +0.060 C 
ATOM     27  C   LIG    1        4.053   8.641   1.867  0.00  0.00    +0.030 C 
ENDBRANCH  23  25
ENDBRANCH  19  23
ENDBRANCH  16  17
ENDBRANCH   4  16
TORSDOF 9
