REMARK  Name = ZINCqH0000000k26.0
REMARK                            x       y       z     vdW  Elec       q    Type
REMARK                         _______ _______ _______ _____ _____    ______ ____
ROOT
ATOM      1  C   LIG    1       -0.053   5.624   0.061  0.00  0.00    +0.420 C 
ATOM      2  O   LIG    1        0.992   6.241   0.065  0.00  0.00    -0.440 OA
ENDROOT
BRANCH   1   3
ATOM      3  C   LIG    1       -0.039   4.156   0.046  0.00  0.00    -0.180 A 
ATOM      4  C   LIG    1        1.180   3.465   0.035  0.00  0.00    +0.110 A 
ATOM      5  C   LIG    1        1.188   2.095   0.021  0.00  0.00    +0.010 A 
ATOM      6  C   LIG    1       -0.011   1.389   0.017  0.00  0.00    +0.180 A 
ATOM      7  C   LIG    1       -1.225   2.071   0.022  0.00  0.00    -0.020 A 
ATOM      8  C   LIG    1       -1.243   3.442   0.042  0.00  0.00    +0.090 A 
BRANCH   6   9
ATOM      9  N   LIG    1        0.002  -0.004   0.002  0.00  0.00    -0.680 N 
ATOM     10  H   LIG    1       -0.678  -0.501   0.482  0.00  0.00    +0.410 HD
ATOM     11  C   LIG    1        0.961  -0.661  -0.680  0.00  0.00    +0.520 C 
ATOM     12  O   LIG    1        1.859  -0.043  -1.212  0.00  0.00    -0.510 OA
BRANCH  11  13
ATOM     13  C   LIG    1        0.917  -2.164  -0.782  0.00  0.00    -0.010 C 
ATOM     14  C   LIG    1        0.978  -2.773   0.620  0.00  0.00    +0.040 C 
ATOM     15  C   LIG    1        2.111  -2.654  -1.604  0.00  0.00    +0.050 C 
ENDBRANCH  11  13
ENDBRANCH   6   9
ENDBRANCH   1   3
BRANCH   1  16
ATOM     16  C   LIG    1       -1.365   6.365   0.073  0.00  0.00    +0.000 C 
ATOM     17  C   LIG    1       -1.875   6.521  -1.361  0.00  0.00    +0.090 C 
BRANCH  16  18
ATOM     18  S   LIG    1       -1.129   8.001   0.810  0.00  0.00    +0.050 S 
BRANCH  18  24
ATOM     19  N   LIG    1       -3.236   9.776   1.300  0.00  0.00    -0.460 N 
ATOM     20  C   LIG    1       -4.591   9.771   1.119  0.00  0.00    +0.190 A 
ATOM     21  N   LIG    1       -4.907   8.626   0.582  0.00  0.00    -0.280 NA
ATOM     22  N   LIG    1       -3.851   7.914   0.409  0.00  0.00    -0.290 NA
ATOM     23  C   LIG    1       -5.543  10.883   1.474  0.00  0.00    +0.200 C 
ATOM     24  C   LIG    1       -2.796   8.569   0.837  0.00  0.00    +0.150 A 
BRANCH  19  25
ATOM     25  C   LIG    1       -2.423  10.852   1.873  0.00  0.00    +0.350 C 
BRANCH  25  27
ATOM     26  C   LIG    1       -2.231  13.063   0.855  0.00  0.00    +0.060 C 
ATOM     27  C   LIG    1       -1.974  11.781   0.774  0.00  0.00    -0.070 C 
ENDBRANCH  25  27
ENDBRANCH  19  25
ENDBRANCH  18  24
ENDBRANCH  16  18
ENDBRANCH   1  16
TORSDOF 8
