REMARK  Name = ZINCzw0000000e4p.1
REMARK                            x       y       z     vdW  Elec       q    Type
REMARK                         _______ _______ _______ _____ _____    ______ ____
ROOT
ATOM      1  C   LIG    1        0.836   9.134   0.621  0.00  0.00    +0.500 C 
ATOM      2  N   LIG    1        1.272   8.441   1.691  0.00  0.00    -0.580 N 
ATOM      3  C   LIG    1        2.149   9.072   2.686  0.00  0.00    +0.310 C 
ATOM      4  C   LIG    1        3.399   8.206   2.863  0.00  0.00    +0.070 C 
ATOM      5  C   LIG    1        2.979   6.776   3.213  0.00  0.00    +0.130 C 
ATOM      6  C   LIG    1        2.145   6.194   2.070  0.00  0.00    +0.010 C 
ATOM      7  C   LIG    1        0.880   7.038   1.884  0.00  0.00    +0.280 C 
ATOM      8  O   LIG    1        1.167  10.292   0.473  0.00  0.00    -0.530 OA
ENDROOT
BRANCH   5   9
ATOM      9  O   LIG    1        2.201   6.789   4.411  0.00  0.00    -0.550 OA
ATOM     10  H   LIG    1        1.900   5.914   4.694  0.00  0.00    +0.390 HD
ENDBRANCH   5   9
BRANCH   1  11
ATOM     11  C   LIG    1       -0.063   8.472  -0.391  0.00  0.00    +0.290 C 
BRANCH  11  13
ATOM     12  C   LIG    1       -1.190  10.530  -0.888  0.00  0.00    +0.320 C 
ATOM     13  N   LIG    1       -0.396   9.431  -1.452  0.00  0.00    -0.370 N 
ATOM     14  H   LIG    1        0.455   9.801  -1.851  0.00  0.00    +0.430 HD
BRANCH  13  15
ATOM     15  C   LIG    1       -1.172   8.754  -2.499  0.00  0.00    +0.270 C 
BRANCH  15  16
ATOM     16  C   LIG    1       -1.004   9.501  -3.824  0.00  0.00    -0.080 C 
ATOM     17  C   LIG    1       -1.376  10.972  -3.630  0.00  0.00    +0.040 C 
ATOM     18  C   LIG    1       -1.919   8.879  -4.880  0.00  0.00    +0.070 C 
ATOM     19  C   LIG    1        0.451   9.399  -4.285  0.00  0.00    +0.050 C 
ENDBRANCH  15  16
ENDBRANCH  13  15
ENDBRANCH  11  13
ENDBRANCH   1  11
BRANCH   5  20
ATOM     20  C   LIG    1        4.227   5.916   3.424  0.00  0.00    +0.320 C 
BRANCH  20  21
ATOM     21  N   LIG    1        3.828   4.523   3.641  0.00  0.00    -0.290 N 
ATOM     22  C   LIG    1        4.262   3.454   2.933  0.00  0.00    +0.180 A 
ATOM     23  C   LIG    1        3.645   2.374   3.466  0.00  0.00    -0.030 A 
ATOM     24  N   LIG    1        2.869   2.829   4.456  0.00  0.00    -0.240 NA
ATOM     25  N   LIG    1        3.005   4.105   4.538  0.00  0.00    -0.100 NA
BRANCH  23  26
ATOM     26  C   LIG    1        3.797   0.941   3.025  0.00  0.00    +0.340 C 
ATOM     27  C   LIG    1        4.197   0.061   4.229  0.00  0.00    +0.050 C 
ATOM     28  C   LIG    1        3.396  -1.246   3.986  0.00  0.00    +0.040 C 
ATOM     29  C   LIG    1        2.084  -0.693   3.370  0.00  0.00    +0.260 C 
ATOM     30  N   LIG    1        2.512   0.433   2.522  0.00  0.00    -0.590 N 
ATOM     31  C   LIG    1        1.836   0.921   1.463  0.00  0.00    +0.670 C 
ATOM     32  O   LIG    1        2.283   1.861   0.837  0.00  0.00    -0.570 OA
BRANCH  31  33
ATOM     33  O   LIG    1        0.664   0.367   1.100  0.00  0.00    -0.360 OA
BRANCH  33  34
ATOM     34  C   LIG    1       -0.010   0.944  -0.050  0.00  0.00    +0.140 C 
ATOM     35  C   LIG    1       -1.315   0.188  -0.308  0.00  0.00    +0.080 C 
ATOM     36  C   LIG    1       -0.320   2.416   0.226  0.00  0.00    +0.030 C 
ATOM     37  C   LIG    1        0.895   0.835  -1.279  0.00  0.00    +0.040 C 
ENDBRANCH  33  34
ENDBRANCH  31  33
ENDBRANCH  23  26
ENDBRANCH  20  21
ENDBRANCH   5  20
TORSDOF 10
