REMARK  Name = ZINCzw0000000e4p.0
REMARK                            x       y       z     vdW  Elec       q    Type
REMARK                         _______ _______ _______ _____ _____    ______ ____
ROOT
ATOM      1  C   LIG    1        1.026   9.421   0.632  0.00  0.00    +0.500 C 
ATOM      2  N   LIG    1        1.179   9.390   1.970  0.00  0.00    -0.580 N 
ATOM      3  C   LIG    1        2.100  10.319   2.640  0.00  0.00    +0.310 C 
ATOM      4  C   LIG    1        3.069   9.511   3.509  0.00  0.00    +0.070 C 
ATOM      5  C   LIG    1        2.270   8.620   4.464  0.00  0.00    +0.130 C 
ATOM      6  C   LIG    1        1.416   7.641   3.655  0.00  0.00    +0.010 C 
ATOM      7  C   LIG    1        0.428   8.428   2.788  0.00  0.00    +0.280 C 
ATOM      8  O   LIG    1        1.652  10.220  -0.032  0.00  0.00    -0.530 OA
ENDROOT
BRANCH   5   9
ATOM      9  O   LIG    1        1.422   9.434   5.276  0.00  0.00    -0.550 OA
ATOM     10  H   LIG    1        0.885   8.935   5.907  0.00  0.00    +0.390 HD
ENDBRANCH   5   9
BRANCH   1  11
ATOM     11  C   LIG    1        0.078   8.462  -0.041  0.00  0.00    +0.280 C 
BRANCH  11  13
ATOM     12  C   LIG    1        1.419   8.369  -2.027  0.00  0.00    +0.310 C 
ATOM     13  N   LIG    1        0.091   8.695  -1.491  0.00  0.00    -0.370 N 
ATOM     14  H   LIG    1       -0.118   9.665  -1.677  0.00  0.00    +0.430 HD
BRANCH  13  15
ATOM     15  C   LIG    1       -0.919   7.845  -2.133  0.00  0.00    +0.260 C 
BRANCH  15  16
ATOM     16  C   LIG    1       -1.077   8.258  -3.598  0.00  0.00    -0.080 C 
ATOM     17  C   LIG    1       -1.342   9.762  -3.678  0.00  0.00    +0.040 C 
ATOM     18  C   LIG    1       -2.252   7.499  -4.218  0.00  0.00    +0.070 C 
ATOM     19  C   LIG    1        0.205   7.925  -4.363  0.00  0.00    +0.050 C 
ENDBRANCH  15  16
ENDBRANCH  13  15
ENDBRANCH  11  13
ENDBRANCH   1  11
BRANCH   5  20
ATOM     20  C   LIG    1        3.234   7.838   5.357  0.00  0.00    +0.320 C 
BRANCH  20  21
ATOM     21  N   LIG    1        2.477   6.899   6.188  0.00  0.00    -0.290 N 
ATOM     22  C   LIG    1        2.683   5.564   6.265  0.00  0.00    +0.180 A 
ATOM     23  C   LIG    1        1.768   5.090   7.143  0.00  0.00    -0.030 A 
ATOM     24  N   LIG    1        1.053   6.145   7.551  0.00  0.00    -0.240 NA
ATOM     25  N   LIG    1        1.501   7.202   6.971  0.00  0.00    -0.100 NA
BRANCH  23  26
ATOM     26  C   LIG    1        1.587   3.657   7.572  0.00  0.00    +0.340 C 
ATOM     27  C   LIG    1        1.646   3.558   9.111  0.00  0.00    +0.050 C 
ATOM     28  C   LIG    1        0.562   2.495   9.432  0.00  0.00    +0.040 C 
ATOM     29  C   LIG    1       -0.510   2.812   8.356  0.00  0.00    +0.260 C 
ATOM     30  N   LIG    1        0.262   3.174   7.154  0.00  0.00    -0.590 N 
ATOM     31  C   LIG    1       -0.175   3.083   5.883  0.00  0.00    +0.670 C 
ATOM     32  O   LIG    1        0.549   3.417   4.965  0.00  0.00    -0.570 OA
BRANCH  31  33
ATOM     33  O   LIG    1       -1.415   2.623   5.628  0.00  0.00    -0.360 OA
BRANCH  33  34
ATOM     34  C   LIG    1       -1.819   2.552   4.236  0.00  0.00    +0.140 C 
ATOM     35  C   LIG    1       -3.247   2.009   4.146  0.00  0.00    +0.080 C 
ATOM     36  C   LIG    1       -1.766   3.950   3.617  0.00  0.00    +0.030 C 
ATOM     37  C   LIG    1       -0.871   1.622   3.476  0.00  0.00    +0.040 C 
ENDBRANCH  33  34
ENDBRANCH  31  33
ENDBRANCH  23  26
ENDBRANCH  20  21
ENDBRANCH   5  20
TORSDOF 10
