REMARK  Name = ZINCpe000000YR8i.0
REMARK                            x       y       z     vdW  Elec       q    Type
REMARK                         _______ _______ _______ _____ _____    ______ ____
ROOT
ATOM      1  N   LIG    1        2.366   1.214  -0.014  0.00  0.00    -0.520 N 
ATOM      2  H   LIG    1        2.379   0.244  -0.019  0.00  0.00    +0.430 HD
ATOM      3  C   LIG    1        3.524   1.904  -0.021  0.00  0.00    +0.520 C 
ATOM      4  O   LIG    1        3.508   3.117  -0.015  0.00  0.00    -0.530 OA
ENDROOT
BRANCH   3   5
ATOM      5  C   LIG    1        4.839   1.168  -0.038  0.00  0.00    -0.060 C 
ATOM      6  C   LIG    1        4.944   0.283   1.206  0.00  0.00    +0.040 C 
ATOM      7  C   LIG    1        6.279  -0.464   1.189  0.00  0.00    +0.000 C 
ATOM      8  C   LIG    1        6.360  -1.335  -0.066  0.00  0.00    +0.020 C 
ATOM      9  C   LIG    1        6.255  -0.450  -1.309  0.00  0.00    +0.000 C 
ATOM     10  C   LIG    1        7.405   0.560  -1.315  0.00  0.00    +0.020 C 
ATOM     11  C   LIG    1        7.324   1.431  -0.060  0.00  0.00    -0.010 C 
ATOM     12  C   LIG    1        7.429   0.546   1.183  0.00  0.00    +0.020 C 
ATOM     13  C   LIG    1        4.920   0.297  -1.293  0.00  0.00    +0.040 C 
ATOM     14  C   LIG    1        5.989   2.178  -0.043  0.00  0.00    +0.050 C 
ENDBRANCH   3   5
BRANCH   1  17
ATOM     15  O   LIG    1        0.002  -0.004   0.002  0.00  0.00    -0.530 OA
ATOM     16  C   LIG    1       -0.014   1.209   0.009  0.00  0.00    +0.520 C 
ATOM     17  N   LIG    1        1.143   1.898   0.001  0.00  0.00    -0.520 N 
ATOM     18  H   LIG    1        1.130   2.868   0.007  0.00  0.00    +0.430 HD
BRANCH  16  19
ATOM     19  C   LIG    1       -1.330   1.944   0.019  0.00  0.00    +0.070 C 
BRANCH  19  20
ATOM     20  C   LIG    1       -2.479   0.934   0.019  0.00  0.00    +0.330 C 
BRANCH  20  21
ATOM     21  N   LIG    1       -3.757   1.649   0.029  0.00  0.00    -0.580 N 
ATOM     22  C   LIG    1       -4.387   1.992   1.159  0.00  0.00    +0.520 C 
ATOM     23  C   LIG    1       -5.670   2.717   0.815  0.00  0.00    +0.080 C 
ATOM     24  C   LIG    1       -5.677   2.725  -0.727  0.00  0.00    +0.080 C 
ATOM     25  O   LIG    1       -3.991   1.760   2.282  0.00  0.00    -0.480 OA
ATOM     26  C   LIG    1       -4.395   2.009  -1.092  0.00  0.00    +0.520 C 
ATOM     27  O   LIG    1       -4.007   1.796  -2.220  0.00  0.00    -0.480 OA
ENDBRANCH  20  21
ENDBRANCH  19  20
ENDBRANCH  16  19
ENDBRANCH   1  17
TORSDOF 5
