REMARK  Name = ZINCvU00000007Cg.0
REMARK                            x       y       z     vdW  Elec       q    Type
REMARK                         _______ _______ _______ _____ _____    ______ ____
ROOT
ATOM      1  C   LIG    1       -4.715   8.109   0.489  0.00  0.00    +0.520 C 
ATOM      2  O   LIG    1       -5.824   7.613   0.510  0.00  0.00    -0.490 OA
ENDROOT
BRANCH   1   3
ATOM      3  C   LIG    1       -4.560   9.575   0.591  0.00  0.00    -0.070 A 
ATOM      4  C   LIG    1       -3.319  10.179   0.463  0.00  0.00    +0.080 A 
ATOM      5  C   LIG    1       -3.219  11.579   0.560  0.00  0.00    +0.230 A 
ATOM      6  N   LIG    1       -4.269  12.345   0.782  0.00  0.00    -0.430 NA
ATOM      7  C   LIG    1       -5.498  11.846   0.923  0.00  0.00    +0.130 A 
ATOM      8  C   LIG    1       -6.600  12.689   1.158  0.00  0.00    +0.060 A 
ATOM      9  C   LIG    1       -7.844  12.152   1.297  0.00  0.00    +0.040 A 
ATOM     10  C   LIG    1       -8.046  10.776   1.210  0.00  0.00    +0.030 A 
ATOM     11  C   LIG    1       -7.001   9.929   0.983  0.00  0.00    +0.050 A 
ATOM     12  C   LIG    1       -5.711  10.447   0.835  0.00  0.00    -0.060 A 
BRANCH   5  13
ATOM     13  C   LIG    1       -1.893  12.210   0.416  0.00  0.00    -0.000 A 
ATOM     14  C   LIG    1       -1.632  13.545   0.485  0.00  0.00    +0.020 A 
ATOM     15  C   LIG    1       -0.246  13.696   0.295  0.00  0.00    -0.060 A 
ATOM     16  C   LIG    1        0.266  12.462   0.115  0.00  0.00    +0.200 A 
ATOM     17  O   LIG    1       -0.731  11.567   0.188  0.00  0.00    -0.170 OA
ENDBRANCH   5  13
ENDBRANCH   1   3
BRANCH   1  18
ATOM     18  O   LIG    1       -3.628   7.323   0.372  0.00  0.00    -0.320 OA
BRANCH  18  19
ATOM     19  C   LIG    1       -3.855   5.892   0.277  0.00  0.00    +0.270 C 
BRANCH  19  22
ATOM     20  N   LIG    1       -2.498   3.837   0.052  0.00  0.00    -0.660 N 
ATOM     21  H   LIG    1       -3.324   3.334  -0.024  0.00  0.00    +0.410 HD
ATOM     22  C   LIG    1       -2.533   5.180   0.154  0.00  0.00    +0.510 C 
ATOM     23  O   LIG    1       -1.500   5.816   0.147  0.00  0.00    -0.490 OA
BRANCH  20  29
ATOM     24  C   LIG    1       -1.155   1.921  -0.550  0.00  0.00    -0.100 A 
ATOM     25  C   LIG    1        0.058   1.260  -0.542  0.00  0.00    +0.030 A 
ATOM     26  C   LIG    1        1.160   1.842   0.058  0.00  0.00    -0.010 A 
ATOM     27  C   LIG    1        1.050   3.084   0.655  0.00  0.00    +0.030 A 
ATOM     28  C   LIG    1       -0.161   3.748   0.655  0.00  0.00    +0.010 A 
ATOM     29  C   LIG    1       -1.269   3.167   0.054  0.00  0.00    +0.150 A 
BRANCH  24  31
ATOM     30  C   LIG    1       -2.102   1.162  -2.713  0.00  0.00    +0.040 C 
ATOM     31  C   LIG    1       -2.354   1.290  -1.209  0.00  0.00    +0.020 C 
ATOM     32  C   LIG    1       -2.591  -0.099  -0.612  0.00  0.00    +0.030 C 
ENDBRANCH  24  31
ENDBRANCH  20  29
ENDBRANCH  19  22
ENDBRANCH  18  19
ENDBRANCH   1  18
TORSDOF 7
