REMARK  Name = ZINCtV00000L6kLy.0
REMARK                            x       y       z     vdW  Elec       q    Type
REMARK                         _______ _______ _______ _____ _____    ______ ____
ROOT
ATOM      1  C   LIG    1        3.879   5.428  -0.383  0.00  0.00    -0.220 A 
ATOM      2  C   LIG    1        2.568   5.064  -0.622  0.00  0.00    +0.060 A 
ATOM      3  N   LIG    1        2.358   3.889   0.000  0.00  0.00    -0.270 N 
ATOM      4  N   LIG    1        3.542   3.510   0.642  0.00  0.00    -0.240 NA
ATOM      5  C   LIG    1        4.455   4.415   0.416  0.00  0.00    +0.300 A 
ENDROOT
BRANCH   3   6
ATOM      6  C   LIG    1        1.155   3.170   0.008  0.00  0.00    +0.120 A 
ATOM      7  C   LIG    1        1.174   1.782   0.000  0.00  0.00    +0.070 A 
ATOM      8  C   LIG    1       -0.013   1.076   0.008  0.00  0.00    +0.060 A 
ATOM      9  C   LIG    1       -1.221   1.751   0.017  0.00  0.00    -0.020 A 
ATOM     10  C   LIG    1       -1.243   3.135   0.031  0.00  0.00    +0.060 A 
ATOM     11 CL   LIG    1       -2.711   0.860   0.019  0.00  0.00    -0.050 Cl
ATOM     12  C   LIG    1       -0.059   3.845   0.023  0.00  0.00    +0.040 A 
ENDBRANCH   3   6
BRANCH   1  14
ATOM     13  O   LIG    1        3.941   7.444  -1.555  0.00  0.00    -0.440 OA
ATOM     14  C   LIG    1        4.551   6.645  -0.871  0.00  0.00    +0.580 C 
ATOM     15  N   LIG    1        5.842   6.874  -0.558  0.00  0.00    -0.620 N 
ATOM     16  H   LIG    1        6.328   6.237  -0.012  0.00  0.00    +0.430 HD
BRANCH  15  17
ATOM     17  C   LIG    1        6.473   8.017  -1.016  0.00  0.00    +0.340 A 
ATOM     18  N   LIG    1        5.919   8.919  -1.749  0.00  0.00    -0.460 NA
ATOM     19  C   LIG    1        6.665   9.982  -2.113  0.00  0.00    +0.110 A 
ATOM     20  C   LIG    1        6.294  11.092  -2.901  0.00  0.00    +0.100 A 
ATOM     21  C   LIG    1        7.201  12.085  -3.174  0.00  0.00    +0.060 A 
ATOM     22  C   LIG    1        8.496  12.013  -2.682  0.00  0.00    -0.030 A 
ATOM     23  C   LIG    1        8.881  10.938  -1.911  0.00  0.00    +0.080 A 
ATOM     24 CL   LIG    1        9.632  13.277  -3.037  0.00  0.00    -0.050 Cl
ATOM     25  C   LIG    1        7.973   9.921  -1.623  0.00  0.00    -0.170 A 
ATOM     26  S   LIG    1        8.148   8.440  -0.686  0.00  0.00    +0.090 S 
ENDBRANCH  15  17
ENDBRANCH   1  14
BRANCH   2  27
ATOM     27  C   LIG    1        1.560   5.838  -1.431  0.00  0.00    +0.530 C 
ATOM     28  F   LIG    1        0.653   4.950  -2.020  0.00  0.00    -0.170 F 
ATOM     29  F   LIG    1        2.220   6.562  -2.429  0.00  0.00    -0.120 F 
ATOM     30  F   LIG    1        0.870   6.721  -0.593  0.00  0.00    -0.160 F 
ENDBRANCH   2  27
TORSDOF 4
