REMARK  Name = ZINCrD0000075e3l.0
REMARK                            x       y       z     vdW  Elec       q    Type
REMARK                         _______ _______ _______ _____ _____    ______ ____
ROOT
ATOM      1  C   LIG    1       -0.469   0.141   0.144  0.00  0.00    +0.560 C 
ATOM      2  N   LIG    1       -1.714  -0.375   0.156  0.00  0.00    -0.620 N 
ATOM      3  C   LIG    1       -2.962   0.398   0.077  0.00  0.00    +0.230 C 
ATOM      4  C   LIG    1       -4.129  -0.612   0.097  0.00  0.00    +0.040 C 
ATOM      5  C   LIG    1       -3.459  -1.926  -0.384  0.00  0.00    +0.040 C 
ATOM      6  C   LIG    1       -2.050  -1.808   0.245  0.00  0.00    +0.270 C 
ATOM      7  O   LIG    1        0.493  -0.595   0.215  0.00  0.00    -0.510 OA
ENDROOT
BRANCH   5   8
ATOM      8  C   LIG    1       -4.191  -3.131   0.148  0.00  0.00    -0.070 A 
ATOM      9  C   LIG    1       -4.330  -3.310   1.512  0.00  0.00    +0.050 A 
ATOM     10  C   LIG    1       -5.006  -4.413   1.999  0.00  0.00    +0.020 A 
ATOM     11  C   LIG    1       -5.534  -5.343   1.123  0.00  0.00    +0.070 A 
ATOM     12  C   LIG    1       -5.391  -5.167  -0.241  0.00  0.00    -0.180 A 
ATOM     13  C   LIG    1       -4.720  -4.061  -0.728  0.00  0.00    +0.080 A 
BRANCH  12  14
ATOM     14  C   LIG    1       -5.966  -6.180  -1.196  0.00  0.00    +0.510 C 
ATOM     15  F   LIG    1       -6.322  -5.546  -2.391  0.00  0.00    -0.180 F 
ATOM     16  F   LIG    1       -7.100  -6.768  -0.624  0.00  0.00    -0.180 F 
ATOM     17  F   LIG    1       -5.011  -7.168  -1.459  0.00  0.00    -0.170 F 
ENDBRANCH  12  14
ENDBRANCH   5   8
BRANCH   1  21
ATOM     18  C   LIG    1       -0.044   2.126  -1.395  0.00  0.00    +0.100 C 
ATOM     19  C   LIG    1        1.457   1.890  -1.156  0.00  0.00    +0.070 C 
ATOM     20  C   LIG    1        1.168   2.083   0.342  0.00  0.00    +0.060 C 
ATOM     21  C   LIG    1       -0.271   1.631   0.043  0.00  0.00    -0.020 C 
BRANCH  18  27
ATOM     22  C   LIG    1       -2.419   2.779  -3.326  0.00  0.00    +0.330 C 
ATOM     23  N   LIG    1       -1.667   1.523  -3.273  0.00  0.00    -0.480 N 
ATOM     24  C   LIG    1       -1.861   0.425  -4.043  0.00  0.00    +0.370 A 
ATOM     25  N   LIG    1       -0.982  -0.467  -3.675  0.00  0.00    -0.290 NA
ATOM     26  N   LIG    1       -0.252   0.009  -2.729  0.00  0.00    -0.270 NA
ATOM     27  C   LIG    1       -0.638   1.223  -2.445  0.00  0.00    +0.170 A 
ENDBRANCH  18  27
ENDBRANCH   1  21
TORSDOF 4
