REMARK  Name = ZINCrD000000CmSd.1
REMARK                            x       y       z     vdW  Elec       q    Type
REMARK                         _______ _______ _______ _____ _____    ______ ____
ROOT
ATOM      1  N   LIG    1        3.829  -3.931   3.089  0.00  0.00    -0.400 N 
ATOM      2  C   LIG    1        3.954  -4.771   4.311  0.00  0.00    +0.270 C 
ATOM      3  C   LIG    1        2.841  -4.221   5.238  0.00  0.00    +0.080 C 
ATOM      4  C   LIG    1        2.877  -2.701   4.957  0.00  0.00    +0.090 C 
ATOM      5  C   LIG    1        3.537  -2.564   3.572  0.00  0.00    +0.230 C 
ATOM      6  H   LIG    1        3.071  -4.266   2.513  0.00  0.00    +0.430 HD
ENDROOT
BRANCH   5   7
ATOM      7  C   LIG    1        2.594  -1.874   2.620  0.00  0.00    -0.140 A 
ATOM      8  C   LIG    1        1.552  -2.579   2.049  0.00  0.00    +0.020 A 
ATOM      9  C   LIG    1        0.686  -1.950   1.174  0.00  0.00    +0.060 A 
ATOM     10  C   LIG    1        0.861  -0.609   0.868  0.00  0.00    +0.080 A 
ATOM     11  O   LIG    1        0.002  -0.004   0.002  0.00  0.00    -0.300 OA
ATOM     12  C   LIG    1       -0.017   1.427   0.010  0.00  0.00    +0.230 C 
ATOM     13  C   LIG    1        1.433   1.928  -0.001  0.00  0.00    +0.230 C 
ATOM     14  O   LIG    1        2.092   1.420   1.164  0.00  0.00    -0.300 OA
ATOM     15  C   LIG    1        1.907   0.101   1.445  0.00  0.00    +0.060 A 
ATOM     16  C   LIG    1        2.773  -0.536   2.321  0.00  0.00    +0.050 A 
ENDBRANCH   5   7
BRANCH   1  17
ATOM     17  C   LIG    1        5.087  -3.942   2.331  0.00  0.00    +0.290 C 
BRANCH  17  18
ATOM     18  C   LIG    1        5.311  -5.333   1.734  0.00  0.00    +0.210 C 
BRANCH  18  19
ATOM     19  O   LIG    1        4.289  -5.609   0.774  0.00  0.00    -0.330 OA
BRANCH  19  24
ATOM     20  C   LIG    1        3.441  -8.385  -1.437  0.00  0.00    -0.090 A 
ATOM     21  C   LIG    1        4.467  -9.279  -1.125  0.00  0.00    +0.020 A 
ATOM     22  C   LIG    1        5.418  -8.937  -0.185  0.00  0.00    +0.020 A 
ATOM     23  C   LIG    1        5.358  -7.710   0.450  0.00  0.00    -0.090 A 
ATOM     24  C   LIG    1        4.342  -6.814   0.147  0.00  0.00    +0.090 A 
ATOM     25  C   LIG    1        3.379  -7.148  -0.790  0.00  0.00    +0.030 A 
BRANCH  20  27
ATOM     26  O   LIG    1        2.475  -9.832  -3.002  0.00  0.00    -0.670 OA
ATOM     27  C   LIG    1        2.422  -8.747  -2.441  0.00  0.00    +0.520 C 
ATOM     28  O   LIG    1        1.524  -7.962  -2.712  0.00  0.00    -0.680 OA
ENDBRANCH  20  27
ENDBRANCH  19  24
ENDBRANCH  18  19
ENDBRANCH  17  18
ENDBRANCH   1  17
TORSDOF 6
