REMARK  Name = ZINCrD000000CmSd.0
REMARK                            x       y       z     vdW  Elec       q    Type
REMARK                         _______ _______ _______ _____ _____    ______ ____
ROOT
ATOM      1  N   LIG    1       -0.182   7.937   1.085  0.00  0.00    -0.390 N 
ATOM      2  C   LIG    1       -1.641   7.992   1.321  0.00  0.00    +0.280 C 
ATOM      3  C   LIG    1       -1.830   9.121   2.365  0.00  0.00    +0.080 C 
ATOM      4  C   LIG    1       -0.757  10.147   1.915  0.00  0.00    +0.080 C 
ATOM      5  C   LIG    1        0.398   9.250   1.424  0.00  0.00    +0.220 C 
ATOM      6  H   LIG    1        0.230   7.225   1.669  0.00  0.00    +0.420 HD
ENDROOT
BRANCH   5   7
ATOM      7  C   LIG    1        1.036   9.859   0.202  0.00  0.00    -0.140 A 
ATOM      8  C   LIG    1        0.246  10.298  -0.843  0.00  0.00    +0.040 A 
ATOM      9  C   LIG    1        0.828  10.857  -1.966  0.00  0.00    +0.040 A 
ATOM     10  C   LIG    1        2.207  10.979  -2.046  0.00  0.00    +0.080 A 
ATOM     11  O   LIG    1        2.766  11.527  -3.159  0.00  0.00    -0.300 OA
ATOM     12  C   LIG    1        4.122  11.972  -3.046  0.00  0.00    +0.240 C 
ATOM     13  C   LIG    1        4.931  10.874  -2.342  0.00  0.00    +0.230 C 
ATOM     14  O   LIG    1        4.357  10.653  -1.050  0.00  0.00    -0.300 OA
ATOM     15  C   LIG    1        3.002  10.539  -0.994  0.00  0.00    +0.060 A 
ATOM     16  C   LIG    1        2.412   9.983   0.131  0.00  0.00    +0.050 A 
ENDBRANCH   5   7
BRANCH   1  17
ATOM     17  C   LIG    1        0.078   7.631  -0.328  0.00  0.00    +0.280 C 
BRANCH  17  18
ATOM     18  C   LIG    1       -0.384   6.206  -0.635  0.00  0.00    +0.210 C 
BRANCH  18  19
ATOM     19  O   LIG    1       -1.803   6.122  -0.485  0.00  0.00    -0.330 OA
BRANCH  19  24
ATOM     20  C   LIG    1       -4.336   3.521  -0.845  0.00  0.00    -0.090 A 
ATOM     21  C   LIG    1       -3.535   2.437  -1.212  0.00  0.00    +0.020 A 
ATOM     22  C   LIG    1       -2.170   2.599  -1.336  0.00  0.00    +0.020 A 
ATOM     23  C   LIG    1       -1.591   3.831  -1.093  0.00  0.00    -0.090 A 
ATOM     24  C   LIG    1       -2.378   4.914  -0.723  0.00  0.00    +0.090 A 
ATOM     25  C   LIG    1       -3.748   4.764  -0.596  0.00  0.00    +0.030 A 
BRANCH  20  27
ATOM     26  O   LIG    1       -6.308   2.264  -0.932  0.00  0.00    -0.670 OA
ATOM     27  C   LIG    1       -5.796   3.354  -0.718  0.00  0.00    +0.520 C 
ATOM     28  O   LIG    1       -6.495   4.304  -0.397  0.00  0.00    -0.680 OA
ENDBRANCH  20  27
ENDBRANCH  19  24
ENDBRANCH  18  19
ENDBRANCH  17  18
ENDBRANCH   1  17
TORSDOF 6
