REMARK  Name = ZINCkj000005h4in.0
REMARK                            x       y       z     vdW  Elec       q    Type
REMARK                         _______ _______ _______ _____ _____    ______ ____
ROOT
ATOM      1  C   LIG    1       -1.572   3.283   0.027  0.00  0.00    +0.300 C 
ATOM      2  N   LIG    1       -1.361   1.834   0.070  0.00  0.00    -0.610 N 
ATOM      3  C   LIG    1       -0.150   1.321  -0.222  0.00  0.00    +0.580 C 
ATOM      4  O   LIG    1        0.004   0.116  -0.273  0.00  0.00    -0.510 OA
ENDROOT
BRANCH   2   5
ATOM      5  C   LIG    1       -2.466   0.943   0.431  0.00  0.00    +0.260 C 
ATOM      6  C   LIG    1       -2.979   1.273   1.848  0.00  0.00    +0.060 C 
ATOM      7  C   LIG    1       -4.455   1.685   1.655  0.00  0.00    +0.280 C 
ATOM      8  N   LIG    1       -4.861   1.034   0.382  0.00  0.00    -0.520 N 
ATOM      9  H   LIG    1       -5.660   1.506  -0.015  0.00  0.00    +0.440 HD
ATOM     10  H   LIG    1       -5.067   0.059   0.535  0.00  0.00    +0.440 HD
ATOM     11  C   LIG    1       -3.675   1.184  -0.499  0.00  0.00    +0.270 C 
ENDBRANCH   2   5
BRANCH   3  12
ATOM     12  C   LIG    1        0.990   2.222  -0.487  0.00  0.00    -0.160 A 
ATOM     13  C   LIG    1        0.798   3.396  -1.220  0.00  0.00    +0.080 A 
ATOM     14  C   LIG    1        1.862   4.237  -1.461  0.00  0.00    -0.010 A 
ATOM     15  C   LIG    1        3.128   3.913  -0.985  0.00  0.00    +0.210 A 
ATOM     16  C   LIG    1        3.323   2.743  -0.259  0.00  0.00    +0.020 A 
ATOM     17  C   LIG    1        2.263   1.900  -0.010  0.00  0.00    +0.110 A 
BRANCH  15  18
ATOM     18  N   LIG    1        4.207   4.766  -1.236  0.00  0.00    -0.340 N 
ATOM     19  C   LIG    1        4.160   5.934  -1.928  0.00  0.00    +0.230 A 
ATOM     20  C   LIG    1        5.410   6.452  -1.944  0.00  0.00    -0.090 A 
ATOM     21  C   LIG    1        6.248   5.577  -1.243  0.00  0.00    +0.270 A 
ATOM     22  N   LIG    1        5.529   4.571  -0.815  0.00  0.00    -0.290 NA
ENDBRANCH  15  18
ENDBRANCH   3  12
TORSDOF 3
