REMARK  Name = ZINCnE000001C6VU.0
REMARK                            x       y       z     vdW  Elec       q    Type
REMARK                         _______ _______ _______ _____ _____    ______ ____
ROOT
ATOM      1  N   LIG    1        4.425   0.808   0.079  0.00  0.00    -0.600 N 
ATOM      2  C   LIG    1        3.374  -0.013  -0.115  0.00  0.00    +0.600 C 
ATOM      3  O   LIG    1        3.456  -1.187   0.190  0.00  0.00    -0.520 OA
ENDROOT
BRANCH   2   4
ATOM      4  C   LIG    1        2.121   0.515  -0.698  0.00  0.00    -0.220 A 
ATOM      5  C   LIG    1        0.933  -0.140  -0.837  0.00  0.00    -0.080 A 
ATOM      6  C   LIG    1       -0.078   0.607  -1.423  0.00  0.00    +0.440 A 
ATOM      7  N   LIG    1        0.220   1.862  -1.781  0.00  0.00    -0.620 NA
ATOM      8  O   LIG    1       -1.191   0.140  -1.607  0.00  0.00    -0.610 OA
ATOM      9 CL   LIG    1        0.703  -1.781  -0.319  0.00  0.00    -0.040 Cl
ATOM     10  S   LIG    1        1.843   2.131  -1.366  0.00  0.00    +0.110 S 
ENDBRANCH   2   4
BRANCH   1  11
ATOM     11  C   LIG    1        4.275   2.251  -0.125  0.00  0.00    +0.300 C 
BRANCH  11  13
ATOM     12  C   LIG    1        6.166   3.563   0.690  0.00  0.00    +0.010 C 
ATOM     13  C   LIG    1        5.018   2.991   0.957  0.00  0.00    -0.120 C 
ATOM     14  C   LIG    1        4.440   3.075   2.346  0.00  0.00    +0.070 C 
ENDBRANCH  11  13
ENDBRANCH   1  11
BRANCH   1  15
ATOM     15  C   LIG    1        5.718   0.258   0.493  0.00  0.00    +0.370 C 
BRANCH  15  16
ATOM     16  C   LIG    1        6.533  -0.085  -0.727  0.00  0.00    -0.260 A 
ATOM     17  C   LIG    1        6.539  -1.274  -1.372  0.00  0.00    +0.250 A 
ATOM     18  N   LIG    1        7.394  -1.174  -2.411  0.00  0.00    -0.370 N 
ATOM     19  N   LIG    1        7.937   0.117  -2.400  0.00  0.00    -0.300 NA
ATOM     20  C   LIG    1        7.420   0.769  -1.391  0.00  0.00    +0.240 A 
BRANCH  18  21
ATOM     21  C   LIG    1        7.704  -2.231  -3.377  0.00  0.00    +0.260 C 
ATOM     22  C   LIG    1        6.447  -3.063  -3.643  0.00  0.00    +0.050 C 
ATOM     23  C   LIG    1        8.802  -3.133  -2.812  0.00  0.00    +0.040 C 
ENDBRANCH  18  21
ENDBRANCH  15  16
ENDBRANCH   1  15
TORSDOF 6
