REMARK  Name = ZINCqH0000007qjS.2
REMARK                            x       y       z     vdW  Elec       q    Type
REMARK                         _______ _______ _______ _____ _____    ______ ____
ROOT
ATOM      1  C   LIG    1       -2.547  -4.300  -4.787  0.00  0.00    +0.170 C 
ATOM      2  C   LIG    1       -1.663  -5.424  -5.368  0.00  0.00    +0.040 C 
ATOM      3  C   LIG    1       -0.261  -5.179  -4.773  0.00  0.00    +0.020 C 
ATOM      4  C   LIG    1       -0.416  -3.928  -3.882  0.00  0.00    +0.160 C 
ATOM      5  N   LIG    1       -1.860  -3.893  -3.534  0.00  0.00    -0.480 NA
ENDROOT
BRANCH   1   9
ATOM      6  C   LIG    1       -6.463  -5.778  -3.925  0.00  0.00    +0.130 A 
ATOM      7  C   LIG    1       -6.253  -4.976  -5.037  0.00  0.00    -0.030 A 
ATOM      8  C   LIG    1       -4.986  -4.499  -5.313  0.00  0.00    +0.050 A 
ATOM      9  C   LIG    1       -3.928  -4.821  -4.483  0.00  0.00    -0.120 A 
ATOM     10  C   LIG    1       -4.135  -5.626  -3.378  0.00  0.00    +0.080 A 
ATOM     11  C   LIG    1       -5.401  -6.101  -3.094  0.00  0.00    -0.080 A 
BRANCH   6  13
ATOM     12  C   LIG    1       -7.851  -7.069  -2.490  0.00  0.00    +0.250 C 
ATOM     13  O   LIG    1       -7.709  -6.248  -3.651  0.00  0.00    -0.320 OA
ENDBRANCH   6  13
ENDBRANCH   1   9
BRANCH   5  14
ATOM     14  C   LIG    1       -2.270  -2.543  -3.124  0.00  0.00    +0.200 C 
BRANCH  14  15
ATOM     15  C   LIG    1       -1.752  -2.260  -1.738  0.00  0.00    +0.520 C 
ATOM     16  N   LIG    1       -2.007  -1.074  -1.151  0.00  0.00    -0.620 N 
ATOM     17  C   LIG    1       -2.789  -0.059  -1.862  0.00  0.00    +0.270 C 
ATOM     18  O   LIG    1       -1.104  -3.101  -1.149  0.00  0.00    -0.510 OA
BRANCH  16  19
ATOM     19  C   LIG    1       -1.503  -0.799   0.197  0.00  0.00    +0.350 C 
BRANCH  19  20
ATOM     20  C   LIG    1       -0.120  -0.208   0.105  0.00  0.00    -0.100 A 
ATOM     21  C   LIG    1        0.450   0.028  -1.132  0.00  0.00    +0.020 A 
ATOM     22  C   LIG    1        1.719   0.570  -1.216  0.00  0.00    +0.000 A 
ATOM     23  C   LIG    1        2.417   0.877  -0.064  0.00  0.00    +0.000 A 
ATOM     24  C   LIG    1        1.847   0.641   1.174  0.00  0.00    +0.000 A 
ATOM     25  C   LIG    1        0.579   0.099   1.258  0.00  0.00    -0.080 A 
ATOM     26  C   LIG    1       -0.045  -0.152   2.606  0.00  0.00    +0.090 C 
ENDBRANCH  19  20
ENDBRANCH  16  19
ENDBRANCH  14  15
ENDBRANCH   5  14
TORSDOF 6
