REMARK  Name = ZINCpe00000zj6EO.0
REMARK                            x       y       z     vdW  Elec       q    Type
REMARK                         _______ _______ _______ _____ _____    ______ ____
ROOT
ATOM      1  C   LIG    1        1.846  -6.576  -4.205  0.00  0.00    -0.010 C 
ATOM      2  C   LIG    1        1.240  -5.398  -5.014  0.00  0.00    +0.040 C 
ATOM      3  C   LIG    1        1.209  -4.251  -3.982  0.00  0.00    +0.240 C 
ATOM      4  N   LIG    1        1.228  -4.864  -2.646  0.00  0.00    -0.620 N 
ATOM      5  C   LIG    1        1.233  -4.197  -1.475  0.00  0.00    +0.530 C 
ATOM      6  O   LIG    1        1.250  -4.809  -0.428  0.00  0.00    -0.540 OA
ATOM      7  C   LIG    1        1.249  -6.330  -2.799  0.00  0.00    +0.260 C 
ENDROOT
BRANCH   1   8
ATOM      8  C   LIG    1        1.388  -7.922  -4.771  0.00  0.00    +0.040 C 
BRANCH   8   9
ATOM      9  C   LIG    1        1.974  -8.113  -6.171  0.00  0.00    +0.280 C 
BRANCH   9  11
ATOM     10  C   LIG    1        1.932  -9.787  -7.941  0.00  0.00    +0.510 C 
ATOM     11  N   LIG    1        1.536  -9.402  -6.712  0.00  0.00    -0.700 N 
ATOM     12  H   LIG    1        0.960  -9.979  -6.185  0.00  0.00    +0.410 HD
ATOM     13  O   LIG    1        2.652  -9.065  -8.600  0.00  0.00    -0.520 OA
BRANCH  10  17
ATOM     14  N   LIG    1        1.881 -11.486  -9.723  0.00  0.00    -0.820 N 
ATOM     15  H   LIG    1        1.590 -12.339 -10.081  0.00  0.00    +0.410 HD
ATOM     16  H   LIG    1        2.456 -10.909 -10.249  0.00  0.00    +0.420 HD
ATOM     17  C   LIG    1        1.484 -11.101  -8.493  0.00  0.00    +0.510 C 
ATOM     18  O   LIG    1        0.764 -11.823  -7.834  0.00  0.00    -0.520 OA
ENDBRANCH  10  17
ENDBRANCH   9  11
ENDBRANCH   8   9
ENDBRANCH   1   8
BRANCH   5  19
ATOM     19  C   LIG    1        1.216  -2.690  -1.467  0.00  0.00    +0.070 C 
BRANCH  19  20
ATOM     20  C   LIG    1        1.224  -2.187  -0.022  0.00  0.00    +0.110 C 
BRANCH  20  21
ATOM     21  C   LIG    1        1.208  -0.680  -0.014  0.00  0.00    -0.080 A 
ATOM     22  C   LIG    1        0.002  -0.004   0.002  0.00  0.00    +0.040 A 
ATOM     23  C   LIG    1       -0.017   1.378   0.010  0.00  0.00    +0.010 A 
ATOM     24  C   LIG    1        1.175   2.086   0.002  0.00  0.00    +0.110 A 
ATOM     25  C   LIG    1        2.385   1.405  -0.014  0.00  0.00    -0.060 A 
ATOM     26 CL   LIG    1        3.880   2.288  -0.024  0.00  0.00    -0.060 Cl
ATOM     27  C   LIG    1        2.398   0.023  -0.021  0.00  0.00    +0.050 A 
BRANCH  24  28
ATOM     28  O   LIG    1        1.159   3.446   0.009  0.00  0.00    -0.490 OA
ATOM     29  H   LIG    1        1.163   3.834   0.894  0.00  0.00    +0.390 HD
ENDBRANCH  24  28
ENDBRANCH  20  21
ENDBRANCH  19  20
ENDBRANCH   5  19
TORSDOF 8
