REMARK  Name = ZINCpe00000MJKcE.0
REMARK                            x       y       z     vdW  Elec       q    Type
REMARK                         _______ _______ _______ _____ _____    ______ ____
ROOT
ATOM      1  C   LIG    1        1.603  -1.715   1.114  0.00  0.00    +0.260 C 
ATOM      2  C   LIG    1        2.448  -1.697   2.401  0.00  0.00    +0.290 C 
ATOM      3  N   LIG    1        3.208  -2.811   1.794  0.00  0.00    -0.630 N 
ATOM      4  C   LIG    1        3.954  -3.821   2.284  0.00  0.00    +0.600 C 
ATOM      5  O   LIG    1        4.475  -4.615   1.525  0.00  0.00    -0.530 OA
ATOM      6  C   LIG    1        2.819  -2.374   0.439  0.00  0.00    +0.280 C 
ENDROOT
BRANCH   4   7
ATOM      7  C   LIG    1        4.140  -3.963   3.742  0.00  0.00    -0.140 A 
ATOM      8  C   LIG    1        3.241  -4.725   4.492  0.00  0.00    -0.020 A 
ATOM      9  C   LIG    1        3.422  -4.858   5.852  0.00  0.00    -0.020 A 
ATOM     10  C   LIG    1        4.487  -4.228   6.478  0.00  0.00    +0.130 A 
ATOM     11  C   LIG    1        5.379  -3.466   5.739  0.00  0.00    -0.020 A 
ATOM     12  F   LIG    1        4.656  -4.357   7.812  0.00  0.00    -0.130 F 
ATOM     13  C   LIG    1        2.079  -5.404   3.815  0.00  0.00    +0.110 C 
ATOM     14  C   LIG    1        5.211  -3.331   4.377  0.00  0.00    -0.010 A 
ATOM     15  C   LIG    1        6.182  -2.502   3.576  0.00  0.00    +0.110 C 
ENDBRANCH   4   7
BRANCH   1  19
ATOM     16  C   LIG    1       -0.019   1.541   0.011  0.00  0.00    +0.000 C 
ATOM     17  C   LIG    1        1.490   1.876  -0.002  0.00  0.00    +0.080 C 
ATOM     18  C   LIG    1        2.147   0.654   0.600  0.00  0.00    +0.520 C 
ATOM     19  N   LIG    1        1.290  -0.381   0.595  0.00  0.00    -0.600 N 
ATOM     20  O   LIG    1        3.283   0.614   1.026  0.00  0.00    -0.520 OA
ATOM     21  C   LIG    1        0.002  -0.004   0.002  0.00  0.00    +0.310 C 
BRANCH  16  25
ATOM     22  C   LIG    1       -1.434   3.902   2.671  0.00  0.00    +0.290 C 
ATOM     23  N   LIG    1       -0.793   3.393   1.456  0.00  0.00    -0.730 N 
ATOM     24  H   LIG    1       -0.453   4.012   0.791  0.00  0.00    +0.400 HD
ATOM     25  C   LIG    1       -0.677   2.064   1.261  0.00  0.00    +0.520 C 
ATOM     26  O   LIG    1       -1.103   1.290   2.092  0.00  0.00    -0.530 OA
ENDBRANCH  16  25
ENDBRANCH   1  19
TORSDOF 3
