REMARK  Name = ZINCpe00000MJMBp.0
REMARK                            x       y       z     vdW  Elec       q    Type
REMARK                         _______ _______ _______ _____ _____    ______ ____
ROOT
ATOM      1  C   LIG    1        1.741   4.654   0.010  0.00  0.00    +0.350 C 
ATOM      2  N   LIG    1        0.786   3.543   0.013  0.00  0.00    -0.610 N 
ATOM      3  C   LIG    1        1.077   2.230   0.097  0.00  0.00    +0.700 C 
ATOM      4  N   LIG    1       -0.019   1.462   0.075  0.00  0.00    -0.560 N 
ATOM      5  C   LIG    1       -1.142   2.202  -0.032  0.00  0.00    +0.540 C 
ATOM      6  O   LIG    1       -2.285   1.800  -0.082  0.00  0.00    -0.460 OA
ATOM      7  O   LIG    1        2.207   1.792   0.184  0.00  0.00    -0.540 OA
ATOM      8  C   LIG    1       -0.676   3.639  -0.075  0.00  0.00    +0.130 C 
ATOM      9  C   LIG    1       -1.090   4.290  -1.391  0.00  0.00    +0.050 C 
ATOM     10  C   LIG    1       -0.577   5.732  -1.432  0.00  0.00    +0.030 C 
ATOM     11  C   LIG    1       -1.159   6.513  -0.252  0.00  0.00    +0.010 C 
ATOM     12  C   LIG    1       -0.718   5.861   1.061  0.00  0.00    +0.030 C 
ATOM     13  C   LIG    1       -1.232   4.420   1.111  0.00  0.00    +0.060 C 
ENDROOT
BRANCH   4  14
ATOM     14  C   LIG    1       -0.002  -0.001   0.151  0.00  0.00    +0.360 C 
BRANCH  14  15
ATOM     15  C   LIG    1       -0.076  -0.429   1.594  0.00  0.00    +0.530 C 
ATOM     16  N   LIG    1       -0.074  -1.740   1.908  0.00  0.00    -0.610 N 
ATOM     17  C   LIG    1       -0.002  -2.854   0.946  0.00  0.00    +0.280 C 
ATOM     18  C   LIG    1        0.584  -4.039   1.753  0.00  0.00    +0.280 C 
ATOM     19  C   LIG    1       -0.083  -3.832   3.139  0.00  0.00    +0.070 C 
ATOM     20  F   LIG    1        1.976  -3.941   1.847  0.00  0.00    -0.180 F 
ATOM     21  F   LIG    1        0.206  -5.264   1.193  0.00  0.00    -0.180 F 
ATOM     22  C   LIG    1       -0.136  -2.295   3.268  0.00  0.00    +0.240 C 
ATOM     23  O   LIG    1       -0.138   0.405   2.472  0.00  0.00    -0.520 OA
BRANCH  22  24
ATOM     24  C   LIG    1       -1.445  -1.877   3.942  0.00  0.00    +0.190 C 
BRANCH  24  25
ATOM     25  O   LIG    1       -2.546  -2.466   3.247  0.00  0.00    -0.570 OA
ATOM     26  H   LIG    1       -3.410  -2.243   3.620  0.00  0.00    +0.380 HD
ENDBRANCH  24  25
ENDBRANCH  22  24
ENDBRANCH  14  15
ENDBRANCH   4  14
TORSDOF 4
