REMARK  Name = ZINCtV00000L6kny.0
REMARK                            x       y       z     vdW  Elec       q    Type
REMARK                         _______ _______ _______ _____ _____    ______ ____
ROOT
ATOM      1  C   LIG    1        3.609   5.889  -0.002  0.00  0.00    +0.290 A 
ATOM      2  N   LIG    1        4.302   6.184   1.060  0.00  0.00    -0.460 NA
ATOM      3  C   LIG    1        5.503   6.701   0.692  0.00  0.00    +0.060 A 
ATOM      4  C   LIG    1        6.607   7.171   1.406  0.00  0.00    +0.090 A 
ATOM      5  C   LIG    1        7.705   7.652   0.728  0.00  0.00    -0.040 A 
ATOM      6  C   LIG    1        7.723   7.672  -0.660  0.00  0.00    +0.050 A 
ATOM      7  C   LIG    1        6.641   7.212  -1.379  0.00  0.00    +0.030 A 
ATOM      8 CL   LIG    1        9.078   8.236   1.616  0.00  0.00    -0.060 Cl
ATOM      9  C   LIG    1        5.526   6.724  -0.713  0.00  0.00    +0.060 A 
ATOM     10  N   LIG    1        4.313   6.204  -1.122  0.00  0.00    -0.470 N 
ENDROOT
BRANCH   1  11
ATOM     11  C   LIG    1        2.225   5.292   0.009  0.00  0.00    +0.320 C 
BRANCH  11  12
ATOM     12  O   LIG    1        2.322   3.866   0.000  0.00  0.00    -0.310 OA
BRANCH  12  16
ATOM     13  C   LIG    1       -1.220   1.750   0.017  0.00  0.00    -0.100 A 
ATOM     14  C   LIG    1       -0.013   1.076   0.008  0.00  0.00    +0.060 A 
ATOM     15  C   LIG    1        1.175   1.782   0.000  0.00  0.00    -0.010 A 
ATOM     16  C   LIG    1        1.155   3.169   0.008  0.00  0.00    +0.120 A 
ATOM     17  C   LIG    1       -0.057   3.844   0.023  0.00  0.00    -0.080 A 
ATOM     18  C   LIG    1       -1.242   3.133   0.031  0.00  0.00    +0.050 A 
BRANCH  13  20
ATOM     19  C   LIG    1       -2.575   0.089   1.263  0.00  0.00    +0.040 C 
ATOM     20  C   LIG    1       -2.513   0.977   0.019  0.00  0.00    -0.030 C 
ATOM     21  C   LIG    1       -2.587   0.104  -1.235  0.00  0.00    +0.040 C 
ATOM     22  C   LIG    1       -3.691   1.954   0.030  0.00  0.00    +0.030 C 
ENDBRANCH  13  20
ENDBRANCH  12  16
ENDBRANCH  11  12
ENDBRANCH   1  11
BRANCH  10  23
ATOM     23  C   LIG    1        3.868   6.025  -2.506  0.00  0.00    +0.370 C 
BRANCH  23  24
ATOM     24  C   LIG    1        3.152   7.268  -2.968  0.00  0.00    -0.120 A 
ATOM     25  C   LIG    1        1.786   7.383  -2.794  0.00  0.00    +0.020 A 
ATOM     26  C   LIG    1        1.130   8.525  -3.213  0.00  0.00    +0.010 A 
ATOM     27  C   LIG    1        1.838   9.547  -3.817  0.00  0.00    +0.020 A 
ATOM     28  C   LIG    1        3.204   9.429  -3.996  0.00  0.00    +0.010 A 
ATOM     29  C   LIG    1        3.861   8.290  -3.572  0.00  0.00    +0.020 A 
ENDBRANCH  23  24
ENDBRANCH  10  23
TORSDOF 6
