REMARK  Name = ZINCkj000005hxMU.0
REMARK                            x       y       z     vdW  Elec       q    Type
REMARK                         _______ _______ _______ _____ _____    ______ ____
ROOT
ATOM      1  S   LIG    1       -6.217  -0.051   1.901  0.00  0.00    +2.700 S 
ATOM      2  O   LIG    1       -5.858   1.117   2.626  0.00  0.00    -0.950 OA
ATOM      3  O   LIG    1       -5.466  -0.544   0.800  0.00  0.00    -0.930 OA
ENDROOT
BRANCH   1   4
ATOM      4  C   LIG    1       -7.854   0.216   1.306  0.00  0.00    -0.730 A 
ATOM      5  C   LIG    1       -8.525   1.380   1.632  0.00  0.00    +0.160 A 
ATOM      6  C   LIG    1       -9.807   1.594   1.163  0.00  0.00    -0.100 A 
ATOM      7  C   LIG    1      -10.425   0.635   0.373  0.00  0.00    +0.200 A 
ATOM      8  C   LIG    1       -9.749  -0.532   0.047  0.00  0.00    -0.020 A 
ATOM      9  C   LIG    1       -8.466  -0.739   0.514  0.00  0.00    +0.060 A 
ATOM     10  C   LIG    1       -7.731  -2.006   0.161  0.00  0.00    +0.120 C 
BRANCH   7  11
ATOM     11  O   LIG    1      -11.687   0.842  -0.086  0.00  0.00    -0.310 OA
ATOM     12  C   LIG    1      -12.322   2.066   0.289  0.00  0.00    +0.250 C 
ENDBRANCH   7  11
ENDBRANCH   1   4
BRANCH   1  17
ATOM     13  C   LIG    1       -6.663  -1.143   4.421  0.00  0.00    +0.240 C 
ATOM     14  C   LIG    1       -6.568  -2.545   5.060  0.00  0.00    +0.040 C 
ATOM     15  C   LIG    1       -5.603  -3.297   4.106  0.00  0.00    +0.070 C 
ATOM     16  C   LIG    1       -6.002  -2.702   2.730  0.00  0.00    +0.280 C 
ATOM     17  N   LIG    1       -6.292  -1.283   3.005  0.00  0.00    -1.000 NA
BRANCH  13  18
ATOM     18  C   LIG    1       -8.094  -0.613   4.533  0.00  0.00    +0.230 C 
BRANCH  18  20
ATOM     19  C   LIG    1       -9.822   0.039   6.064  0.00  0.00    +0.320 C 
ATOM     20  N   LIG    1       -8.415  -0.365   5.945  0.00  0.00    -0.500 N 
ATOM     21  H   LIG    1       -7.822   0.370   6.301  0.00  0.00    +0.440 HD
ATOM     22  H   LIG    1       -8.261  -1.209   6.478  0.00  0.00    +0.430 HD
ENDBRANCH  18  20
ENDBRANCH  13  18
ENDBRANCH   1  17
TORSDOF 5
