REMARK  Name = ZINCrD000000C7Aa.0
REMARK                            x       y       z     vdW  Elec       q    Type
REMARK                         _______ _______ _______ _____ _____    ______ ____
ROOT
ATOM      1  O   LIG    1       -3.599   1.919  -0.148  0.00  0.00    -0.480 OA
ATOM      2  C   LIG    1       -3.615   3.131  -0.080  0.00  0.00    +0.520 C 
ATOM      3  N   LIG    1       -2.461   3.813   0.057  0.00  0.00    -0.640 N 
ATOM      4  H   LIG    1       -2.479   4.775   0.188  0.00  0.00    +0.430 HD
ENDROOT
BRANCH   2   5
ATOM      5  C   LIG    1       -4.914   3.866  -0.146  0.00  0.00    +0.510 C 
ATOM      6  N   LIG    1       -6.076   3.183  -0.139  0.00  0.00    -0.570 N 
ATOM      7  C   LIG    1       -6.080   1.713  -0.147  0.00  0.00    +0.280 C 
ATOM      8  C   LIG    1       -6.931   1.217   1.026  0.00  0.00    +0.030 C 
ATOM      9  C   LIG    1       -8.322   1.850   0.947  0.00  0.00    +0.040 C 
ATOM     10  C   LIG    1       -8.198   3.372   1.050  0.00  0.00    -0.030 C 
ATOM     11  C   LIG    1       -7.362   3.893  -0.117  0.00  0.00    +0.310 C 
ATOM     12  O   LIG    1       -4.923   5.078  -0.207  0.00  0.00    -0.510 OA
BRANCH  10  13
ATOM     13  C   LIG    1       -9.591   4.002   1.004  0.00  0.00    +0.460 C 
ATOM     14  F   LIG    1      -10.215   3.666  -0.203  0.00  0.00    -0.180 F 
ATOM     15  F   LIG    1       -9.478   5.393   1.098  0.00  0.00    -0.180 F 
ATOM     16  F   LIG    1      -10.356   3.523   2.073  0.00  0.00    -0.180 F 
ENDBRANCH  10  13
ENDBRANCH   2   5
BRANCH   3  17
ATOM     17  C   LIG    1       -1.240   3.137   0.011  0.00  0.00    +0.180 A 
ATOM     18  C   LIG    1       -0.140   3.640   0.695  0.00  0.00    -0.040 A 
ATOM     19  C   LIG    1        1.069   2.973   0.645  0.00  0.00    +0.090 A 
ATOM     20  C   LIG    1        1.185   1.800  -0.075  0.00  0.00    -0.090 A 
ATOM     21  C   LIG    1        0.088   1.290  -0.756  0.00  0.00    +0.150 A 
ATOM     22  C   LIG    1       -1.125   1.958  -0.713  0.00  0.00    +0.000 A 
BRANCH  21  23
ATOM     23  O   LIG    1        0.204   0.136  -1.465  0.00  0.00    -0.300 OA
BRANCH  23  24
ATOM     24  C   LIG    1        1.485  -0.499  -1.466  0.00  0.00    +0.230 C 
BRANCH  24  25
ATOM     25  C   LIG    1        1.421  -1.773  -2.310  0.00  0.00    +0.470 C 
ATOM     26  F   LIG    1        0.469  -2.644  -1.769  0.00  0.00    -0.170 F 
ATOM     27  F   LIG    1        2.675  -2.395  -2.311  0.00  0.00    -0.170 F 
ATOM     28  F   LIG    1        1.062  -1.446  -3.622  0.00  0.00    -0.170 F 
ENDBRANCH  24  25
ENDBRANCH  23  24
ENDBRANCH  21  23
ENDBRANCH   3  17
TORSDOF 6
