REMARK  Name = ZINCrD0000074Q3B.0
REMARK                            x       y       z     vdW  Elec       q    Type
REMARK                         _______ _______ _______ _____ _____    ______ ____
ROOT
ATOM      1  C   LIG    1       -0.089   1.358   0.280  0.00  0.00    +0.510 C 
ATOM      2  N   LIG    1       -1.290   1.949   0.122  0.00  0.00    -0.670 N 
ATOM      3  H   LIG    1       -1.363   2.915   0.157  0.00  0.00    +0.420 HD
ATOM      4  O   LIG    1       -0.009   0.149   0.323  0.00  0.00    -0.480 OA
ENDROOT
BRANCH   2   5
ATOM      5  C   LIG    1       -2.431   1.168  -0.090  0.00  0.00    +0.150 A 
ATOM      6  C   LIG    1       -3.443   1.629  -0.923  0.00  0.00    +0.020 A 
ATOM      7  C   LIG    1       -4.570   0.858  -1.141  0.00  0.00    +0.040 A 
ATOM      8  C   LIG    1       -4.702  -0.369  -0.523  0.00  0.00    +0.030 A 
ATOM      9  C   LIG    1       -3.694  -0.838   0.319  0.00  0.00    -0.020 A 
ATOM     10  C   LIG    1       -2.555  -0.064   0.534  0.00  0.00    +0.090 A 
BRANCH   9  11
ATOM     11  C   LIG    1       -3.833  -2.154   0.982  0.00  0.00    +0.290 A 
ATOM     12  N   LIG    1       -2.864  -2.869   1.514  0.00  0.00    -0.310 NA
ATOM     13  N   LIG    1       -3.328  -3.960   2.006  0.00  0.00    -0.040 NA
ATOM     14  N   LIG    1       -4.603  -4.025   1.831  0.00  0.00    -0.080 NA
ATOM     15  N   LIG    1       -4.984  -2.849   1.162  0.00  0.00    -0.350 N 
BRANCH  15  16
ATOM     16  C   LIG    1       -6.333  -2.458   0.746  0.00  0.00    +0.210 C 
ATOM     17  C   LIG    1       -7.483  -3.402   1.103  0.00  0.00    +0.090 C 
ATOM     18  C   LIG    1       -7.004  -3.292  -0.347  0.00  0.00    +0.060 C 
ENDBRANCH  15  16
ENDBRANCH   9  11
ENDBRANCH   2   5
BRANCH   1  19
ATOM     19  C   LIG    1        1.156   2.200   0.396  0.00  0.00    +0.240 C 
BRANCH  19  20
ATOM     20  O   LIG    1        2.294   1.350   0.548  0.00  0.00    -0.290 OA
BRANCH  20  26
ATOM     21  C   LIG    1        7.129   0.977   1.102  0.00  0.00    +0.090 C 
ATOM     22  C   LIG    1        5.882   1.808   0.938  0.00  0.00    -0.050 A 
ATOM     23  C   LIG    1        5.970   3.187   0.909  0.00  0.00    -0.030 A 
ATOM     24  C   LIG    1        4.828   3.952   0.760  0.00  0.00    +0.050 A 
ATOM     25  C   LIG    1        3.596   3.339   0.632  0.00  0.00    -0.080 A 
ATOM     26  C   LIG    1        3.505   1.955   0.667  0.00  0.00    +0.130 A 
ATOM     27  C   LIG    1        4.652   1.190   0.817  0.00  0.00    -0.110 A 
ATOM     28  C   LIG    1        4.557  -0.314   0.849  0.00  0.00    +0.100 C 
ENDBRANCH  20  26
ENDBRANCH  19  20
ENDBRANCH   1  19
TORSDOF 6
