REMARK  Name = ZINCpe000027pHdy.0
REMARK                            x       y       z     vdW  Elec       q    Type
REMARK                         _______ _______ _______ _____ _____    ______ ____
ROOT
ATOM      1  C   LIG    1       -1.929   9.494   3.738  0.00  0.00    +0.110 C 
ATOM      2  C   LIG    1       -0.678   9.196   2.871  0.00  0.00    +0.080 C 
ATOM      3  C   LIG    1       -1.020   7.796   2.302  0.00  0.00    +0.260 C 
ATOM      4  N   LIG    1       -1.712   7.101   3.402  0.00  0.00    -0.610 N 
ATOM      5  C   LIG    1       -1.793   5.764   3.559  0.00  0.00    +0.620 C 
ATOM      6  O   LIG    1       -2.305   5.299   4.560  0.00  0.00    -0.550 OA
ATOM      7  C   LIG    1       -2.304   8.105   4.297  0.00  0.00    +0.240 C 
ENDROOT
BRANCH   5   8
ATOM      8  C   LIG    1       -1.264   4.872   2.523  0.00  0.00    -0.320 A 
ATOM      9  C   LIG    1       -0.830   3.544   2.701  0.00  0.00    +0.170 A 
ATOM     10  C   LIG    1       -0.762   2.706   3.822  0.00  0.00    +0.040 A 
ATOM     11  C   LIG    1       -0.283   1.436   3.677  0.00  0.00    +0.090 A 
ATOM     12  C   LIG    1        0.132   0.997   2.412  0.00  0.00    -0.130 A 
ATOM     13  C   LIG    1        0.058   1.824   1.345  0.00  0.00    +0.140 A 
ATOM     14  C   LIG    1        0.507   1.336  -0.009  0.00  0.00    +0.150 C 
ATOM     15  C   LIG    1        0.663  -0.402   2.241  0.00  0.00    +0.130 C 
ATOM     16  N   LIG    1       -0.414   3.095   1.480  0.00  0.00    -0.260 N 
ATOM     17  N   LIG    1       -0.598   4.130   0.555  0.00  0.00    -0.320 NA
ATOM     18  C   LIG    1       -1.093   5.177   1.162  0.00  0.00    +0.320 A 
ENDBRANCH   5   8
BRANCH   1  19
ATOM     19  O   LIG    1       -2.990  10.014   2.934  0.00  0.00    -0.540 OA
ATOM     20  H   LIG    1       -3.796  10.217   3.429  0.00  0.00    +0.380 HD
ENDBRANCH   1  19
BRANCH   1  21
ATOM     21  C   LIG    1       -1.583  10.462   4.872  0.00  0.00    +0.270 C 
BRANCH  21  23
ATOM     22  C   LIG    1       -2.678  11.445   6.814  0.00  0.00    +0.550 C 
ATOM     23  N   LIG    1       -2.750  10.632   5.742  0.00  0.00    -0.730 N 
ATOM     24  H   LIG    1       -3.574  10.159   5.546  0.00  0.00    +0.400 HD
ATOM     25  O   LIG    1       -1.645  12.039   7.059  0.00  0.00    -0.540 OA
BRANCH  22  27
ATOM     26  C   LIG    1       -3.779  12.418   8.745  0.00  0.00    +0.150 C 
ATOM     27  C   LIG    1       -3.850  11.616   7.688  0.00  0.00    -0.090 C 
ENDBRANCH  22  27
ENDBRANCH  21  23
ENDBRANCH   1  21
TORSDOF 5
