REMARK  Name = ZINCpe00000MJL2x.0
REMARK                            x       y       z     vdW  Elec       q    Type
REMARK                         _______ _______ _______ _____ _____    ______ ____
ROOT
ATOM      1  N   LIG    1       -2.096   5.921   0.843  0.00  0.00    -0.730 N 
ATOM      2  H   LIG    1       -2.896   5.374   0.791  0.00  0.00    +0.400 HD
ATOM      3  C   LIG    1       -1.844   6.838  -0.113  0.00  0.00    +0.510 C 
ATOM      4  O   LIG    1       -0.845   7.522  -0.049  0.00  0.00    -0.520 OA
ENDROOT
BRANCH   1   5
ATOM      5  C   LIG    1       -1.163   5.751   1.959  0.00  0.00    +0.320 C 
BRANCH   5  11
ATOM      6  C   LIG    1       -1.478   3.342   2.560  0.00  0.00    -0.070 A 
ATOM      7  C   LIG    1       -1.949   2.352   3.402  0.00  0.00    +0.030 A 
ATOM      8  C   LIG    1       -2.607   2.693   4.569  0.00  0.00    +0.020 A 
ATOM      9  C   LIG    1       -2.801   4.024   4.889  0.00  0.00    +0.010 A 
ATOM     10  C   LIG    1       -2.334   5.013   4.045  0.00  0.00    +0.030 A 
ATOM     11  C   LIG    1       -1.672   4.672   2.880  0.00  0.00    -0.110 A 
BRANCH   6  12
ATOM     12  C   LIG    1       -0.756   2.970   1.290  0.00  0.00    +0.220 C 
BRANCH  12  14
ATOM     13  C   LIG    1       -0.013   1.086   0.008  0.00  0.00    +0.200 C 
ATOM     14  O   LIG    1       -0.682   1.547   1.184  0.00  0.00    -0.390 OA
ENDBRANCH  12  14
ENDBRANCH   6  12
ENDBRANCH   5  11
ENDBRANCH   1   5
BRANCH   3  15
ATOM     15  C   LIG    1       -2.804   7.012  -1.261  0.00  0.00    +0.200 C 
BRANCH  15  16
ATOM     16  N   LIG    1       -2.308   8.064  -2.159  0.00  0.00    -0.490 NA
ATOM     17  C   LIG    1       -0.903   7.799  -2.564  0.00  0.00    +0.190 C 
ATOM     18  C   LIG    1       -0.740   8.645  -3.851  0.00  0.00    +0.040 C 
ATOM     19  C   LIG    1       -2.116   8.496  -4.540  0.00  0.00    +0.120 C 
ATOM     20  C   LIG    1       -3.089   8.102  -3.414  0.00  0.00    +0.180 C 
BRANCH  19  21
ATOM     21  N   LIG    1       -2.525   9.771  -5.145  0.00  0.00    -0.520 NA
ATOM     22  C   LIG    1       -3.907   9.700  -5.640  0.00  0.00    +0.140 C 
ATOM     23  C   LIG    1       -4.311  11.064  -6.206  0.00  0.00    +0.220 C 
ATOM     24  O   LIG    1       -3.388  11.441  -7.231  0.00  0.00    -0.390 OA
ATOM     25  C   LIG    1       -2.032  11.521  -6.783  0.00  0.00    +0.220 C 
ATOM     26  C   LIG    1       -1.605  10.162  -6.223  0.00  0.00    +0.150 C 
ENDBRANCH  19  21
ENDBRANCH  15  16
ENDBRANCH   3  15
TORSDOF 7
