REMARK  Name = ZINCpe000000SyKV.0
REMARK                            x       y       z     vdW  Elec       q    Type
REMARK                         _______ _______ _______ _____ _____    ______ ____
ROOT
ATOM      1  N   LIG    1       -2.898   1.606   2.410  0.00  0.00    -0.730 N 
ATOM      2  H   LIG    1       -3.381   2.447   2.413  0.00  0.00    +0.400 HD
ATOM      3  C   LIG    1       -2.862   0.846   3.523  0.00  0.00    +0.500 C 
ATOM      4  O   LIG    1       -2.259  -0.206   3.519  0.00  0.00    -0.520 OA
ENDROOT
BRANCH   1  10
ATOM      5  C   LIG    1       -0.826   2.756  -3.349  0.00  0.00    +0.100 C 
ATOM      6  C   LIG    1       -0.078   2.260  -2.139  0.00  0.00    +0.510 C 
ATOM      7  N   LIG    1       -0.729   1.575  -1.178  0.00  0.00    -0.620 N 
ATOM      8  C   LIG    1       -0.013   1.086   0.008  0.00  0.00    +0.280 C 
ATOM      9  C   LIG    1       -0.736   1.583   1.264  0.00  0.00    +0.010 C 
ATOM     10  C   LIG    1       -2.208   1.161   1.197  0.00  0.00    +0.240 C 
ATOM     11  C   LIG    1       -2.869   1.797  -0.028  0.00  0.00    +0.030 C 
ATOM     12  C   LIG    1       -2.168   1.303  -1.297  0.00  0.00    +0.280 C 
ATOM     13  O   LIG    1        1.110   2.478  -2.029  0.00  0.00    -0.540 OA
ENDBRANCH   1  10
BRANCH   3  14
ATOM     14  C   LIG    1       -3.572   1.304   4.771  0.00  0.00    +0.370 C 
BRANCH  14  15
ATOM     15  N   LIG    1       -3.384   0.311   5.832  0.00  0.00    -0.420 N 
ATOM     16  N   LIG    1       -4.306  -0.728   5.961  0.00  0.00    -0.240 NA
ATOM     17  C   LIG    1       -4.207  -1.645   6.876  0.00  0.00    +0.140 A 
ATOM     18  C   LIG    1       -3.093  -1.615   7.824  0.00  0.00    -0.060 A 
ATOM     19  C   LIG    1       -2.949  -2.582   8.821  0.00  0.00    +0.040 A 
ATOM     20  C   LIG    1       -1.882  -2.509   9.689  0.00  0.00    +0.050 A 
ATOM     21  C   LIG    1       -0.949  -1.486   9.583  0.00  0.00    +0.030 A 
ATOM     22  C   LIG    1       -1.070  -0.521   8.607  0.00  0.00    +0.090 A 
ATOM     23  C   LIG    1       -2.142  -0.575   7.718  0.00  0.00    -0.120 A 
ATOM     24  C   LIG    1       -5.239  -2.740   6.960  0.00  0.00    +0.180 C 
ATOM     25  C   LIG    1       -2.320   0.422   6.654  0.00  0.00    +0.540 A 
ATOM     26  O   LIG    1       -1.524   1.334   6.519  0.00  0.00    -0.520 OA
ENDBRANCH  14  15
ENDBRANCH   3  14
TORSDOF 3
