REMARK  Name = ZINCrH00000tj0K4.0
REMARK                            x       y       z     vdW  Elec       q    Type
REMARK                         _______ _______ _______ _____ _____    ______ ____
ROOT
ATOM      1  N   LIG    1        3.494   7.672  -0.408  0.00  0.00    -0.500 NA
ENDROOT
BRANCH   1   3
ATOM      2  C   LIG    1        1.983   9.481  -1.073  0.00  0.00    +0.030 C 
ATOM      3  C   LIG    1        2.678   8.191  -1.514  0.00  0.00    +0.180 C 
ENDBRANCH   1   3
BRANCH   1   4
ATOM      4  C   LIG    1        4.685   8.505  -0.196  0.00  0.00    +0.240 C 
BRANCH   4   5
ATOM      5  C   LIG    1        5.226   8.264   1.189  0.00  0.00    +0.510 C 
ATOM      6  N   LIG    1        6.309   8.943   1.618  0.00  0.00    -0.670 N 
ATOM      7  H   LIG    1        6.696   9.639   1.063  0.00  0.00    +0.420 HD
ATOM      8  O   LIG    1        4.688   7.458   1.919  0.00  0.00    -0.490 OA
BRANCH   6   9
ATOM      9  C   LIG    1        6.875   8.644   2.863  0.00  0.00    +0.170 A 
ATOM     10  C   LIG    1        6.086   8.123   3.878  0.00  0.00    +0.050 A 
ATOM     11  C   LIG    1        6.649   7.825   5.106  0.00  0.00    -0.010 A 
ATOM     12  C   LIG    1        7.996   8.055   5.324  0.00  0.00    +0.030 A 
ATOM     13  C   LIG    1        8.784   8.580   4.316  0.00  0.00    +0.070 A 
ATOM     14 CL   LIG    1        5.664   7.167   6.375  0.00  0.00    -0.050 Cl
ATOM     15  C   LIG    1        8.227   8.875   3.086  0.00  0.00    -0.070 A 
ATOM     16 CL   LIG    1        9.217   9.534   1.821  0.00  0.00    -0.060 Cl
ENDBRANCH   6   9
ENDBRANCH   4   5
ENDBRANCH   1   4
BRANCH   1  17
ATOM     17  C   LIG    1        3.867   6.270  -0.643  0.00  0.00    +0.220 C 
BRANCH  17  18
ATOM     18  C   LIG    1        2.631   5.409  -0.611  0.00  0.00    +0.520 C 
ATOM     19  N   LIG    1        2.731   4.079  -0.803  0.00  0.00    -0.680 N 
ATOM     20  H   LIG    1        3.604   3.666  -0.890  0.00  0.00    +0.410 HD
ATOM     21  O   LIG    1        1.546   5.914  -0.413  0.00  0.00    -0.490 OA
BRANCH  19  22
ATOM     22  C   LIG    1        1.575   3.294  -0.877  0.00  0.00    +0.150 A 
ATOM     23  C   LIG    1        1.529   2.204  -1.738  0.00  0.00    +0.010 A 
ATOM     24  C   LIG    1        0.389   1.425  -1.816  0.00  0.00    +0.040 A 
ATOM     25  C   LIG    1       -0.709   1.722  -1.035  0.00  0.00    +0.050 A 
ATOM     26  C   LIG    1       -0.675   2.818  -0.170  0.00  0.00    -0.010 A 
ATOM     27  C   LIG    1        0.475   3.604  -0.092  0.00  0.00    +0.080 A 
BRANCH  26  28
ATOM     28  C   LIG    1       -1.815   3.131   0.637  0.00  0.00    +0.250 C 
ATOM     29  N   LIG    1       -2.720   3.380   1.278  0.00  0.00    -0.410 NA
ENDBRANCH  26  28
ENDBRANCH  19  22
ENDBRANCH  17  18
ENDBRANCH   1  17
TORSDOF 8
