REMARK  Name = ZINCpk00000k3GUp.0
REMARK                            x       y       z     vdW  Elec       q    Type
REMARK                         _______ _______ _______ _____ _____    ______ ____
ROOT
ATOM      1  C   LIG    1       -0.830   3.241   1.490  0.00  0.00    +0.180 C 
ATOM      2  C   LIG    1       -1.669   3.523   2.739  0.00  0.00    +0.080 C 
ATOM      3  C   LIG    1       -3.140   3.192   2.443  0.00  0.00    +0.150 C 
ATOM      4  C   LIG    1       -3.172   1.836   1.777  0.00  0.00    +0.060 A 
ATOM      5  N   LIG    1       -4.192   1.049   1.596  0.00  0.00    -0.260 NA
ATOM      6  N   LIG    1       -3.743  -0.105   0.936  0.00  0.00    -0.480 N 
ATOM      7  H   LIG    1       -4.291  -0.862   0.674  0.00  0.00    +0.450 HD
ATOM      8  C   LIG    1       -2.404   0.024   0.728  0.00  0.00    +0.210 A 
ATOM      9  C   LIG    1       -2.027   1.217   1.238  0.00  0.00    -0.040 A 
ATOM     10  N   LIG    1       -0.741   1.792   1.256  0.00  0.00    -0.420 N 
ENDROOT
BRANCH   1  11
ATOM     11  C   LIG    1        0.556   3.801   1.687  0.00  0.00    +0.460 C 
ATOM     12  O   LIG    1        1.516   3.069   1.636  0.00  0.00    -0.480 OA
BRANCH  11  14
ATOM     13  C   LIG    1        2.086   5.581   2.096  0.00  0.00    +0.280 C 
ATOM     14  O   LIG    1        0.723   5.112   1.917  0.00  0.00    -0.360 OA
ENDBRANCH  11  14
ENDBRANCH   1  11
BRANCH  10  15
ATOM     15  C   LIG    1       -0.018   1.503   0.010  0.00  0.00    +0.300 C 
BRANCH  15  16
ATOM     16  C   LIG    1       -0.662   2.250  -1.129  0.00  0.00    -0.190 A 
ATOM     17  C   LIG    1       -1.712   1.682  -1.836  0.00  0.00    +0.110 A 
ATOM     18  C   LIG    1       -2.279   2.405  -2.871  0.00  0.00    -0.030 A 
ATOM     19  C   LIG    1       -1.773   3.662  -3.174  0.00  0.00    +0.350 A 
ATOM     20  N   LIG    1       -0.766   4.168  -2.480  0.00  0.00    -0.490 NA
ATOM     21  C   LIG    1       -0.210   3.506  -1.485  0.00  0.00    +0.300 A 
BRANCH  19  22
ATOM     22  N   LIG    1       -2.332   4.400  -4.222  0.00  0.00    -0.410 N 
ATOM     23  C   LIG    1       -1.944   5.649  -4.638  0.00  0.00    +0.150 A 
ATOM     24  C   LIG    1       -2.744   5.982  -5.668  0.00  0.00    +0.150 A 
ATOM     25  N   LIG    1       -3.599   4.970  -5.880  0.00  0.00    -0.470 NA
ATOM     26  C   LIG    1       -3.359   4.015  -5.024  0.00  0.00    +0.400 A 
ENDBRANCH  19  22
ENDBRANCH  15  16
ENDBRANCH  10  15
TORSDOF 5
