REMARK  Name = ZINCpk00000k3GUp.1
REMARK                            x       y       z     vdW  Elec       q    Type
REMARK                         _______ _______ _______ _____ _____    ______ ____
ROOT
ATOM      1  C   LIG    1        0.151  -1.966   1.416  0.00  0.00    +0.220 C 
ATOM      2  C   LIG    1       -1.174  -2.529   0.893  0.00  0.00    +0.040 C 
ATOM      3  C   LIG    1       -2.268  -2.286   1.944  0.00  0.00    +0.150 C 
ATOM      4  C   LIG    1       -2.146  -0.854   2.403  0.00  0.00    +0.060 A 
ATOM      5  C   LIG    1       -1.058  -0.072   2.163  0.00  0.00    -0.060 A 
ATOM      6  C   LIG    1       -1.301   1.182   2.729  0.00  0.00    +0.250 A 
ATOM      7  N   LIG    1       -2.486   1.158   3.289  0.00  0.00    -0.280 NA
ATOM      8  N   LIG    1       -3.041  -0.116   3.098  0.00  0.00    -0.460 N 
ATOM      9  H   LIG    1       -3.910  -0.415   3.409  0.00  0.00    +0.440 HD
ATOM     10  N   LIG    1        0.087  -0.497   1.462  0.00  0.00    -0.430 N 
ENDROOT
BRANCH   1  11
ATOM     11  C   LIG    1        1.271  -2.389   0.500  0.00  0.00    +0.470 C 
ATOM     12  O   LIG    1        1.186  -3.423  -0.119  0.00  0.00    -0.500 OA
BRANCH  11  14
ATOM     13  C   LIG    1        3.400  -2.088  -0.526  0.00  0.00    +0.270 C 
ATOM     14  O   LIG    1        2.362  -1.618   0.373  0.00  0.00    -0.340 OA
ENDBRANCH  11  14
ENDBRANCH   1  11
BRANCH  10  15
ATOM     15  C   LIG    1        0.120   0.074   0.110  0.00  0.00    +0.240 C 
BRANCH  15  16
ATOM     16  C   LIG    1        0.534   1.521   0.186  0.00  0.00    -0.140 A 
ATOM     17  C   LIG    1        1.875   1.871   0.112  0.00  0.00    +0.130 A 
ATOM     18  C   LIG    1        2.212   3.212   0.185  0.00  0.00    -0.040 A 
ATOM     19  C   LIG    1        1.203   4.156   0.329  0.00  0.00    +0.350 A 
ATOM     20  N   LIG    1       -0.065   3.783   0.396  0.00  0.00    -0.500 NA
ATOM     21  C   LIG    1       -0.417   2.514   0.324  0.00  0.00    +0.310 A 
BRANCH  19  22
ATOM     22  N   LIG    1        1.530   5.513   0.404  0.00  0.00    -0.410 N 
ATOM     23  C   LIG    1        0.651   6.557   0.546  0.00  0.00    +0.160 A 
ATOM     24  C   LIG    1        1.387   7.684   0.575  0.00  0.00    +0.150 A 
ATOM     25  N   LIG    1        2.679   7.345   0.455  0.00  0.00    -0.480 NA
ATOM     26  C   LIG    1        2.779   6.048   0.357  0.00  0.00    +0.400 A 
ENDBRANCH  19  22
ENDBRANCH  15  16
ENDBRANCH  10  15
TORSDOF 5
