REMARK  Name = ZINCvU000000064Y.0
REMARK                            x       y       z     vdW  Elec       q    Type
REMARK                         _______ _______ _______ _____ _____    ______ ____
ROOT
ATOM      1  C   LIG    1        0.936   4.861   6.865  0.00  0.00    +0.120 A 
ATOM      2  C   LIG    1        2.228   5.183   6.473  0.00  0.00    +0.060 A 
ATOM      3  C   LIG    1        3.095   5.773   7.372  0.00  0.00    -0.030 A 
ATOM      4  C   LIG    1        2.677   6.035   8.669  0.00  0.00    +0.100 A 
ATOM      5  C   LIG    1        1.388   5.708   9.062  0.00  0.00    -0.070 A 
ATOM      6  C   LIG    1        0.518   5.123   8.163  0.00  0.00    +0.030 A 
ENDROOT
BRANCH   1   8
ATOM      7  C   LIG    1        0.123   4.587   4.645  0.00  0.00    +0.560 C 
ATOM      8  N   LIG    1        0.055   4.267   5.952  0.00  0.00    -0.670 N 
ATOM      9  H   LIG    1       -0.604   3.626   6.261  0.00  0.00    +0.410 HD
ATOM     10  O   LIG    1        0.882   5.460   4.271  0.00  0.00    -0.500 OA
BRANCH   7  13
ATOM     11  C   LIG    1       -1.451   3.538   1.401  0.00  0.00    -0.660 A 
ATOM     12  C   LIG    1       -0.654   4.201   2.309  0.00  0.00    +0.220 A 
ATOM     13  C   LIG    1       -0.725   3.876   3.666  0.00  0.00    -0.150 A 
ATOM     14  C   LIG    1       -1.598   2.873   4.092  0.00  0.00    +0.130 A 
ATOM     15  C   LIG    1       -2.387   2.213   3.173  0.00  0.00    +0.020 A 
ATOM     16  C   LIG    1       -2.315   2.544   1.830  0.00  0.00    +0.070 A 
ATOM     17 CL   LIG    1       -3.312   1.708   0.680  0.00  0.00    -0.030 Cl
BRANCH  11  19
ATOM     18  C   LIG    1       -0.712   2.458  -1.104  0.00  0.00    -0.240 C 
ATOM     19  S   LIG    1       -1.367   3.951  -0.310  0.00  0.00    +2.490 S 
ATOM     20  O   LIG    1       -2.720   4.163  -0.686  0.00  0.00    -0.910 OA
ATOM     21  O   LIG    1       -0.416   5.005  -0.369  0.00  0.00    -0.930 OA
ENDBRANCH  11  19
ENDBRANCH   7  13
ENDBRANCH   1   8
BRANCH   5  22
ATOM     22  C   LIG    1        0.935   5.993  10.471  0.00  0.00    +0.140 C 
BRANCH  22  23
ATOM     23  C   LIG    1        0.449   7.416  10.565  0.00  0.00    -0.080 A 
ATOM     24  C   LIG    1        1.331   8.427  10.897  0.00  0.00    +0.010 A 
ATOM     25  C   LIG    1        0.886   9.734  10.978  0.00  0.00    +0.000 A 
ATOM     26  C   LIG    1       -0.443  10.027  10.738  0.00  0.00    +0.000 A 
ATOM     27  C   LIG    1       -1.326   9.015  10.412  0.00  0.00    +0.000 A 
ATOM     28  C   LIG    1       -0.880   7.710  10.325  0.00  0.00    +0.010 A 
ENDBRANCH  22  23
ENDBRANCH   5  22
BRANCH   4  29
ATOM     29  O   LIG    1        3.533   6.612   9.555  0.00  0.00    -0.320 OA
BRANCH  29  30
ATOM     30  C   LIG    1        4.845   6.921   9.082  0.00  0.00    +0.590 C 
ATOM     31  F   LIG    1        4.755   7.815   8.010  0.00  0.00    -0.200 F 
ATOM     32  F   LIG    1        5.477   5.747   8.659  0.00  0.00    -0.200 F 
ENDBRANCH  29  30
ENDBRANCH   4  29
TORSDOF 7
