REMARK  Name = ZINCrH000004s6qZ.0
REMARK                            x       y       z     vdW  Elec       q    Type
REMARK                         _______ _______ _______ _____ _____    ______ ____
ROOT
ATOM      1  C   LIG    1        5.328   2.133  -2.284  0.00  0.00    +0.330 C 
ENDROOT
BRANCH   1   8
ATOM      2  C   LIG    1        7.681   2.922  -3.765  0.00  0.00    +0.090 C 
ATOM      3  C   LIG    1        7.042   3.884  -2.796  0.00  0.00    -0.070 A 
ATOM      4  C   LIG    1        7.578   5.146  -2.620  0.00  0.00    -0.010 A 
ATOM      5  C   LIG    1        6.996   6.026  -1.728  0.00  0.00    +0.010 A 
ATOM      6  C   LIG    1        5.874   5.647  -1.016  0.00  0.00    -0.010 A 
ATOM      7  C   LIG    1        5.334   4.387  -1.196  0.00  0.00    +0.050 A 
ATOM      8  C   LIG    1        5.916   3.507  -2.088  0.00  0.00    -0.100 A 
ENDBRANCH   1   8
BRANCH   1   9
ATOM      9  N   LIG    1        6.166   1.142  -1.605  0.00  0.00    -0.730 N 
ATOM     10  H   LIG    1        6.523   0.388  -2.100  0.00  0.00    +0.400 HD
ATOM     11  C   LIG    1        6.440   1.277  -0.292  0.00  0.00    +0.710 C 
ATOM     12  O   LIG    1        5.919   2.169   0.349  0.00  0.00    -0.590 OA
ATOM     13  N   LIG    1        7.293   0.424   0.309  0.00  0.00    -0.870 N 
ATOM     14  H   LIG    1        7.490   0.522   1.254  0.00  0.00    +0.410 HD
ATOM     15  H   LIG    1        7.709  -0.287  -0.202  0.00  0.00    +0.400 HD
ENDBRANCH   1   9
BRANCH   1  16
ATOM     16  C   LIG    1        3.915   2.095  -1.698  0.00  0.00    +0.060 C 
BRANCH  16  17
ATOM     17  C   LIG    1        3.281   0.762  -2.002  0.00  0.00    +0.530 C 
ATOM     18  N   LIG    1        2.028   0.500  -1.580  0.00  0.00    -0.620 N 
ATOM     19  C   LIG    1        1.168   1.422  -0.817  0.00  0.00    +0.250 C 
ATOM     20  C   LIG    1       -0.278   0.956  -1.117  0.00  0.00    +0.040 C 
ATOM     21  C   LIG    1       -0.104  -0.585  -1.171  0.00  0.00    +0.050 C 
ATOM     22  C   LIG    1        1.293  -0.753  -1.806  0.00  0.00    +0.270 C 
ATOM     23  O   LIG    1        3.899  -0.075  -2.626  0.00  0.00    -0.530 OA
BRANCH  22  24
ATOM     24  C   LIG    1        2.018  -1.901  -1.153  0.00  0.00    -0.080 A 
ATOM     25  C   LIG    1        2.871  -1.666  -0.092  0.00  0.00    +0.020 A 
ATOM     26  C   LIG    1        3.533  -2.721   0.509  0.00  0.00    +0.000 A 
ATOM     27  C   LIG    1        3.348  -4.009   0.044  0.00  0.00    +0.000 A 
ATOM     28  C   LIG    1        2.498  -4.243  -1.022  0.00  0.00    +0.000 A 
ATOM     29  C   LIG    1        1.833  -3.190  -1.620  0.00  0.00    -0.080 A 
ATOM     30  C   LIG    1        0.907  -3.445  -2.781  0.00  0.00    +0.090 C 
ENDBRANCH  22  24
ENDBRANCH  16  17
ENDBRANCH   1  16
TORSDOF 5
