REMARK  Name = ZINCvU00000004z3.0
REMARK                            x       y       z     vdW  Elec       q    Type
REMARK                         _______ _______ _______ _____ _____    ______ ____
ROOT
ATOM      1  C   LIG    1       -4.946   4.144  -0.221  0.00  0.00    +0.570 C 
ATOM      2  N   LIG    1       -6.088   3.431  -0.178  0.00  0.00    -0.670 N 
ATOM      3  H   LIG    1       -6.056   2.472  -0.035  0.00  0.00    +0.410 HD
ATOM      4  O   LIG    1       -4.988   5.355  -0.330  0.00  0.00    -0.520 OA
ENDROOT
BRANCH   2   5
ATOM      5  C   LIG    1       -7.321   4.074  -0.341  0.00  0.00    +0.160 A 
ATOM      6  C   LIG    1       -7.451   5.418  -0.020  0.00  0.00    +0.040 A 
ATOM      7  C   LIG    1       -8.668   6.052  -0.180  0.00  0.00    +0.030 A 
ATOM      8  C   LIG    1       -9.760   5.345  -0.663  0.00  0.00    +0.070 A 
ATOM      9  C   LIG    1       -9.630   4.001  -0.984  0.00  0.00    +0.040 A 
ATOM     10  C   LIG    1       -8.414   3.368  -0.828  0.00  0.00    -0.110 A 
ATOM     11  C   LIG    1       -8.272   1.910  -1.182  0.00  0.00    +0.090 C 
BRANCH   8  12
ATOM     12  O   LIG    1      -10.957   5.969  -0.821  0.00  0.00    -0.240 OA
BRANCH  12  13
ATOM     13  C   LIG    1      -11.102   6.810  -1.874  0.00  0.00    +0.360 A 
ATOM     14  N   LIG    1      -10.129   6.923  -2.762  0.00  0.00    -0.520 NA
ATOM     15  C   LIG    1      -10.228   7.730  -3.802  0.00  0.00    +0.340 A 
ATOM     16  C   LIG    1      -11.360   8.497  -4.008  0.00  0.00    -0.060 A 
ATOM     17  C   LIG    1      -12.410   8.418  -3.109  0.00  0.00    +0.160 A 
ATOM     18  C   LIG    1      -12.285   7.551  -2.018  0.00  0.00    -0.100 A 
BRANCH  18  19
ATOM     19  C   LIG    1      -13.344   7.427  -1.061  0.00  0.00    +0.260 C 
ATOM     20  N   LIG    1      -14.183   7.329  -0.302  0.00  0.00    -0.400 NA
ENDBRANCH  18  19
ENDBRANCH  12  13
ENDBRANCH   8  12
ENDBRANCH   2   5
BRANCH   1  24
ATOM     21  C   LIG    1       -1.197   2.166   0.023  0.00  0.00    +0.250 A 
ATOM     22  C   LIG    1       -2.376   1.427   0.062  0.00  0.00    -0.080 A 
ATOM     23  C   LIG    1       -3.592   2.065  -0.011  0.00  0.00    +0.090 A 
ATOM     24  C   LIG    1       -3.643   3.457  -0.136  0.00  0.00    -0.210 A 
ATOM     25  C   LIG    1       -2.457   4.196  -0.180  0.00  0.00    +0.140 A 
ATOM     26  C   LIG    1       -1.244   3.551  -0.101  0.00  0.00    -0.080 A 
BRANCH  21  27
ATOM     27  N   LIG    1        0.031   1.517   0.103  0.00  0.00    -0.610 N 
BRANCH  27  28
ATOM     28  C   LIG    1        0.087   0.054   0.115  0.00  0.00    +0.230 C 
ATOM     29  C   LIG    1        0.864  -0.417   1.346  0.00  0.00    +0.020 C 
ATOM     30  C   LIG    1        0.791  -0.440  -1.151  0.00  0.00    +0.020 C 
ENDBRANCH  27  28
BRANCH  27  32
ATOM     31  C   LIG    1        1.782   2.562  -1.249  0.00  0.00    +0.010 C 
ATOM     32  C   LIG    1        1.269   2.299   0.169  0.00  0.00    +0.270 C 
ENDBRANCH  27  32
ENDBRANCH  21  27
ENDBRANCH   1  24
TORSDOF 8
