REMARK  Name = ZINCpe00000RaAyg.0
REMARK                            x       y       z     vdW  Elec       q    Type
REMARK                         _______ _______ _______ _____ _____    ______ ____
ROOT
ATOM      1  C   LIG    1       -4.625   3.300   1.117  0.00  0.00    +0.230 C 
ATOM      2  C   LIG    1       -4.810   4.819   1.139  0.00  0.00    +0.010 C 
ATOM      3  C   LIG    1       -3.452   5.497   1.335  0.00  0.00    +0.020 C 
ATOM      4  C   LIG    1       -2.533   5.139   0.163  0.00  0.00    +0.290 C 
ATOM      5  N   LIG    1       -2.466   3.676   0.044  0.00  0.00    -0.570 N 
ATOM      6  C   LIG    1       -3.720   2.918  -0.064  0.00  0.00    +0.290 C 
ENDROOT
BRANCH   5   7
ATOM      7  C   LIG    1       -1.240   3.023   0.029  0.00  0.00    +0.350 A 
ATOM      8  N   LIG    1       -1.185   1.709   0.068  0.00  0.00    -0.510 NA
ATOM      9  C   LIG    1       -0.011   1.077   0.059  0.00  0.00    +0.190 A 
ATOM     10  C   LIG    1        1.157   1.749   0.000  0.00  0.00    +0.160 A 
ATOM     11  N   LIG    1        1.179   3.111  -0.047  0.00  0.00    -0.480 N 
ATOM     12  C   LIG    1        2.454   3.832  -0.110  0.00  0.00    +0.320 C 
ATOM     13  C   LIG    1        0.010   3.789  -0.035  0.00  0.00    +0.480 A 
ATOM     14  O   LIG    1       -0.006   5.008  -0.076  0.00  0.00    -0.520 OA
ENDBRANCH   5   7
BRANCH   1  16
ATOM     15  C   LIG    1       -6.697   2.412   2.043  0.00  0.00    +0.600 C 
ATOM     16  N   LIG    1       -5.930   2.651   0.961  0.00  0.00    -0.730 N 
ATOM     17  H   LIG    1       -6.241   2.394   0.079  0.00  0.00    +0.400 HD
ATOM     18  O   LIG    1       -6.306   2.735   3.148  0.00  0.00    -0.530 OA
BRANCH  15  24
ATOM     19  C   LIG    1       -8.918   1.445   2.921  0.00  0.00    +0.140 A 
ATOM     20  N   LIG    1       -9.962   0.877   2.383  0.00  0.00    -0.290 NA
ATOM     21  N   LIG    1       -9.773   0.801   0.998  0.00  0.00    -0.460 N 
ATOM     22  H   LIG    1      -10.398   0.422   0.361  0.00  0.00    +0.450 HD
ATOM     23  C   LIG    1       -8.582   1.345   0.701  0.00  0.00    +0.300 A 
ATOM     24  C   LIG    1       -8.009   1.759   1.886  0.00  0.00    -0.290 A 
BRANCH  19  25
ATOM     25  C   LIG    1       -8.718   1.719   4.389  0.00  0.00    +0.130 C 
BRANCH  25  27
ATOM     26  C   LIG    1       -9.070   3.382   6.221  0.00  0.00    +0.010 C 
ATOM     27  C   LIG    1       -9.274   3.103   4.730  0.00  0.00    +0.010 C 
ENDBRANCH  25  27
ENDBRANCH  19  25
ENDBRANCH  15  24
ENDBRANCH   1  16
TORSDOF 5
