REMARK  Name = ZINCrH000004sFE3.0
REMARK                            x       y       z     vdW  Elec       q    Type
REMARK                         _______ _______ _______ _____ _____    ______ ____
ROOT
ATOM      1  N   LIG    1        2.408   6.583   0.994  0.00  0.00    -0.630 N 
ATOM      2  H   LIG    1        2.993   6.442   1.754  0.00  0.00    +0.410 HD
ATOM      3  C   LIG    1        2.271   7.816   0.468  0.00  0.00    +0.600 C 
ATOM      4  O   LIG    1        1.467   8.012  -0.422  0.00  0.00    -0.500 OA
ENDROOT
BRANCH   1  11
ATOM      5  C   LIG    1       -0.643   6.086   1.377  0.00  0.00    +0.160 C 
ATOM      6  C   LIG    1        0.329   5.245   0.592  0.00  0.00    +0.100 A 
ATOM      7  N   LIG    1        0.038   4.154  -0.071  0.00  0.00    -0.280 NA
ATOM      8  N   LIG    1        1.211   3.668  -0.661  0.00  0.00    -0.320 N 
ATOM      9  C   LIG    1        2.225   4.516  -0.335  0.00  0.00    +0.100 A 
ATOM     10  C   LIG    1        3.665   4.387  -0.757  0.00  0.00    +0.160 C 
ATOM     11  C   LIG    1        1.701   5.500   0.441  0.00  0.00    -0.010 A 
BRANCH   8  12
ATOM     12  C   LIG    1        1.321   2.517  -1.452  0.00  0.00    +0.150 A 
ATOM     13  C   LIG    1        0.545   1.401  -1.169  0.00  0.00    +0.020 A 
ATOM     14  C   LIG    1        0.655   0.268  -1.950  0.00  0.00    +0.030 A 
ATOM     15  C   LIG    1        1.538   0.244  -3.014  0.00  0.00    +0.010 A 
ATOM     16  C   LIG    1        2.313   1.353  -3.299  0.00  0.00    +0.030 A 
ATOM     17  C   LIG    1        2.208   2.489  -2.521  0.00  0.00    +0.000 A 
ENDBRANCH   8  12
ENDBRANCH   1  11
BRANCH   3  18
ATOM     18  C   LIG    1        3.101   8.935   0.976  0.00  0.00    -0.020 A 
ATOM     19  N   LIG    1        4.004   8.877   1.925  0.00  0.00    -0.320 NA
ATOM     20  O   LIG    1        4.518   9.953   2.121  0.00  0.00    +0.130 OA
ATOM     21  C   LIG    1        4.017  10.900   1.309  0.00  0.00    +0.020 A 
ATOM     22  C   LIG    1        3.081  10.282   0.527  0.00  0.00    +0.030 A 
BRANCH  21  23
ATOM     23  C   LIG    1        4.406  12.326   1.265  0.00  0.00    -0.080 A 
ATOM     24  C   LIG    1        5.391  12.822   2.127  0.00  0.00    +0.100 A 
ATOM     25  C   LIG    1        5.718  14.164   2.046  0.00  0.00    -0.020 A 
ATOM     26  C   LIG    1        5.067  14.965   1.125  0.00  0.00    +0.280 A 
ATOM     27  N   LIG    1        4.142  14.470   0.325  0.00  0.00    -0.480 NA
ATOM     28  C   LIG    1        3.800  13.199   0.360  0.00  0.00    +0.300 A 
ENDBRANCH  21  23
ENDBRANCH   3  18
TORSDOF 4
