REMARK  Name = ZINCpe00000zhqow.0
REMARK                            x       y       z     vdW  Elec       q    Type
REMARK                         _______ _______ _______ _____ _____    ______ ____
ROOT
ATOM      1  C   LIG    1        0.361   2.460  -2.011  0.00  0.00    +0.100 C 
ATOM      2  C   LIG    1        1.717   1.916  -1.498  0.00  0.00    +0.030 C 
ATOM      3  C   LIG    1        1.429   1.634  -0.003  0.00  0.00    +0.170 C 
ATOM      4  C   LIG    1       -0.013   1.086   0.008  0.00  0.00    +0.000 C 
ATOM      5  C   LIG    1       -0.692   1.611  -1.269  0.00  0.00    +0.060 C 
ENDROOT
BRANCH   1   9
ATOM      6  C   LIG    1       -0.719   0.533  -6.506  0.00  0.00    +0.380 C 
ATOM      7  N   LIG    1       -0.219   1.440  -5.470  0.00  0.00    -0.460 N 
ATOM      8  N   LIG    1       -0.308   1.247  -4.084  0.00  0.00    -0.280 NA
ATOM      9  C   LIG    1        0.242   2.263  -3.501  0.00  0.00    +0.280 A 
ATOM     10  N   LIG    1        0.707   3.128  -4.461  0.00  0.00    -0.560 N 
ATOM     11  C   LIG    1        1.398   4.395  -4.211  0.00  0.00    +0.340 C 
ATOM     12  C   LIG    1        0.418   2.612  -5.672  0.00  0.00    +0.640 A 
ATOM     13  O   LIG    1        0.683   3.112  -6.751  0.00  0.00    -0.550 OA
ENDBRANCH   1   9
BRANCH   3  14
ATOM     14  O   LIG    1        1.511   2.841   0.758  0.00  0.00    -0.550 OA
ATOM     15  H   LIG    1        2.397   3.229   0.785  0.00  0.00    +0.380 HD
ENDBRANCH   3  14
BRANCH   4  16
ATOM     16  C   LIG    1       -0.757   1.593   1.245  0.00  0.00    +0.300 C 
BRANCH  16  17
ATOM     17  N   LIG    1       -0.163   1.004   2.448  0.00  0.00    -0.720 N 
ATOM     18  H   LIG    1        0.588   0.394   2.369  0.00  0.00    +0.400 HD
ATOM     19  C   LIG    1       -0.659   1.309   3.663  0.00  0.00    +0.550 C 
ATOM     20  O   LIG    1       -1.600   2.073   3.761  0.00  0.00    -0.520 OA
BRANCH  19  21
ATOM     21  C   LIG    1       -0.061   0.717   4.872  0.00  0.00    -0.020 C 
ATOM     22  C   LIG    1       -0.551   1.018   6.073  0.00  0.00    -0.070 C 
ATOM     23  C   LIG    1       -1.708   1.952   6.361  0.00  0.00    +0.100 C 
ATOM     24  C   LIG    1       -1.891   1.978   7.893  0.00  0.00    +0.010 C 
ATOM     25  C   LIG    1       -0.499   1.563   8.435  0.00  0.00    +0.030 C 
ATOM     26  C   LIG    1       -0.050   0.495   7.407  0.00  0.00    +0.070 C 
ATOM     27  F   LIG    1        0.984  -0.132   4.763  0.00  0.00    -0.140 F 
ENDBRANCH  19  21
ENDBRANCH  16  17
ENDBRANCH   4  16
TORSDOF 5
