REMARK  Name = ZINCrH000004ncrt.0
REMARK                            x       y       z     vdW  Elec       q    Type
REMARK                         _______ _______ _______ _____ _____    ______ ____
ROOT
ATOM      1  C   LIG    1       -2.827   0.919  -2.399  0.00  0.00    +0.510 C 
ATOM      2  N   LIG    1       -1.936   0.671  -1.419  0.00  0.00    -0.700 N 
ATOM      3  H   LIG    1       -1.942  -0.186  -0.964  0.00  0.00    +0.400 HD
ATOM      4  O   LIG    1       -2.820   1.990  -2.967  0.00  0.00    -0.520 OA
ENDROOT
BRANCH   2   5
ATOM      5  C   LIG    1       -0.959   1.695  -1.040  0.00  0.00    +0.210 C 
ATOM      6  C   LIG    1       -0.015   1.257   0.092  0.00  0.00    +0.050 C 
ATOM      7  C   LIG    1       -1.058   1.816   1.075  0.00  0.00    +0.010 C 
ATOM      8  C   LIG    1       -1.515   2.745  -0.064  0.00  0.00    +0.020 C 
BRANCH   5   9
ATOM      9  C   LIG    1       -0.244   2.289  -2.226  0.00  0.00    -0.110 A 
ATOM     10  C   LIG    1       -0.549   3.568  -2.647  0.00  0.00    +0.090 A 
ATOM     11  C   LIG    1        0.111   4.116  -3.732  0.00  0.00    -0.040 A 
ATOM     12  C   LIG    1        1.069   3.380  -4.405  0.00  0.00    +0.040 A 
ATOM     13  C   LIG    1        1.373   2.098  -3.992  0.00  0.00    -0.090 A 
ATOM     14  C   LIG    1        0.717   1.548  -2.900  0.00  0.00    +0.140 A 
BRANCH  14  15
ATOM     15  O   LIG    1        1.014   0.287  -2.491  0.00  0.00    -0.310 OA
ATOM     16  C   LIG    1        2.014  -0.417  -3.232  0.00  0.00    +0.230 C 
ENDBRANCH  14  15
ENDBRANCH   5   9
ENDBRANCH   2   5
BRANCH   1  17
ATOM     17  C   LIG    1       -3.832  -0.134  -2.788  0.00  0.00    +0.070 C 
BRANCH  17  25
ATOM     18  C   LIG    1       -7.786  -2.334  -5.023  0.00  0.00    +0.170 A 
ATOM     19  C   LIG    1       -6.529  -2.596  -5.551  0.00  0.00    -0.110 A 
ATOM     20  C   LIG    1       -5.469  -1.763  -5.244  0.00  0.00    +0.100 A 
ATOM     21  C   LIG    1       -5.662  -0.678  -4.418  0.00  0.00    -0.210 A 
ATOM     22  C   LIG    1       -6.912  -0.406  -3.877  0.00  0.00    +0.150 A 
ATOM     23  O   LIG    1       -6.875   0.693  -3.075  0.00  0.00    -0.300 OA
ATOM     24  C   LIG    1       -5.704   1.467  -3.387  0.00  0.00    +0.250 C 
ATOM     25  C   LIG    1       -4.718   0.398  -3.916  0.00  0.00    +0.050 C 
ATOM     26  C   LIG    1       -7.978  -1.245  -4.190  0.00  0.00    -0.040 A 
BRANCH  18  28
ATOM     27  C   LIG    1       -8.563  -4.254  -6.190  0.00  0.00    +0.250 C 
ATOM     28  O   LIG    1       -8.831  -3.148  -5.325  0.00  0.00    -0.310 OA
ENDBRANCH  18  28
ENDBRANCH  17  25
ENDBRANCH   1  17
TORSDOF 6
