REMARK  Name = ZINCkj00000y7K2o.0
REMARK                            x       y       z     vdW  Elec       q    Type
REMARK                         _______ _______ _______ _____ _____    ______ ____
ROOT
ATOM      1  C   LIG    1       -2.188   1.109   1.230  0.00  0.00    +0.170 C 
ATOM      2  C   LIG    1       -0.755   1.601   1.456  0.00  0.00    +0.070 C 
ATOM      3  C   LIG    1        0.124   1.128   0.295  0.00  0.00    +0.060 C 
ATOM      4  C   LIG    1       -0.464   1.635  -1.024  0.00  0.00    +0.240 C 
ATOM      5  N   LIG    1       -1.823   1.109  -1.193  0.00  0.00    -0.380 N 
ATOM      6  H   LIG    1       -1.800   0.101  -1.155  0.00  0.00    +0.420 HD
ATOM      7  C   LIG    1       -2.690   1.617  -0.123  0.00  0.00    +0.270 C 
ENDROOT
BRANCH   1   9
ATOM      8  C   LIG    1       -3.380  -1.013   1.108  0.00  0.00    +0.550 C 
ATOM      9  N   LIG    1       -2.211  -0.355   1.242  0.00  0.00    -0.730 N 
ATOM     10  H   LIG    1       -1.384  -0.852   1.346  0.00  0.00    +0.410 HD
ATOM     11  O   LIG    1       -4.403  -0.394   0.885  0.00  0.00    -0.540 OA
BRANCH   8  13
ATOM     12  C   LIG    1       -4.572  -3.127   1.099  0.00  0.00    +0.170 C 
ATOM     13  C   LIG    1       -3.418  -2.478   1.231  0.00  0.00    -0.110 C 
ENDBRANCH   8  13
ENDBRANCH   1   9
BRANCH   5  14
ATOM     14  C   LIG    1       -2.354   1.535  -2.495  0.00  0.00    +0.320 C 
BRANCH  14  15
ATOM     15  C   LIG    1       -1.542   0.906  -3.598  0.00  0.00    -0.160 A 
ATOM     16  C   LIG    1       -0.434   1.561  -4.101  0.00  0.00    +0.030 A 
ATOM     17  C   LIG    1        0.313   0.982  -5.109  0.00  0.00    +0.030 A 
ATOM     18  C   LIG    1       -0.054  -0.248  -5.622  0.00  0.00    +0.060 A 
ATOM     19  C   LIG    1       -1.165  -0.901  -5.122  0.00  0.00    +0.030 A 
ATOM     20  C   LIG    1       -1.909  -0.324  -4.110  0.00  0.00    +0.040 A 
ENDBRANCH  14  15
ENDBRANCH   5  14
BRANCH   1  21
ATOM     21  C   LIG    1       -3.092   1.643   2.344  0.00  0.00    +0.210 C 
BRANCH  21  22
ATOM     22  O   LIG    1       -2.700   1.068   3.592  0.00  0.00    -0.560 OA
ATOM     23  H   LIG    1       -3.232   1.362   4.344  0.00  0.00    +0.400 HD
ENDBRANCH  21  22
ENDBRANCH   1  21
TORSDOF 6
