REMARK  Name = ZINCkj00000y7K2o.1
REMARK                            x       y       z     vdW  Elec       q    Type
REMARK                         _______ _______ _______ _____ _____    ______ ____
ROOT
ATOM      1  C   LIG    1       -0.160   0.952  -2.504  0.00  0.00    +0.170 C 
ATOM      2  C   LIG    1        1.332   1.252  -2.330  0.00  0.00    +0.060 C 
ATOM      3  C   LIG    1        1.811   0.653  -1.005  0.00  0.00    +0.070 C 
ATOM      4  C   LIG    1        0.968   1.220   0.140  0.00  0.00    +0.250 C 
ATOM      5  N   LIG    1       -0.443   0.877  -0.071  0.00  0.00    -0.380 N 
ATOM      6  H   LIG    1       -0.537  -0.124  -0.147  0.00  0.00    +0.420 HD
ATOM      7  C   LIG    1       -0.930   1.508  -1.304  0.00  0.00    +0.270 C 
ENDROOT
BRANCH   1   9
ATOM      8  C   LIG    1       -1.926   1.415  -4.117  0.00  0.00    +0.560 C 
ATOM      9  N   LIG    1       -0.646   1.585  -3.733  0.00  0.00    -0.710 N 
ATOM     10  H   LIG    1       -0.046   2.126  -4.270  0.00  0.00    +0.420 HD
ATOM     11  O   LIG    1       -2.702   0.813  -3.400  0.00  0.00    -0.550 OA
BRANCH   8  13
ATOM     12  C   LIG    1       -3.650   1.792  -5.784  0.00  0.00    +0.170 C 
ATOM     13  C   LIG    1       -2.386   1.959  -5.405  0.00  0.00    -0.100 C 
ENDBRANCH   8  13
ENDBRANCH   1   9
BRANCH   5  14
ATOM     14  C   LIG    1       -1.238   1.357   1.067  0.00  0.00    +0.320 C 
BRANCH  14  15
ATOM     15  C   LIG    1       -0.826   0.618   2.314  0.00  0.00    -0.160 A 
ATOM     16  C   LIG    1       -1.468  -0.555   2.665  0.00  0.00    +0.040 A 
ATOM     17  C   LIG    1       -1.087  -1.236   3.807  0.00  0.00    +0.030 A 
ATOM     18  C   LIG    1       -0.072  -0.738   4.602  0.00  0.00    +0.060 A 
ATOM     19  C   LIG    1        0.566   0.438   4.253  0.00  0.00    +0.030 A 
ATOM     20  C   LIG    1        0.189   1.116   3.110  0.00  0.00    +0.030 A 
ENDBRANCH  14  15
ENDBRANCH   5  14
BRANCH   1  21
ATOM     21  C   LIG    1       -0.370  -0.561  -2.591  0.00  0.00    +0.180 C 
BRANCH  21  22
ATOM     22  O   LIG    1        0.308  -1.071  -3.741  0.00  0.00    -0.550 OA
ATOM     23  H   LIG    1        0.217  -2.026  -3.860  0.00  0.00    +0.390 HD
ENDBRANCH  21  22
ENDBRANCH   1  21
TORSDOF 6
