REMARK  Name = ZINCkj000005kvU7.1
REMARK                            x       y       z     vdW  Elec       q    Type
REMARK                         _______ _______ _______ _____ _____    ______ ____
ROOT
ATOM      1  N   LIG    1       -2.474   3.662   0.044  0.00  0.00    -0.470 NA
ATOM      2  C   LIG    1       -2.584   4.582   1.183  0.00  0.00    +0.230 C 
ATOM      3  C   LIG    1       -3.898   5.361   1.087  0.00  0.00    +0.050 C 
ATOM      4  C   LIG    1       -5.071   4.376   1.086  0.00  0.00    +0.280 C 
ATOM      5  C   LIG    1       -4.906   3.399  -0.081  0.00  0.00    +0.060 C 
ATOM      6  C   LIG    1       -3.563   2.677   0.049  0.00  0.00    +0.190 C 
ENDROOT
BRANCH   1  12
ATOM      7  C   LIG    1        2.435   3.955   0.000  0.00  0.00    +0.170 C 
ATOM      8  C   LIG    1        1.154   3.162   0.008  0.00  0.00    +0.060 C 
ATOM      9  C   LIG    1        1.179   1.774   0.000  0.00  0.00    +0.030 C 
ATOM     10  C   LIG    1       -0.013   1.076   0.008  0.00  0.00    +0.350 C 
ATOM     11  N   LIG    1       -1.169   1.711   0.017  0.00  0.00    -0.500 NA
ATOM     12  C   LIG    1       -1.234   3.034   0.029  0.00  0.00    +0.360 C 
ATOM     13  H   LIG    1       -1.991   1.197   0.018  0.00  0.00    +0.440 HD
ATOM     14  C   LIG    1       -0.073   3.800   0.022  0.00  0.00    +0.020 C 
ENDBRANCH   1  12
BRANCH   4  15
ATOM     15  N   LIG    1       -6.328   5.112   0.935  0.00  0.00    -0.990 NA
ATOM     16  C   LIG    1       -6.697   5.984  -0.190  0.00  0.00    +0.250 C 
ATOM     17  C   LIG    1       -8.229   5.983  -0.378  0.00  0.00    +0.090 C 
ATOM     18  C   LIG    1       -8.790   6.149   1.063  0.00  0.00    -0.290 C 
ATOM     19  S   LIG    1       -7.604   5.121   2.013  0.00  0.00    +2.570 S 
ATOM     20  O   LIG    1       -7.120   5.815   3.155  0.00  0.00    -0.950 OA
ATOM     21  O   LIG    1       -8.037   3.770   2.086  0.00  0.00    -0.950 OA
ENDBRANCH   4  15
TORSDOF 2
