REMARK  Name = ZINCtV000002HpXS.1
REMARK                            x       y       z     vdW  Elec       q    Type
REMARK                         _______ _______ _______ _____ _____    ______ ____
ROOT
ATOM      1  N   LIG    1       -3.467   5.270   3.079  0.00  0.00    -0.680 N 
ATOM      2  H   LIG    1       -2.768   4.598   3.087  0.00  0.00    +0.410 HD
ATOM      3  C   LIG    1       -4.591   5.064   2.364  0.00  0.00    +0.510 C 
ATOM      4  O   LIG    1       -5.496   5.870   2.412  0.00  0.00    -0.500 OA
ENDROOT
BRANCH   1   8
ATOM      5  C   LIG    1       -2.996   8.798   5.252  0.00  0.00    -0.110 A 
ATOM      6  C   LIG    1       -4.252   8.216   5.136  0.00  0.00    +0.050 A 
ATOM      7  C   LIG    1       -4.408   7.049   4.416  0.00  0.00    +0.040 A 
ATOM      8  C   LIG    1       -3.309   6.455   3.809  0.00  0.00    +0.140 A 
ATOM      9  C   LIG    1       -2.052   7.033   3.930  0.00  0.00    +0.000 A 
ATOM     10  C   LIG    1       -1.896   8.204   4.645  0.00  0.00    +0.030 A 
BRANCH   5  11
ATOM     11  S   LIG    1       -2.796  10.289   6.171  0.00  0.00    -0.000 S 
BRANCH  11  17
ATOM     12  C   LIG    1        0.957  13.070   3.814  0.00  0.00    +0.090 C 
ATOM     13  C   LIG    1        0.578  11.995   4.799  0.00  0.00    -0.100 A 
ATOM     14  C   LIG    1        1.562  11.322   5.500  0.00  0.00    +0.040 A 
ATOM     15  C   LIG    1        1.218  10.334   6.405  0.00  0.00    +0.000 A 
ATOM     16  C   LIG    1       -0.109  10.017   6.612  0.00  0.00    -0.040 A 
ATOM     17  C   LIG    1       -1.101  10.691   5.910  0.00  0.00    -0.140 A 
ATOM     18  C   LIG    1       -0.482   8.940   7.598  0.00  0.00    +0.090 C 
ATOM     19  C   LIG    1       -0.752  11.679   4.998  0.00  0.00    +0.070 A 
ENDBRANCH  11  17
ENDBRANCH   5  11
ENDBRANCH   1   8
BRANCH   3  20
ATOM     20  C   LIG    1       -4.723   3.832   1.506  0.00  0.00    +0.220 C 
BRANCH  20  21
ATOM     21  N   LIG    1       -6.030   3.841   0.835  0.00  0.00    -0.670 NA
ATOM     22  H   LIG    1       -6.155   4.687   0.299  0.00  0.00    +0.360 HD
BRANCH  21  23
ATOM     23  C   LIG    1       -6.194   2.652  -0.012  0.00  0.00    +0.190 C 
ATOM     24  C   LIG    1       -6.712   1.489   0.836  0.00  0.00    +0.050 C 
BRANCH  23  25
ATOM     25  C   LIG    1       -7.182   2.951  -1.111  0.00  0.00    -0.080 A 
ATOM     26  C   LIG    1       -6.957   2.478  -2.390  0.00  0.00    +0.020 A 
ATOM     27  C   LIG    1       -7.865   2.746  -3.397  0.00  0.00    +0.020 A 
ATOM     28  C   LIG    1       -8.999   3.488  -3.125  0.00  0.00    +0.020 A 
ATOM     29  C   LIG    1       -9.225   3.962  -1.845  0.00  0.00    -0.040 A 
ATOM     30 CL   LIG    1      -10.650   4.893  -1.502  0.00  0.00    -0.070 Cl
ATOM     31  C   LIG    1       -8.316   3.693  -0.838  0.00  0.00    +0.050 A 
ENDBRANCH  23  25
ENDBRANCH  21  23
ENDBRANCH  20  21
ENDBRANCH   3  20
TORSDOF 7
