REMARK  Name = ZINCtV000002GThG.0
REMARK                            x       y       z     vdW  Elec       q    Type
REMARK                         _______ _______ _______ _____ _____    ______ ____
ROOT
ATOM      1  C   LIG    1       -6.155   5.936   0.326  0.00  0.00    +0.200 A 
ATOM      2  N   LIG    1       -6.173   7.235   0.534  0.00  0.00    -0.450 NA
ATOM      3  C   LIG    1       -5.056   7.957   0.637  0.00  0.00    +0.130 A 
ATOM      4  C   LIG    1       -5.106   9.345   0.860  0.00  0.00    +0.050 A 
ATOM      5  C   LIG    1       -3.949  10.055   0.960  0.00  0.00    +0.030 A 
ATOM      6  C   LIG    1       -2.710   9.430   0.846  0.00  0.00    +0.020 A 
ATOM      7  C   LIG    1       -2.622   8.087   0.629  0.00  0.00    +0.060 A 
ATOM      8  C   LIG    1       -3.791   7.326   0.522  0.00  0.00    -0.070 A 
ATOM      9  C   LIG    1       -3.746   5.882   0.290  0.00  0.00    -0.070 A 
ATOM     10  C   LIG    1       -4.958   5.215   0.192  0.00  0.00    +0.020 A 
ENDROOT
BRANCH   1  15
ATOM     11  C   LIG    1      -11.159   3.114  -0.068  0.00  0.00    +0.090 C 
ATOM     12  C   LIG    1       -9.849   3.853   0.035  0.00  0.00    -0.070 A 
ATOM     13  C   LIG    1       -9.844   5.219   0.254  0.00  0.00    +0.000 A 
ATOM     14  C   LIG    1       -8.648   5.900   0.349  0.00  0.00    +0.070 A 
ATOM     15  C   LIG    1       -7.443   5.209   0.224  0.00  0.00    -0.070 A 
ATOM     16  C   LIG    1       -7.455   3.834  -0.002  0.00  0.00    +0.030 A 
ATOM     17  C   LIG    1       -8.657   3.162  -0.089  0.00  0.00    +0.010 A 
ENDBRANCH   1  15
BRANCH   9  18
ATOM     18  C   LIG    1       -2.460   5.164   0.161  0.00  0.00    +0.570 C 
ATOM     19  N   LIG    1       -2.446   3.821   0.046  0.00  0.00    -0.660 N 
ATOM     20  H   LIG    1       -3.281   3.333  -0.033  0.00  0.00    +0.410 HD
ATOM     21  O   LIG    1       -1.415   5.785   0.157  0.00  0.00    -0.500 OA
BRANCH  19  22
ATOM     22  C   LIG    1       -1.230   3.132   0.041  0.00  0.00    +0.150 A 
ATOM     23  C   LIG    1       -0.112   3.690   0.647  0.00  0.00    +0.020 A 
ATOM     24  C   LIG    1        1.089   3.006   0.641  0.00  0.00    +0.030 A 
ATOM     25  C   LIG    1        1.177   1.768   0.032  0.00  0.00    -0.010 A 
ATOM     26  C   LIG    1        0.066   1.210  -0.572  0.00  0.00    +0.040 A 
ATOM     27  C   LIG    1       -1.136   1.890  -0.574  0.00  0.00    -0.100 A 
BRANCH  27  28
ATOM     28  C   LIG    1       -2.345   1.284  -1.239  0.00  0.00    +0.010 C 
ATOM     29  C   LIG    1       -2.754   0.013  -0.491  0.00  0.00    +0.030 C 
ATOM     30  C   LIG    1       -2.009   0.937  -2.690  0.00  0.00    +0.040 C 
ENDBRANCH  27  28
ENDBRANCH  19  22
ENDBRANCH   9  18
TORSDOF 4
