REMARK  Name = ZINCrD00000F5LFM.0
REMARK                            x       y       z     vdW  Elec       q    Type
REMARK                         _______ _______ _______ _____ _____    ______ ____
ROOT
ATOM      1  C   LIG    1        3.653  -5.078  -0.186  0.00  0.00    +0.270 C 
ATOM      2  C   LIG    1        2.323  -4.293  -0.043  0.00  0.00    -0.030 C 
ATOM      3  C   LIG    1        1.792  -4.763   1.334  0.00  0.00    +0.020 C 
ATOM      4  C   LIG    1        2.165  -6.261   1.394  0.00  0.00    +0.040 C 
ATOM      5  C   LIG    1        3.343  -6.449   0.433  0.00  0.00    -0.090 C 
ATOM      6  C   LIG    1        4.551  -7.188   1.012  0.00  0.00    +0.030 C 
ATOM      7  C   LIG    1        3.918  -8.479   0.463  0.00  0.00    +0.010 C 
ATOM      8  C   LIG    1        3.195  -7.595  -0.570  0.00  0.00    +0.030 C 
ENDROOT
BRANCH   1  10
ATOM      9  C   LIG    1        5.439  -3.428  -0.032  0.00  0.00    +0.560 C 
ATOM     10  N   LIG    1        4.726  -4.410   0.554  0.00  0.00    -0.720 N 
ATOM     11  H   LIG    1        4.923  -4.675   1.466  0.00  0.00    +0.400 HD
ATOM     12  O   LIG    1        5.192  -3.096  -1.175  0.00  0.00    -0.520 OA
BRANCH   9  17
ATOM     13  C   LIG    1        8.278  -1.112   0.820  0.00  0.00    -0.100 A 
ATOM     14  C   LIG    1        8.554  -1.497   2.127  0.00  0.00    +0.020 A 
ATOM     15  C   LIG    1        7.820  -2.504   2.725  0.00  0.00    +0.030 A 
ATOM     16  C   LIG    1        6.808  -3.134   2.029  0.00  0.00    +0.040 A 
ATOM     17  C   LIG    1        6.523  -2.754   0.716  0.00  0.00    -0.110 A 
ATOM     18  C   LIG    1        7.266  -1.742   0.110  0.00  0.00    +0.110 A 
BRANCH  13  19
ATOM     19  S   LIG    1        9.217   0.172   0.062  0.00  0.00    -0.080 S 
BRANCH  19  20
ATOM     20  C   LIG    1       10.384   0.648   1.367  0.00  0.00    +0.220 C 
BRANCH  20  22
ATOM     21  C   LIG    1       11.947   2.594   0.486  0.00  0.00    +0.080 C 
ATOM     22  C   LIG    1       11.254   1.730   0.877  0.00  0.00    -0.200 C 
ENDBRANCH  20  22
ENDBRANCH  19  20
ENDBRANCH  13  19
ENDBRANCH   9  17
ENDBRANCH   1  10
BRANCH   2  23
ATOM     23  C   LIG    1        2.583  -2.785  -0.038  0.00  0.00    +0.270 C 
BRANCH  23  24
ATOM     24  N   LIG    1        1.304  -2.070  -0.021  0.00  0.00    -0.730 N 
ATOM     25  H   LIG    1        0.471  -2.566  -0.016  0.00  0.00    +0.400 HD
ATOM     26  C   LIG    1        1.286  -0.722  -0.014  0.00  0.00    +0.540 C 
ATOM     27  O   LIG    1        2.331  -0.100  -0.021  0.00  0.00    -0.540 OA
BRANCH  26  28
ATOM     28  C   LIG    1        0.002  -0.004   0.002  0.00  0.00    -0.090 C 
ATOM     29  C   LIG    1       -0.016   1.326   0.009  0.00  0.00    +0.140 C 
ENDBRANCH  26  28
ENDBRANCH  23  24
ENDBRANCH   2  23
TORSDOF 8
