REMARK  Name = ZINCrH000004kboB.0
REMARK                            x       y       z     vdW  Elec       q    Type
REMARK                         _______ _______ _______ _____ _____    ______ ____
ROOT
ATOM      1  N   LIG    1        7.878   3.048  -0.057  0.00  0.00    -0.710 N 
ATOM      2  H   LIG    1        8.511   2.312  -0.066  0.00  0.00    +0.410 HD
ATOM      3  C   LIG    1        6.554   2.797  -0.046  0.00  0.00    +0.610 C 
ATOM      4  O   LIG    1        5.760   3.720  -0.036  0.00  0.00    -0.510 OA
ENDROOT
BRANCH   1  14
ATOM      5  C   LIG    1       11.484   6.052  -1.330  0.00  0.00    +0.200 C 
ATOM      6  N   LIG    1       10.316   5.824  -0.468  0.00  0.00    -0.530 NA
ATOM      7  C   LIG    1       10.663   6.010   0.945  0.00  0.00    +0.230 C 
ATOM      8  C   LIG    1        9.486   5.677   1.824  0.00  0.00    -0.070 A 
ATOM      9  C   LIG    1        9.492   6.130   3.135  0.00  0.00    +0.000 A 
ATOM     10  C   LIG    1        8.436   5.846   3.977  0.00  0.00    +0.010 A 
ATOM     11  C   LIG    1        7.365   5.105   3.513  0.00  0.00    +0.000 A 
ATOM     12  C   LIG    1        7.357   4.654   2.208  0.00  0.00    +0.030 A 
ATOM     13  C   LIG    1        8.419   4.940   1.361  0.00  0.00    -0.090 A 
ATOM     14  C   LIG    1        8.362   4.430  -0.056  0.00  0.00    +0.300 C 
ATOM     15  C   LIG    1        9.756   4.480  -0.683  0.00  0.00    +0.190 C 
ENDBRANCH   1  14
BRANCH   3  16
ATOM     16  C   LIG    1        6.069   1.413  -0.047  0.00  0.00    -0.080 A 
ATOM     17  C   LIG    1        4.761   1.021  -0.037  0.00  0.00    -0.080 A 
ATOM     18  C   LIG    1        4.761  -0.383  -0.038  0.00  0.00    -0.040 A 
ATOM     19  C   LIG    1        6.052  -0.781  -0.057  0.00  0.00    +0.220 A 
ATOM     20  O   LIG    1        6.837   0.304  -0.059  0.00  0.00    -0.160 OA
BRANCH  17  21
ATOM     21  C   LIG    1        3.553   1.921  -0.021  0.00  0.00    +0.310 C 
BRANCH  21  22
ATOM     22  O   LIG    1        2.366   1.125  -0.014  0.00  0.00    -0.310 OA
BRANCH  22  23
ATOM     23  C   LIG    1        1.179   1.786   0.000  0.00  0.00    +0.130 A 
ATOM     24  C   LIG    1       -0.013   1.076   0.008  0.00  0.00    -0.020 A 
ATOM     25  C   LIG    1       -1.218   1.751   0.017  0.00  0.00    +0.050 A 
ATOM     26  C   LIG    1       -1.237   3.133   0.030  0.00  0.00    -0.040 A 
ATOM     27  C   LIG    1       -0.051   3.844   0.023  0.00  0.00    +0.050 A 
ATOM     28  C   LIG    1        1.157   3.174   0.008  0.00  0.00    -0.080 A 
ENDBRANCH  22  23
ENDBRANCH  21  22
ENDBRANCH  17  21
ENDBRANCH   3  16
TORSDOF 5
