REMARK  Name = ZINCrH000004nMZi.0
REMARK                            x       y       z     vdW  Elec       q    Type
REMARK                         _______ _______ _______ _____ _____    ______ ____
ROOT
ATOM      1  C   LIG    1       -0.968   1.387   0.441  0.00  0.00    +0.560 C 
ATOM      2  N   LIG    1       -1.091   0.075   0.725  0.00  0.00    -0.720 N 
ATOM      3  H   LIG    1       -0.301  -0.456   0.912  0.00  0.00    +0.400 HD
ATOM      4  O   LIG    1       -1.957   2.053   0.206  0.00  0.00    -0.520 OA
ENDROOT
BRANCH   1   7
ATOM      5  C   LIG    1        1.756   3.957   0.097  0.00  0.00    +0.160 A 
ATOM      6  C   LIG    1        0.498   3.375   0.125  0.00  0.00    +0.070 A 
ATOM      7  C   LIG    1        0.369   2.016   0.414  0.00  0.00    -0.100 A 
ATOM      8  C   LIG    1        1.507   1.253   0.683  0.00  0.00    +0.050 A 
ATOM      9  C   LIG    1        2.755   1.840   0.652  0.00  0.00    +0.060 A 
ATOM     10  C   LIG    1        2.884   3.186   0.361  0.00  0.00    -0.040 A 
ATOM     11 CL   LIG    1        4.458   3.917   0.325  0.00  0.00    -0.050 Cl
BRANCH   5  12
ATOM     12  N   LIG    1        1.890   5.316  -0.198  0.00  0.00    -1.050 N 
ATOM     13  H   LIG    1        2.654   5.629  -0.707  0.00  0.00    +0.430 HD
BRANCH  12  15
ATOM     14  C   LIG    1        0.726   6.197   2.126  0.00  0.00    -0.270 C 
ATOM     15  S   LIG    1        0.746   6.394   0.323  0.00  0.00    +2.600 S 
ATOM     16  O   LIG    1       -0.467   5.918  -0.244  0.00  0.00    -0.940 OA
ATOM     17  O   LIG    1        1.272   7.664  -0.034  0.00  0.00    -0.940 OA
ENDBRANCH  12  15
ENDBRANCH   5  12
ENDBRANCH   1   7
BRANCH   2  18
ATOM     18  C   LIG    1       -2.416  -0.548   0.751  0.00  0.00    +0.310 C 
BRANCH  18  19
ATOM     19  C   LIG    1       -2.288  -1.999   1.220  0.00  0.00    -0.060 C 
ATOM     20  C   LIG    1       -3.558  -2.541   1.897  0.00  0.00    +0.050 C 
ATOM     21  C   LIG    1       -2.984  -2.008   3.221  0.00  0.00    +0.010 C 
ATOM     22  C   LIG    1       -1.592  -2.147   2.583  0.00  0.00    +0.020 C 
BRANCH  19  23
ATOM     23  C   LIG    1       -1.733  -2.910   0.156  0.00  0.00    -0.080 A 
ATOM     24  C   LIG    1       -0.613  -3.676   0.418  0.00  0.00    +0.050 A 
ATOM     25  C   LIG    1       -0.106  -4.516  -0.555  0.00  0.00    -0.010 A 
ATOM     26  C   LIG    1       -0.714  -4.582  -1.797  0.00  0.00    +0.100 A 
ATOM     27  C   LIG    1       -1.833  -3.810  -2.061  0.00  0.00    -0.010 A 
ATOM     28  F   LIG    1       -0.216  -5.399  -2.751  0.00  0.00    -0.140 F 
ATOM     29  C   LIG    1       -2.341  -2.975  -1.084  0.00  0.00    +0.050 A 
ENDBRANCH  19  23
ENDBRANCH  18  19
ENDBRANCH   2  18
TORSDOF 6
