REMARK  Name = ZINCpe000000Yk3V.0
REMARK                            x       y       z     vdW  Elec       q    Type
REMARK                         _______ _______ _______ _____ _____    ______ ____
ROOT
ATOM      1  C   LIG    1       -2.753   0.104   0.016  0.00  0.00    +0.520 C 
ATOM      2  N   LIG    1       -2.493   1.426   0.021  0.00  0.00    -0.640 N 
ATOM      3  H   LIG    1       -3.223   2.064   0.027  0.00  0.00    +0.410 HD
ATOM      4  O   LIG    1       -1.839  -0.694   0.008  0.00  0.00    -0.520 OA
ENDROOT
BRANCH   1  11
ATOM      5  C   LIG    1       -9.645  -1.094  -2.374  0.00  0.00    +0.350 C 
ATOM      6  N   LIG    1       -8.306  -1.117  -1.782  0.00  0.00    -0.380 N 
ATOM      7  C   LIG    1       -7.838  -2.040  -0.911  0.00  0.00    +0.230 A 
ATOM      8  C   LIG    1       -6.569  -1.708  -0.608  0.00  0.00    -0.240 A 
ATOM      9  C   LIG    1       -5.611  -2.418   0.316  0.00  0.00    +0.110 C 
ATOM     10  C   LIG    1       -4.194  -1.914   0.016  0.00  0.00    +0.050 C 
ATOM     11  C   LIG    1       -4.179  -0.384   0.020  0.00  0.00    +0.010 C 
ATOM     12  C   LIG    1       -4.902   0.144  -1.226  0.00  0.00    +0.150 C 
ATOM     13  C   LIG    1       -6.245  -0.538  -1.316  0.00  0.00    +0.080 A 
ATOM     14  N   LIG    1       -7.283  -0.186  -2.018  0.00  0.00    -0.290 NA
ENDBRANCH   1  11
BRANCH   2  15
ATOM     15  C   LIG    1       -1.161   1.881   0.017  0.00  0.00    +0.010 A 
ATOM     16  C   LIG    1       -0.759   3.178   0.025  0.00  0.00    +0.190 A 
ATOM     17  N   LIG    1        0.599   3.186   0.013  0.00  0.00    -0.370 N 
ATOM     18  N   LIG    1        1.038   1.856   0.002  0.00  0.00    -0.280 NA
ATOM     19  C   LIG    1       -0.013   1.076   0.008  0.00  0.00    +0.270 A 
BRANCH  17  20
ATOM     20  C   LIG    1        1.454   4.376   0.010  0.00  0.00    +0.280 C 
ATOM     21  C   LIG    1        1.649   4.873   1.447  0.00  0.00    +0.030 C 
ATOM     22  C   LIG    1        2.687   5.998   1.434  0.00  0.00    +0.090 C 
ATOM     23  C   LIG    1        2.343   6.998   0.367  0.00  0.00    +0.520 C 
ATOM     24  N   LIG    1        1.506   6.742  -0.639  0.00  0.00    -0.720 N 
ATOM     25  H   LIG    1        1.366   7.437  -1.301  0.00  0.00    +0.410 HD
ATOM     26  O   LIG    1        2.853   8.097   0.425  0.00  0.00    -0.550 OA
ATOM     27  C   LIG    1        0.788   5.485  -0.805  0.00  0.00    +0.270 C 
ENDBRANCH  17  20
ENDBRANCH   2  15
TORSDOF 3
