REMARK  Name = ZINCrH000004tZdG.0
REMARK                            x       y       z     vdW  Elec       q    Type
REMARK                         _______ _______ _______ _____ _____    ______ ____
ROOT
ATOM      1  O   LIG    1       -3.626   3.329   0.139  0.00  0.00    -0.500 OA
ATOM      2  C   LIG    1       -3.612   2.116   0.132  0.00  0.00    +0.500 C 
ATOM      3  N   LIG    1       -2.442   1.457   0.021  0.00  0.00    -0.660 N 
ATOM      4  H   LIG    1       -2.435   0.489  -0.050  0.00  0.00    +0.410 HD
ENDROOT
BRANCH   3   5
ATOM      5  C   LIG    1       -1.238   2.166   0.009  0.00  0.00    +0.160 A 
ATOM      6  C   LIG    1       -1.173   3.416  -0.589  0.00  0.00    +0.020 A 
ATOM      7  C   LIG    1        0.020   4.114  -0.605  0.00  0.00    +0.030 A 
ATOM      8  C   LIG    1        1.153   3.575  -0.020  0.00  0.00    +0.000 A 
ATOM      9  C   LIG    1        1.101   2.334   0.584  0.00  0.00    +0.040 A 
ATOM     10  C   LIG    1       -0.095   1.621   0.606  0.00  0.00    -0.070 A 
BRANCH  10  11
ATOM     11  C   LIG    1       -0.156   0.289   1.254  0.00  0.00    -0.050 A 
ATOM     12  C   LIG    1       -1.156   0.008   2.183  0.00  0.00    +0.010 A 
ATOM     13  C   LIG    1       -1.210  -1.236   2.780  0.00  0.00    +0.000 A 
ATOM     14  C   LIG    1       -0.269  -2.199   2.464  0.00  0.00    +0.000 A 
ATOM     15  C   LIG    1        0.728  -1.924   1.546  0.00  0.00    +0.010 A 
ATOM     16  C   LIG    1        0.789  -0.686   0.940  0.00  0.00    +0.030 A 
ENDBRANCH  10  11
ENDBRANCH   3   5
BRANCH   2  17
ATOM     17  C   LIG    1       -4.903   1.347   0.248  0.00  0.00    +0.350 C 
BRANCH  17  18
ATOM     18  N   LIG    1       -6.023   2.285   0.355  0.00  0.00    -0.500 N 
ATOM     19  C   LIG    1       -6.654   2.730  -0.753  0.00  0.00    +0.500 A 
ATOM     20  C   LIG    1       -7.772   3.669  -0.612  0.00  0.00    +0.300 A 
ATOM     21  N   LIG    1       -8.150   4.066   0.569  0.00  0.00    -0.400 NA
ATOM     22  C   LIG    1       -7.528   3.629   1.681  0.00  0.00    +0.020 A 
ATOM     23  C   LIG    1       -7.951   4.071   2.944  0.00  0.00    +0.120 A 
ATOM     24  C   LIG    1       -7.319   3.627   4.069  0.00  0.00    +0.000 A 
ATOM     25  C   LIG    1       -6.255   2.739   3.979  0.00  0.00    +0.090 A 
ATOM     26  C   LIG    1       -5.820   2.290   2.751  0.00  0.00    -0.030 A 
ATOM     27  O   LIG    1       -6.299   2.356  -1.857  0.00  0.00    -0.510 OA
ATOM     28  C   LIG    1       -6.453   2.724   1.591  0.00  0.00    +0.160 A 
ENDBRANCH  17  18
ENDBRANCH   2  17
TORSDOF 4
