REMARK  Name = ZINCtV00000L6jo9.0
REMARK                            x       y       z     vdW  Elec       q    Type
REMARK                         _______ _______ _______ _____ _____    ______ ____
ROOT
ATOM      1  C   LIG    1       -2.278  -4.689   0.008  0.00  0.00    -0.110 A 
ATOM      2  C   LIG    1       -2.290  -3.995   1.220  0.00  0.00    +0.090 A 
ATOM      3  C   LIG    1       -2.156  -2.623   1.226  0.00  0.00    +0.030 A 
ATOM      4  C   LIG    1       -2.010  -1.933   0.036  0.00  0.00    -0.040 A 
ATOM      5  C   LIG    1       -2.004  -2.613  -1.169  0.00  0.00    +0.030 A 
ATOM      6  C   LIG    1       -2.131  -3.986  -1.190  0.00  0.00    +0.080 A 
ENDROOT
BRANCH   1   7
ATOM      7  C   LIG    1       -2.422  -6.159  -0.007  0.00  0.00    +0.510 C 
ATOM      8  O   LIG    1       -2.550  -6.768   1.036  0.00  0.00    -0.480 OA
BRANCH   7   9
ATOM      9  O   LIG    1       -2.410  -6.825  -1.178  0.00  0.00    -0.280 OA
BRANCH   9  14
ATOM     10  C   LIG    1       -7.249  -8.012  -0.863  0.00  0.00    +0.130 C 
ATOM     11  C   LIG    1       -5.976  -8.817  -0.896  0.00  0.00    +0.170 A 
ATOM     12  N   LIG    1       -4.827  -8.191  -0.987  0.00  0.00    -0.470 NA
ATOM     13  C   LIG    1       -3.672  -8.860  -1.014  0.00  0.00    +0.130 A 
ATOM     14  C   LIG    1       -2.439  -8.182  -1.117  0.00  0.00    +0.100 A 
ATOM     15  C   LIG    1       -1.275  -8.896  -1.148  0.00  0.00    +0.040 A 
ATOM     16  C   LIG    1       -1.286 -10.287  -1.085  0.00  0.00    +0.030 A 
ATOM     17  C   LIG    1       -2.457 -10.975  -0.990  0.00  0.00    +0.060 A 
ATOM     18  C   LIG    1       -3.675 -10.276  -0.956  0.00  0.00    -0.100 A 
ATOM     19  C   LIG    1       -4.906 -10.952  -0.859  0.00  0.00    +0.100 A 
ATOM     20  C   LIG    1       -6.050 -10.207  -0.830  0.00  0.00    -0.030 A 
ENDBRANCH   9  14
ENDBRANCH   7   9
ENDBRANCH   1   7
BRANCH   4  21
ATOM     21  C   LIG    1       -1.865  -0.433   0.051  0.00  0.00    +0.120 C 
BRANCH  21  22
ATOM     22  S   LIG    1       -0.108   0.003   0.169  0.00  0.00    -0.080 S 
BRANCH  22  23
ATOM     23  C   LIG    1       -0.136   1.765   0.173  0.00  0.00    -0.090 A 
ATOM     24  C   LIG    1       -1.347   2.442   0.090  0.00  0.00    +0.010 A 
ATOM     25  C   LIG    1       -1.366   3.823   0.100  0.00  0.00    +0.050 A 
ATOM     26  C   LIG    1       -0.181   4.532   0.181  0.00  0.00    -0.040 A 
ATOM     27  C   LIG    1        1.027   3.861   0.258  0.00  0.00    +0.050 A 
ATOM     28 CL   LIG    1       -0.209   6.268   0.186  0.00  0.00    -0.060 Cl
ATOM     29  C   LIG    1        1.052   2.480   0.254  0.00  0.00    +0.050 A 
ENDBRANCH  22  23
ENDBRANCH  21  22
ENDBRANCH   4  21
TORSDOF 6
