REMARK  Name = ZINCpe00000gN4Mi.0
REMARK                            x       y       z     vdW  Elec       q    Type
REMARK                         _______ _______ _______ _____ _____    ______ ____
ROOT
ATOM      1  C   LIG    1        2.803   8.154   3.502  0.00  0.00    -0.200 A 
ATOM      2  C   LIG    1        3.959   7.561   3.968  0.00  0.00    +0.430 A 
ATOM      3  N   LIG    1        4.657   6.730   3.148  0.00  0.00    -0.490 N 
ATOM      4  C   LIG    1        4.247   6.473   1.896  0.00  0.00    +0.700 A 
ATOM      5  N   LIG    1        3.131   7.019   1.383  0.00  0.00    -0.550 N 
ATOM      6  O   LIG    1        4.907   5.723   1.203  0.00  0.00    -0.500 OA
ATOM      7  C   LIG    1        2.379   7.859   2.124  0.00  0.00    +0.570 A 
ATOM      8  O   LIG    1        1.370   8.360   1.663  0.00  0.00    -0.480 OA
ENDROOT
BRANCH   3   9
ATOM      9  C   LIG    1        5.884   6.100   3.644  0.00  0.00    +0.220 C 
ATOM     10  C   LIG    1        6.205   6.253   5.132  0.00  0.00    +0.050 C 
ATOM     11  C   LIG    1        7.021   7.022   4.089  0.00  0.00    +0.060 C 
ENDBRANCH   3   9
BRANCH   1  13
ATOM     12  N   LIG    1        1.435   9.734   4.995  0.00  0.00    -0.400 NA
ATOM     13  C   LIG    1        2.040   9.035   4.335  0.00  0.00    +0.280 C 
ENDBRANCH   1  13
BRANCH   5  14
ATOM     14  C   LIG    1        2.732   6.703   0.010  0.00  0.00    +0.460 C 
BRANCH  14  15
ATOM     15  C   LIG    1        1.837   5.490   0.013  0.00  0.00    -0.030 A 
ATOM     16  N   LIG    1        2.211   4.230   0.003  0.00  0.00    -0.250 NA
ATOM     17  N   LIG    1        1.161   3.488   0.009  0.00  0.00    -0.100 N 
ATOM     18  N   LIG    1        0.095   4.207   0.017  0.00  0.00    -0.290 NA
ATOM     19  C   LIG    1        0.440   5.474   0.025  0.00  0.00    +0.220 A 
BRANCH  17  20
ATOM     20  C   LIG    1        1.177   2.086   0.002  0.00  0.00    +0.140 A 
ATOM     21  C   LIG    1       -0.017   1.377   0.010  0.00  0.00    +0.040 A 
ATOM     22  C   LIG    1        0.002  -0.004   0.002  0.00  0.00    +0.040 A 
ATOM     23  C   LIG    1        1.208  -0.680  -0.013  0.00  0.00    +0.020 A 
ATOM     24  C   LIG    1        2.398   0.023  -0.021  0.00  0.00    +0.040 A 
ATOM     25  C   LIG    1        2.386   1.404  -0.014  0.00  0.00    +0.040 A 
ENDBRANCH  17  20
ENDBRANCH  14  15
ENDBRANCH   5  14
TORSDOF 5
