REMARK  Name = ZINCvU00000005yE.0
REMARK                            x       y       z     vdW  Elec       q    Type
REMARK                         _______ _______ _______ _____ _____    ______ ____
ROOT
ATOM      1  C   LIG    1       -3.792   5.376   0.081  0.00  0.00    +0.230 A 
ATOM      2  N   LIG    1       -2.503   5.480  -0.109  0.00  0.00    -0.280 NA
ATOM      3  N   LIG    1       -2.317   5.824  -1.458  0.00  0.00    -0.320 N 
ATOM      4  C   LIG    1       -3.548   5.911  -1.999  0.00  0.00    +0.290 A 
ATOM      5  N   LIG    1       -4.422   5.634  -1.065  0.00  0.00    -0.510 NA
ENDROOT
BRANCH   3   6
ATOM      6  C   LIG    1       -1.095   6.041  -2.110  0.00  0.00    +0.140 A 
ATOM      7  C   LIG    1       -0.901   7.195  -2.857  0.00  0.00    +0.020 A 
ATOM      8  C   LIG    1        0.305   7.406  -3.498  0.00  0.00    +0.040 A 
ATOM      9  C   LIG    1        1.317   6.470  -3.395  0.00  0.00    +0.030 A 
ATOM     10  C   LIG    1        1.128   5.322  -2.647  0.00  0.00    +0.030 A 
ATOM     11  C   LIG    1       -0.076   5.103  -2.008  0.00  0.00    -0.050 A 
BRANCH  11  12
ATOM     12  C   LIG    1       -0.283   3.850  -1.197  0.00  0.00    +0.130 C 
BRANCH  12  13
ATOM     13  C   LIG    1       -0.924   2.793  -2.059  0.00  0.00    -0.080 A 
ATOM     14  C   LIG    1       -0.141   1.999  -2.875  0.00  0.00    +0.010 A 
ATOM     15  C   LIG    1       -0.729   1.030  -3.667  0.00  0.00    +0.000 A 
ATOM     16  C   LIG    1       -2.100   0.855  -3.641  0.00  0.00    +0.000 A 
ATOM     17  C   LIG    1       -2.884   1.653  -2.829  0.00  0.00    +0.000 A 
ATOM     18  C   LIG    1       -2.295   2.619  -2.034  0.00  0.00    +0.000 A 
ENDBRANCH  12  13
ENDBRANCH  11  12
ENDBRANCH   3   6
BRANCH   1  19
ATOM     19  C   LIG    1       -4.459   5.021   1.385  0.00  0.00    +0.320 C 
BRANCH  19  20
ATOM     20  O   LIG    1       -4.728   6.215   2.123  0.00  0.00    -0.380 OA
BRANCH  20  22
ATOM     21  C   LIG    1       -4.298   5.808   4.466  0.00  0.00    +0.010 C 
ATOM     22  C   LIG    1       -5.363   5.989   3.383  0.00  0.00    +0.140 C 
ATOM     23  C   LIG    1       -6.245   7.189   3.732  0.00  0.00    +0.040 C 
ENDBRANCH  20  22
ENDBRANCH  19  20
ENDBRANCH   1  19
BRANCH   4  24
ATOM     24  C   LIG    1       -3.863   6.261  -3.430  0.00  0.00    +0.170 C 
BRANCH  24  25
ATOM     25  C   LIG    1       -3.787   5.000  -4.293  0.00  0.00    +0.170 C 
BRANCH  25  26
ATOM     26  C   LIG    1       -4.102   5.351  -5.724  0.00  0.00    -0.010 A 
ATOM     27  C   LIG    1       -3.220   5.729  -6.679  0.00  0.00    -0.030 A 
ATOM     28  C   LIG    1       -4.024   5.937  -7.825  0.00  0.00    +0.060 A 
ATOM     29  N   LIG    1       -5.248   5.676  -7.466  0.00  0.00    -0.340 NA
ATOM     30 CL   LIG    1       -3.485   6.439  -9.397  0.00  0.00    +0.030 Cl
ATOM     31  O   LIG    1       -5.310   5.343  -6.305  0.00  0.00    +0.130 OA
ENDBRANCH  25  26
ENDBRANCH  24  25
ENDBRANCH   4  24
TORSDOF 9
