REMARK  Name = ZINCqH0000003pKx.0
REMARK                            x       y       z     vdW  Elec       q    Type
REMARK                         _______ _______ _______ _____ _____    ______ ____
ROOT
ATOM      1  C   LIG    1        2.386   0.012  -0.019  0.00  0.00    -0.240 A 
ATOM      2  C   LIG    1        2.324   1.408  -0.007  0.00  0.00    +0.070 A 
ATOM      3  C   LIG    1        3.608   2.188   0.000  0.00  0.00    +0.120 C 
ATOM      4  C   LIG    1        3.355   3.637  -0.414  0.00  0.00    +0.020 C 
ATOM      5  C   LIG    1        2.205   4.191   0.434  0.00  0.00    +0.030 C 
ATOM      6  C   LIG    1        0.907   3.513  -0.000  0.00  0.00    +0.130 C 
ATOM      7  C   LIG    1        1.070   2.015   0.003  0.00  0.00    +0.050 A 
ATOM      8  N   LIG    1       -0.015   1.276   0.009  0.00  0.00    -0.190 NA
ATOM      9  N   LIG    1        0.002  -0.004   0.002  0.00  0.00    -0.330 N 
ATOM     10  C   LIG    1        1.155  -0.701  -0.015  0.00  0.00    +0.500 A 
ATOM     11  O   LIG    1        1.143  -1.920  -0.026  0.00  0.00    -0.500 OA
ENDROOT
BRANCH   1  12
ATOM     12  C   LIG    1        3.678  -0.694  -0.034  0.00  0.00    +0.530 C 
ATOM     13  O   LIG    1        4.716  -0.063  -0.037  0.00  0.00    -0.500 OA
BRANCH  12  14
ATOM     14  O   LIG    1        3.708  -2.042  -0.044  0.00  0.00    -0.330 OA
BRANCH  14  16
ATOM     15  C   LIG    1        4.851  -4.192  -0.069  0.00  0.00    +0.070 C 
ATOM     16  C   LIG    1        5.017  -2.671  -0.059  0.00  0.00    +0.200 C 
ENDBRANCH  14  16
ENDBRANCH  12  14
ENDBRANCH   1  12
BRANCH   9  17
ATOM     17  C   LIG    1       -1.269  -0.732   0.012  0.00  0.00    +0.390 C 
BRANCH  17  18
ATOM     18  C   LIG    1       -1.689  -0.990   1.436  0.00  0.00    -0.120 A 
ATOM     19  C   LIG    1       -1.290  -2.150   2.074  0.00  0.00    +0.080 A 
ATOM     20  C   LIG    1       -1.669  -2.387   3.381  0.00  0.00    +0.010 A 
ATOM     21  C   LIG    1       -2.461  -1.464   4.052  0.00  0.00    -0.070 A 
ATOM     22  C   LIG    1       -2.865  -0.300   3.406  0.00  0.00    -0.030 A 
ATOM     23 CL   LIG    1       -3.854   0.858   4.239  0.00  0.00    -0.050 Cl
ATOM     24  C   LIG    1       -2.478  -0.067   2.100  0.00  0.00    +0.080 A 
BRANCH  21  25
ATOM     25  S   LIG    1       -2.953  -1.766   5.716  0.00  0.00    -0.080 S 
ATOM     26  C   LIG    1       -2.188  -3.370   6.083  0.00  0.00    +0.130 C 
ENDBRANCH  21  25
ENDBRANCH  17  18
ENDBRANCH   9  17
TORSDOF 6
