REMARK  Name = ZINCtV000002KiH0.0
REMARK                            x       y       z     vdW  Elec       q    Type
REMARK                         _______ _______ _______ _____ _____    ______ ____
ROOT
ATOM      1  C   LIG    1        8.241  -1.411  -0.240  0.00  0.00    +0.610 C 
ATOM      2  N   LIG    1        7.230  -0.519  -0.247  0.00  0.00    -0.610 N 
ATOM      3  H   LIG    1        7.420   0.429  -0.324  0.00  0.00    +0.430 HD
ATOM      4  O   LIG    1        8.003  -2.600  -0.144  0.00  0.00    -0.480 OA
ENDROOT
BRANCH   1  11
ATOM      5  C   LIG    1       10.131  -0.633   2.188  0.00  0.00    +0.180 C 
ATOM      6  C   LIG    1       10.487  -0.595   0.724  0.00  0.00    +0.130 A 
ATOM      7  N   LIG    1       11.637  -0.237   0.224  0.00  0.00    -0.260 NA
ATOM      8  N   LIG    1       11.575  -0.330  -1.171  0.00  0.00    -0.340 N 
ATOM      9  C   LIG    1       10.351  -0.762  -1.515  0.00  0.00    +0.170 A 
ATOM     10 CL   LIG    1        9.775  -1.040  -3.129  0.00  0.00    +0.020 Cl
ATOM     11  C   LIG    1        9.634  -0.945  -0.347  0.00  0.00    -0.270 A 
BRANCH   8  12
ATOM     12  C   LIG    1       12.663  -0.009  -2.099  0.00  0.00    +0.330 C 
BRANCH  12  13
ATOM     13  C   LIG    1       12.579   1.467  -2.492  0.00  0.00    -0.030 C 
ATOM     14  C   LIG    1       11.290   1.713  -3.279  0.00  0.00    +0.020 C 
ATOM     15  C   LIG    1       13.784   1.832  -3.361  0.00  0.00    +0.040 C 
ENDBRANCH  12  13
ENDBRANCH   8  12
ENDBRANCH   1  11
BRANCH   2  16
ATOM     16  C   LIG    1        5.917  -0.959  -0.146  0.00  0.00    +0.270 A 
ATOM     17  N   LIG    1        4.870  -0.194  -0.143  0.00  0.00    -0.490 NA
ATOM     18  C   LIG    1        3.686  -0.793  -0.038  0.00  0.00    +0.130 A 
ATOM     19  C   LIG    1        3.728  -2.136   0.059  0.00  0.00    -0.100 A 
ATOM     20  S   LIG    1        5.415  -2.640  -0.002  0.00  0.00    +0.210 S 
BRANCH  18  21
ATOM     21  C   LIG    1        2.413  -0.037  -0.021  0.00  0.00    -0.010 A 
ATOM     22  C   LIG    1        1.357  -0.428  -0.826  0.00  0.00    +0.030 A 
ATOM     23  C   LIG    1        0.158   0.276  -0.816  0.00  0.00    +0.010 A 
ATOM     24  C   LIG    1       -0.011   1.367  -0.018  0.00  0.00    +0.030 A 
ATOM     25  C   LIG    1        1.035   1.800   0.815  0.00  0.00    -0.050 A 
ATOM     26  C   LIG    1        0.885   2.922   1.647  0.00  0.00    +0.020 A 
ATOM     27  C   LIG    1        1.919   3.314   2.442  0.00  0.00    +0.010 A 
ATOM     28  C   LIG    1        3.126   2.619   2.443  0.00  0.00    +0.000 A 
ATOM     29  C   LIG    1        3.305   1.525   1.649  0.00  0.00    +0.040 A 
ATOM     30  C   LIG    1        2.263   1.093   0.818  0.00  0.00    -0.030 A 
ENDBRANCH  18  21
ENDBRANCH   2  16
TORSDOF 5
