REMARK  Name = ZINCqH0000033Afo.0
REMARK                            x       y       z     vdW  Elec       q    Type
REMARK                         _______ _______ _______ _____ _____    ______ ____
ROOT
ATOM      1  N   LIG    1        7.264  -0.043  -0.067  0.00  0.00    -0.620 N 
ATOM      2  H   LIG    1        7.352   0.923  -0.062  0.00  0.00    +0.430 HD
ATOM      3  C   LIG    1        6.040  -0.608  -0.059  0.00  0.00    +0.520 C 
ATOM      4  O   LIG    1        5.930  -1.815  -0.065  0.00  0.00    -0.470 OA
ENDROOT
BRANCH   1   8
ATOM      5  C   LIG    1       10.142  -2.577  -0.109  0.00  0.00    -0.360 A 
ATOM      6  C   LIG    1       10.579  -1.280  -0.106  0.00  0.00    +0.200 A 
ATOM      7  N   LIG    1        9.617  -0.394  -0.092  0.00  0.00    -0.510 NA
ATOM      8  C   LIG    1        8.394  -0.841  -0.083  0.00  0.00    +0.250 A 
ATOM      9  C   LIG    1       12.039  -0.907  -0.118  0.00  0.00    +0.180 C 
ATOM     10  S   LIG    1        8.380  -2.550  -0.086  0.00  0.00    +0.340 S 
BRANCH   5  11
ATOM     11  C   LIG    1       10.985  -3.771  -0.123  0.00  0.00    +0.550 C 
ATOM     12  O   LIG    1       12.196  -3.660  -0.134  0.00  0.00    -0.500 OA
BRANCH  11  13
ATOM     13  O   LIG    1       10.419  -4.996  -0.125  0.00  0.00    -0.350 OA
BRANCH  13  15
ATOM     14  C   LIG    1       10.486  -7.412  -0.139  0.00  0.00    +0.070 C 
ATOM     15  C   LIG    1       11.303  -6.118  -0.139  0.00  0.00    +0.200 C 
ENDBRANCH  13  15
ENDBRANCH  11  13
ENDBRANCH   5  11
ENDBRANCH   1   8
BRANCH   3  16
ATOM     16  C   LIG    1        4.809   0.262  -0.042  0.00  0.00    +0.270 C 
BRANCH  16  17
ATOM     17  O   LIG    1        3.643  -0.564  -0.036  0.00  0.00    -0.290 OA
BRANCH  17  18
ATOM     18  C   LIG    1        2.441   0.067  -0.020  0.00  0.00    +0.140 A 
ATOM     19  C   LIG    1        2.380   1.431  -0.012  0.00  0.00    -0.090 A 
ATOM     20  C   LIG    1        1.155   2.093   0.002  0.00  0.00    +0.050 A 
ATOM     21  C   LIG    1       -0.017   1.401   0.010  0.00  0.00    -0.010 A 
ATOM     22  C   LIG    1        0.002  -0.004   0.002  0.00  0.00    -0.020 A 
ATOM     23  C   LIG    1       -1.189  -0.750   0.009  0.00  0.00    +0.010 A 
ATOM     24  C   LIG    1       -1.132  -2.110   0.001  0.00  0.00    +0.030 A 
ATOM     25  C   LIG    1        0.092  -2.776  -0.014  0.00  0.00    +0.000 A 
ATOM     26  C   LIG    1        1.266  -2.086  -0.021  0.00  0.00    +0.050 A 
ATOM     27  C   LIG    1        1.246  -0.682  -0.013  0.00  0.00    -0.070 A 
ENDBRANCH  17  18
ENDBRANCH  16  17
ENDBRANCH   3  16
TORSDOF 7
