REMARK  Name = ZINCrD0000074R8s.0
REMARK                            x       y       z     vdW  Elec       q    Type
REMARK                         _______ _______ _______ _____ _____    ______ ____
ROOT
ATOM      1  C   LIG    1       -5.642   0.872  -1.868  0.00  0.00    +0.100 C 
ATOM      2  C   LIG    1       -4.542   0.609  -0.873  0.00  0.00    -0.060 A 
ATOM      3  C   LIG    1       -4.676  -0.419   0.040  0.00  0.00    +0.010 A 
ATOM      4  C   LIG    1       -3.671  -0.663   0.959  0.00  0.00    +0.030 A 
ATOM      5  C   LIG    1       -2.529   0.109   0.949  0.00  0.00    +0.010 A 
ATOM      6  C   LIG    1       -2.382   1.136   0.014  0.00  0.00    +0.160 A 
ATOM      7  N   LIG    1       -1.191   1.867   0.018  0.00  0.00    -0.560 N 
ATOM      8  C   LIG    1       -0.014   1.209   0.009  0.00  0.00    +0.520 C 
ATOM      9  O   LIG    1        0.002  -0.004   0.002  0.00  0.00    -0.500 OA
ATOM     10  C   LIG    1       -1.191   3.333   0.026  0.00  0.00    +0.280 C 
ATOM     11  C   LIG    1       -1.191   3.807  -1.434  0.00  0.00    +0.270 C 
ATOM     12  N   LIG    1       -1.936   2.823  -2.229  0.00  0.00    -0.590 N 
ATOM     13  C   LIG    1       -1.354   2.200  -3.273  0.00  0.00    +0.660 C 
ATOM     14  O   LIG    1       -1.982   1.387  -3.923  0.00  0.00    -0.560 OA
ATOM     15  C   LIG    1       -3.322   2.533  -1.865  0.00  0.00    +0.370 C 
ATOM     16  C   LIG    1       -3.404   1.400  -0.879  0.00  0.00    -0.120 A 
ENDROOT
BRANCH   8  17
ATOM     17  C   LIG    1        1.280   1.980   0.001  0.00  0.00    +0.170 C 
BRANCH  17  18
ATOM     18  C   LIG    1        2.439   1.016  -0.016  0.00  0.00    +0.020 A 
ATOM     19  N   LIG    1        2.664   0.053   0.831  0.00  0.00    -0.340 NA
ATOM     20  O   LIG    1        3.675  -0.552   0.558  0.00  0.00    +0.110 OA
ATOM     21  C   LIG    1        4.267  -0.054  -0.536  0.00  0.00    +0.160 A 
ATOM     22  C   LIG    1        3.493   0.975  -0.957  0.00  0.00    -0.060 A 
ENDBRANCH  17  18
ENDBRANCH   8  17
BRANCH  13  23
ATOM     23  O   LIG    1       -0.077   2.478  -3.596  0.00  0.00    -0.360 OA
BRANCH  23  24
ATOM     24  C   LIG    1        0.485   1.769  -4.732  0.00  0.00    +0.140 C 
ATOM     25  C   LIG    1        0.447   0.263  -4.464  0.00  0.00    +0.040 C 
ATOM     26  C   LIG    1        1.933   2.213  -4.945  0.00  0.00    +0.070 C 
ATOM     27  C   LIG    1       -0.334   2.084  -5.986  0.00  0.00    +0.040 C 
ENDBRANCH  23  24
ENDBRANCH  13  23
TORSDOF 4
