REMARK  Name = ZINCvU00000004em.0
REMARK                            x       y       z     vdW  Elec       q    Type
REMARK                         _______ _______ _______ _____ _____    ______ ____
ROOT
ATOM      1  N   LIG    1       -6.832   8.662   0.117  0.00  0.00    -0.720 N 
ATOM      2  H   LIG    1       -6.479   9.566   0.119  0.00  0.00    +0.400 HD
ATOM      3  C   LIG    1       -5.990   7.610   0.103  0.00  0.00    +0.520 C 
ATOM      4  O   LIG    1       -6.432   6.480   0.100  0.00  0.00    -0.510 OA
ENDROOT
BRANCH   1   5
ATOM      5  C   LIG    1       -8.280   8.442   0.130  0.00  0.00    +0.290 C 
ATOM      6  C   LIG    1       -8.752   8.232   1.571  0.00  0.00    +0.040 C 
BRANCH   5  10
ATOM      7  C   LIG    1      -10.252  11.854  -1.531  0.00  0.00    +0.110 A 
ATOM      8  C   LIG    1       -9.160  12.020  -0.695  0.00  0.00    -0.030 A 
ATOM      9  C   LIG    1       -8.528  10.915  -0.155  0.00  0.00    +0.020 A 
ATOM     10  C   LIG    1       -8.976   9.643  -0.456  0.00  0.00    -0.090 A 
ATOM     11  C   LIG    1      -10.065   9.470  -1.291  0.00  0.00    -0.020 A 
ATOM     12  C   LIG    1      -10.706  10.573  -1.831  0.00  0.00    +0.110 A 
BRANCH  12  13
ATOM     13  O   LIG    1      -11.777  10.405  -2.652  0.00  0.00    -0.300 OA
ATOM     14  C   LIG    1      -12.188   9.061  -2.915  0.00  0.00    +0.240 C 
ENDBRANCH  12  13
BRANCH   7  15
ATOM     15  O   LIG    1      -10.877  12.940  -2.059  0.00  0.00    -0.300 OA
BRANCH  15  17
ATOM     16  C   LIG    1      -11.182  15.314  -2.393  0.00  0.00    +0.070 C 
ATOM     17  C   LIG    1      -10.356  14.223  -1.709  0.00  0.00    +0.170 C 
ENDBRANCH  15  17
ENDBRANCH   7  15
ENDBRANCH   5  10
ENDBRANCH   1   5
BRANCH   3  18
ATOM     18  C   LIG    1       -4.500   7.837   0.090  0.00  0.00    +0.270 C 
BRANCH  18  19
ATOM     19  O   LIG    1       -3.816   6.556   0.075  0.00  0.00    -0.330 OA
BRANCH  19  20
ATOM     20  C   LIG    1       -2.468   6.582   0.063  0.00  0.00    +0.530 C 
ATOM     21  O   LIG    1       -1.880   7.647   0.063  0.00  0.00    -0.470 OA
BRANCH  20  22
ATOM     22  C   LIG    1       -1.710   5.327   0.048  0.00  0.00    +0.050 A 
ATOM     23  C   LIG    1       -0.352   5.224   0.034  0.00  0.00    -0.020 A 
ATOM     24  C   LIG    1       -0.025   3.845   0.023  0.00  0.00    -0.110 A 
ATOM     25  C   LIG    1        1.188   3.146   0.008  0.00  0.00    +0.120 A 
ATOM     26  C   LIG    1        1.185   1.780   0.000  0.00  0.00    -0.110 A 
ATOM     27  C   LIG    1       -0.013   1.076   0.008  0.00  0.00    +0.090 A 
ATOM     28  C   LIG    1       -1.218   1.741   0.017  0.00  0.00    +0.020 A 
ATOM     29 BR   LIG    1        2.826   0.840  -0.021  0.00  0.00    -0.040 Br
ATOM     30  C   LIG    1       -1.240   3.133   0.031  0.00  0.00    +0.140 A 
ATOM     31 CL   LIG    1        0.775   6.544   0.030  0.00  0.00    -0.000 Cl
ATOM     32  N   LIG    1       -2.259   4.057   0.046  0.00  0.00    -0.550 N 
ATOM     33  H   LIG    1       -3.207   3.852   0.054  0.00  0.00    +0.440 HD
ENDBRANCH  20  22
ENDBRANCH  19  20
ENDBRANCH  18  19
ENDBRANCH   3  18
TORSDOF 9
