REMARK  Name = ZINCrD0000073ehB.0
REMARK                            x       y       z     vdW  Elec       q    Type
REMARK                         _______ _______ _______ _____ _____    ______ ____
ROOT
ATOM      1  C   LIG    1       -2.444  -2.737   0.011  0.00  0.00    +0.210 A 
ATOM      2  C   LIG    1       -2.898  -3.469  -1.066  0.00  0.00    -0.110 A 
ATOM      3  C   LIG    1       -4.184  -4.009  -1.033  0.00  0.00    +0.530 A 
ATOM      4  N   LIG    1       -4.975  -3.807   0.063  0.00  0.00    -0.460 N 
ATOM      5  C   LIG    1       -4.460  -3.077   1.085  0.00  0.00    +0.320 A 
ATOM      6  S   LIG    1       -5.729  -3.014   2.319  0.00  0.00    +0.190 S 
ATOM      7  C   LIG    1       -6.872  -3.976   1.377  0.00  0.00    -0.180 A 
ATOM      8  C   LIG    1       -8.263  -4.374   1.789  0.00  0.00    +0.140 C 
ATOM      9  C   LIG    1       -9.021  -4.856   0.546  0.00  0.00    +0.030 C 
ATOM     10  C   LIG    1       -8.139  -5.851  -0.213  0.00  0.00    +0.030 C 
ATOM     11  C   LIG    1       -6.959  -5.111  -0.844  0.00  0.00    +0.140 C 
ATOM     12  C   LIG    1       -6.265  -4.280   0.232  0.00  0.00    +0.080 A 
ATOM     13  O   LIG    1       -4.601  -4.659  -1.978  0.00  0.00    -0.510 OA
ATOM     14  N   LIG    1       -3.241  -2.568   1.059  0.00  0.00    -0.490 NA
ENDROOT
BRANCH   1  15
ATOM     15  C   LIG    1       -1.060  -2.142   0.001  0.00  0.00    +0.320 C 
BRANCH  15  16
ATOM     16  O   LIG    1       -1.155  -0.693   0.009  0.00  0.00    -0.340 OA
BRANCH  16  17
ATOM     17  C   LIG    1        0.002  -0.004   0.002  0.00  0.00    +0.520 C 
ATOM     18  O   LIG    1        1.062  -0.597  -0.011  0.00  0.00    -0.500 OA
BRANCH  17  21
ATOM     19  C   LIG    1        1.153   3.574   0.010  0.00  0.00    +0.120 A 
ATOM     20  C   LIG    1        1.180   2.190   0.003  0.00  0.00    +0.000 A 
ATOM     21  C   LIG    1       -0.018   1.473   0.010  0.00  0.00    -0.090 A 
ATOM     22  C   LIG    1       -1.235   2.157   0.020  0.00  0.00    +0.050 A 
ATOM     23  C   LIG    1       -1.250   3.537   0.033  0.00  0.00    +0.040 A 
ATOM     24  C   LIG    1       -0.062   4.246   0.025  0.00  0.00    -0.080 A 
ATOM     25  C   LIG    1       -0.088   5.752   0.033  0.00  0.00    +0.120 C 
BRANCH  19  27
ATOM     26  C   LIG    1        3.530   3.521  -0.013  0.00  0.00    +0.240 C 
ATOM     27  O   LIG    1        2.317   4.276   0.003  0.00  0.00    -0.310 OA
ENDBRANCH  19  27
ENDBRANCH  17  21
ENDBRANCH  16  17
ENDBRANCH  15  16
ENDBRANCH   1  15
TORSDOF 5
