REMARK  Name = ZINCtV00001bB3zh.0
REMARK                            x       y       z     vdW  Elec       q    Type
REMARK                         _______ _______ _______ _____ _____    ______ ____
ROOT
ATOM      1  C   LIG    1       -4.554  -0.565   0.351  0.00  0.00    -0.090 A 
ATOM      2  C   LIG    1       -4.903   0.779   0.541  0.00  0.00    +0.050 A 
ATOM      3  C   LIG    1       -3.918   1.724   0.720  0.00  0.00    +0.030 A 
ATOM      4  C   LIG    1       -2.579   1.347   0.711  0.00  0.00    +0.100 A 
ATOM      5  C   LIG    1       -2.227   0.016   0.517  0.00  0.00    +0.020 A 
ATOM      6  C   LIG    1       -3.203  -0.938   0.343  0.00  0.00    +0.080 A 
ENDROOT
BRANCH   1   8
ATOM      7  C   LIG    1       -6.730  -1.266  -0.537  0.00  0.00    -0.020 C 
ATOM      8  C   LIG    1       -5.599  -1.576   0.161  0.00  0.00    +0.220 C 
BRANCH   7   9
ATOM      9  C   LIG    1       -7.850  -2.224  -0.589  0.00  0.00    +0.160 A 
ATOM     10  N   LIG    1       -7.858  -3.382  -0.015  0.00  0.00    -0.450 NA
ATOM     11  C   LIG    1       -8.957  -4.143  -0.150  0.00  0.00    +0.080 A 
ATOM     12  C   LIG    1       -9.213  -5.428   0.376  0.00  0.00    +0.080 A 
ATOM     13  C   LIG    1      -10.395  -6.055   0.126  0.00  0.00    +0.030 A 
ATOM     14  C   LIG    1      -11.372  -5.446  -0.648  0.00  0.00    +0.050 A 
ATOM     15  C   LIG    1      -11.152  -4.193  -1.175  0.00  0.00    +0.060 A 
ATOM     16  C   LIG    1       -9.948  -3.535  -0.930  0.00  0.00    -0.170 A 
ATOM     17  S   LIG    1       -9.361  -1.956  -1.446  0.00  0.00    +0.080 S 
ENDBRANCH   7   9
BRANCH   7  19
ATOM     18  N   LIG    1       -6.909   0.986  -1.758  0.00  0.00    -0.380 NA
ATOM     19  C   LIG    1       -6.830  -0.010  -1.218  0.00  0.00    +0.240 C 
ENDBRANCH   7  19
ENDBRANCH   1   8
BRANCH   4  20
ATOM     20  O   LIG    1       -1.613   2.284   0.888  0.00  0.00    -0.290 OA
BRANCH  20  21
ATOM     21  C   LIG    1       -1.414   2.729   2.144  0.00  0.00    +0.510 C 
ATOM     22  O   LIG    1       -2.144   2.360   3.042  0.00  0.00    -0.480 OA
BRANCH  21  23
ATOM     23  C   LIG    1       -0.304   3.660   2.430  0.00  0.00    -0.110 A 
ATOM     24  C   LIG    1        0.541   4.082   1.401  0.00  0.00    +0.100 A 
ATOM     25  C   LIG    1        1.571   4.956   1.675  0.00  0.00    +0.050 A 
ATOM     26  C   LIG    1        1.776   5.407   2.968  0.00  0.00    -0.060 A 
ATOM     27  C   LIG    1        0.945   4.989   3.993  0.00  0.00    +0.050 A 
ATOM     28 BR   LIG    1        3.198   6.599   3.335  0.00  0.00    -0.030 Br
ATOM     29  C   LIG    1       -0.092   4.119   3.732  0.00  0.00    +0.110 A 
ENDBRANCH  21  23
ENDBRANCH  20  21
ENDBRANCH   4  20
TORSDOF 6
