REMARK  Name = ZINCpk000000nmka.0
REMARK                            x       y       z     vdW  Elec       q    Type
REMARK                         _______ _______ _______ _____ _____    ______ ____
ROOT
ATOM      1  C   LIG    1        0.063   9.321  -0.525  0.00  0.00    +0.540 C 
ATOM      2  N   LIG    1       -0.171   8.006  -0.708  0.00  0.00    -0.720 N 
ATOM      3  H   LIG    1        0.347   7.507  -1.358  0.00  0.00    +0.410 HD
ATOM      4  O   LIG    1       -0.585   9.945   0.288  0.00  0.00    -0.520 OA
ENDROOT
BRANCH   1   5
ATOM      5  C   LIG    1        1.130  10.015  -1.331  0.00  0.00    +0.100 C 
BRANCH   5   6
ATOM      6  S   LIG    1        1.202  11.761  -0.859  0.00  0.00    +0.120 S 
BRANCH   6  11
ATOM      7  N   LIG    1        2.982  13.572  -2.010  0.00  0.00    -0.350 N 
ATOM      8  N   LIG    1        3.992  13.511  -2.986  0.00  0.00    -0.070 NA
ATOM      9  N   LIG    1        4.033  12.292  -3.404  0.00  0.00    -0.030 NA
ATOM     10  N   LIG    1        3.160  11.580  -2.789  0.00  0.00    -0.340 NA
ATOM     11  C   LIG    1        2.493  12.313  -1.924  0.00  0.00    +0.200 A 
BRANCH   7  13
ATOM     12  C   LIG    1        2.757  14.486   0.247  0.00  0.00    +0.070 C 
ATOM     13  C   LIG    1        2.554  14.747  -1.246  0.00  0.00    +0.170 C 
ATOM     14  C   LIG    1        1.073  15.020  -1.520  0.00  0.00    +0.070 C 
ATOM     15  C   LIG    1        3.383  15.961  -1.670  0.00  0.00    +0.080 C 
ENDBRANCH   7  13
ENDBRANCH   6  11
ENDBRANCH   5   6
ENDBRANCH   1   5
BRANCH   2  16
ATOM     16  C   LIG    1       -1.209   7.331   0.076  0.00  0.00    +0.320 C 
BRANCH  16  17
ATOM     17  C   LIG    1       -1.270   5.855  -0.323  0.00  0.00    +0.140 C 
ATOM     18  C   LIG    1       -2.417   5.164   0.426  0.00  0.00    +0.240 C 
ATOM     19  O   LIG    1       -2.438   3.785   0.040  0.00  0.00    -0.300 OA
ATOM     20  C   LIG    1       -1.241   3.136   0.030  0.00  0.00    +0.050 A 
ATOM     21  C   LIG    1       -1.220   1.750   0.017  0.00  0.00    +0.030 A 
ATOM     22  C   LIG    1       -0.013   1.076   0.008  0.00  0.00    +0.020 A 
ATOM     23  C   LIG    1        1.175   1.782   0.000  0.00  0.00    +0.020 A 
ATOM     24  C   LIG    1        1.161   3.164   0.009  0.00  0.00    +0.030 A 
ATOM     25  C   LIG    1       -0.046   3.846   0.024  0.00  0.00    +0.050 A 
ATOM     26  O   LIG    1       -0.045   5.207   0.037  0.00  0.00    -0.300 OA
ENDBRANCH  16  17
ENDBRANCH   2  16
TORSDOF 6
