REMARK  Name = ZINCvU0000000ICh.0
REMARK                            x       y       z     vdW  Elec       q    Type
REMARK                         _______ _______ _______ _____ _____    ______ ____
ROOT
ATOM      1  C   LIG    1        3.641   2.154  -0.007  0.00  0.00    -0.070 A 
ATOM      2  C   LIG    1        4.805   1.398  -0.024  0.00  0.00    +0.020 A 
ATOM      3  C   LIG    1        4.717  -0.002  -0.022  0.00  0.00    +0.200 A 
ATOM      4  N   LIG    1        3.562  -0.634  -0.005  0.00  0.00    -0.440 NA
ATOM      5  C   LIG    1        2.395   0.012   0.012  0.00  0.00    +0.130 A 
ATOM      6  C   LIG    1        1.177  -0.691   0.030  0.00  0.00    +0.050 A 
ATOM      7  C   LIG    1        0.002  -0.004   0.048  0.00  0.00    +0.030 A 
ATOM      8  C   LIG    1       -0.017   1.389   0.047  0.00  0.00    +0.020 A 
ATOM      9  C   LIG    1        1.145   2.103   0.030  0.00  0.00    +0.060 A 
ATOM     10  C   LIG    1        2.370   1.429   0.012  0.00  0.00    -0.060 A 
ENDROOT
BRANCH   3  11
ATOM     11  C   LIG    1        5.968  -0.798  -0.041  0.00  0.00    -0.050 A 
ATOM     12  C   LIG    1        7.205  -0.155  -0.065  0.00  0.00    +0.050 A 
ATOM     13  C   LIG    1        8.366  -0.900  -0.078  0.00  0.00    +0.030 A 
ATOM     14  C   LIG    1        8.305  -2.283  -0.076  0.00  0.00    -0.020 A 
ATOM     15  C   LIG    1        7.078  -2.926  -0.057  0.00  0.00    +0.030 A 
ATOM     16 CL   LIG    1        9.769  -3.214  -0.099  0.00  0.00    -0.060 Cl
ATOM     17  C   LIG    1        5.911  -2.191  -0.039  0.00  0.00    +0.090 A 
ENDBRANCH   3  11
BRANCH   1  20
ATOM     18  N   LIG    1        4.867   4.272   0.081  0.00  0.00    -0.660 N 
ATOM     19  H   LIG    1        5.694   3.766   0.067  0.00  0.00    +0.410 HD
ATOM     20  C   LIG    1        3.684   3.632  -0.008  0.00  0.00    +0.570 C 
ATOM     21  O   LIG    1        2.652   4.270  -0.089  0.00  0.00    -0.500 OA
BRANCH  18  29
ATOM     22  O   LIG    1        2.003  10.354   2.185  0.00  0.00    -0.510 OA
ATOM     23  C   LIG    1        2.834   9.733   1.556  0.00  0.00    +0.490 C 
ATOM     24  C   LIG    1        3.736  10.448   0.583  0.00  0.00    +0.300 C 
ATOM     25  O   LIG    1        5.002   9.785   0.525  0.00  0.00    -0.300 OA
ATOM     26  C   LIG    1        4.978   8.429   0.412  0.00  0.00    +0.070 A 
ATOM     27  C   LIG    1        5.966   7.764  -0.293  0.00  0.00    +0.070 A 
ATOM     28  C   LIG    1        5.930   6.386  -0.399  0.00  0.00    +0.010 A 
ATOM     29  C   LIG    1        4.901   5.667   0.194  0.00  0.00    +0.150 A 
ATOM     30  C   LIG    1        3.908   6.330   0.904  0.00  0.00    +0.020 A 
ATOM     31  C   LIG    1        3.946   7.710   1.014  0.00  0.00    +0.120 A 
ATOM     32  N   LIG    1        2.955   8.399   1.726  0.00  0.00    -0.660 N 
ATOM     33  H   LIG    1        2.364   7.924   2.332  0.00  0.00    +0.420 HD
ENDBRANCH  18  29
ENDBRANCH   1  20
TORSDOF 3
