REMARK  Name = ZINCqH0000036wYb.0
REMARK                            x       y       z     vdW  Elec       q    Type
REMARK                         _______ _______ _______ _____ _____    ______ ____
ROOT
ATOM      1  N   LIG    1       -2.393   2.059   0.546  0.00  0.00    -0.550 N 
ATOM      2  C   LIG    1       -2.318   1.744  -0.885  0.00  0.00    +0.320 C 
ATOM      3  C   LIG    1       -0.811   1.623  -1.202  0.00  0.00    +0.010 C 
ATOM      4  C   LIG    1       -0.229   1.239   0.178  0.00  0.00    +0.100 C 
ATOM      5  C   LIG    1       -1.233   1.781   1.171  0.00  0.00    +0.520 C 
ATOM      6  O   LIG    1       -1.023   1.940   2.356  0.00  0.00    -0.500 OA
ENDROOT
BRANCH   3   7
ATOM      7  C   LIG    1       -0.252   2.940  -1.676  0.00  0.00    +0.530 C 
ATOM      8  N   LIG    1        1.046   3.033  -2.028  0.00  0.00    -0.550 N 
ATOM      9  C   LIG    1        1.941   1.960  -2.085  0.00  0.00    +0.140 A 
ATOM     10  C   LIG    1        1.719   0.608  -1.817  0.00  0.00    -0.030 A 
ATOM     11  C   LIG    1        2.747  -0.302  -1.938  0.00  0.00    +0.050 A 
ATOM     12  C   LIG    1        4.005   0.117  -2.332  0.00  0.00    -0.010 A 
ATOM     13  C   LIG    1        4.231   1.453  -2.604  0.00  0.00    +0.060 A 
ATOM     14  C   LIG    1        3.204   2.369  -2.483  0.00  0.00    -0.130 A 
ATOM     15  C   LIG    1        3.175   3.863  -2.713  0.00  0.00    +0.100 C 
ATOM     16  C   LIG    1        1.727   4.276  -2.403  0.00  0.00    +0.220 C 
ATOM     17  C   LIG    1        1.071   4.889  -3.641  0.00  0.00    +0.050 C 
ATOM     18  O   LIG    1       -0.969   3.916  -1.740  0.00  0.00    -0.500 OA
ENDBRANCH   3   7
BRANCH   1  22
ATOM     19  C   LIG    1       -5.767   3.621   2.437  0.00  0.00    -0.110 A 
ATOM     20  C   LIG    1       -4.615   3.366   3.170  0.00  0.00    +0.060 A 
ATOM     21  C   LIG    1       -3.498   2.849   2.544  0.00  0.00    +0.020 A 
ATOM     22  C   LIG    1       -3.527   2.584   1.181  0.00  0.00    +0.160 A 
ATOM     23  C   LIG    1       -4.676   2.844   0.447  0.00  0.00    +0.000 A 
ATOM     24  C   LIG    1       -5.795   3.356   1.073  0.00  0.00    +0.030 A 
BRANCH  19  26
ATOM     25  C   LIG    1       -8.389   4.425   1.881  0.00  0.00    +0.130 C 
ATOM     26  S   LIG    1       -7.192   4.280   3.236  0.00  0.00    -0.120 S 
ENDBRANCH  19  26
ENDBRANCH   1  22
TORSDOF 3
