REMARK  Name = ZINCpe000000YhIo.0
REMARK                            x       y       z     vdW  Elec       q    Type
REMARK                         _______ _______ _______ _____ _____    ______ ____
ROOT
ATOM      1  N   LIG    1        3.382   5.539  -1.331  0.00  0.00    -0.510 NA
ATOM      2  C   LIG    1        2.382   5.089  -2.309  0.00  0.00    +0.190 C 
ATOM      3  C   LIG    1        2.692   5.711  -3.673  0.00  0.00    +0.210 C 
ATOM      4  N   LIG    1        4.046   5.322  -4.091  0.00  0.00    -0.480 N 
ATOM      5  C   LIG    1        5.045   5.772  -3.112  0.00  0.00    +0.220 C 
ATOM      6  C   LIG    1        4.736   5.149  -1.748  0.00  0.00    +0.200 C 
ENDROOT
BRANCH   4   7
ATOM      7  C   LIG    1        4.336   5.811  -5.360  0.00  0.00    +0.290 A 
ATOM      8  N   LIG    1        5.402   6.574  -5.542  0.00  0.00    -0.490 NA
ATOM      9  C   LIG    1        5.714   7.058  -6.730  0.00  0.00    +0.290 A 
ATOM     10  C   LIG    1        4.932   6.783  -7.834  0.00  0.00    -0.020 A 
ATOM     11  C   LIG    1        3.804   5.987  -7.688  0.00  0.00    +0.060 A 
ATOM     12  C   LIG    1        3.505   5.489  -6.431  0.00  0.00    +0.030 A 
ATOM     13  F   LIG    1        2.420   4.705  -6.245  0.00  0.00    -0.120 F 
ENDBRANCH   4   7
BRANCH   1  17
ATOM     14  N   LIG    1        1.720   3.110   0.003  0.00  0.00    -0.530 N 
ATOM     15  C   LIG    1        0.803   4.255   0.013  0.00  0.00    +0.260 C 
ATOM     16  C   LIG    1        1.661   5.464   0.453  0.00  0.00    +0.080 C 
ATOM     17  C   LIG    1        3.075   5.022   0.010  0.00  0.00    +0.180 C 
ATOM     18  C   LIG    1        3.003   3.511  -0.008  0.00  0.00    +0.480 C 
ATOM     19  O   LIG    1        3.963   2.770  -0.030  0.00  0.00    -0.520 OA
BRANCH  14  23
ATOM     20  C   LIG    1        1.801  -1.817  -0.026  0.00  0.00    +0.360 C 
ATOM     21  N   LIG    1        1.337  -0.427  -0.013  0.00  0.00    -0.370 N 
ATOM     22  C   LIG    1        2.126   0.678  -0.015  0.00  0.00    +0.230 A 
ATOM     23  C   LIG    1        1.310   1.763  -0.001  0.00  0.00    +0.000 A 
ATOM     24  C   LIG    1       -0.016   1.304   0.009  0.00  0.00    +0.230 A 
ATOM     25  N   LIG    1        0.002  -0.004   0.002  0.00  0.00    -0.280 NA
ENDBRANCH  14  23
ENDBRANCH   1  17
TORSDOF 3
