REMARK  Name = ZINCnE000001OCBc.0
REMARK                            x       y       z     vdW  Elec       q    Type
REMARK                         _______ _______ _______ _____ _____    ______ ____
ROOT
ATOM      1  C   LIG    1       -0.018   1.475   0.010  0.00  0.00    +0.160 A 
ATOM      2  N   LIG    1       -1.090   2.210   0.019  0.00  0.00    -0.280 NA
ATOM      3  N   LIG    1       -0.692   3.555   0.027  0.00  0.00    -0.530 NA
ATOM      4  C   LIG    1        0.677   3.558   0.014  0.00  0.00    +0.440 A 
ATOM      5  N   LIG    1        1.452   4.610   0.012  0.00  0.00    -0.680 NA
ATOM      6  O   LIG    1        1.075   2.269   0.004  0.00  0.00    -0.290 OA
ENDROOT
BRANCH   1  10
ATOM      7  C   LIG    1        1.564  -3.381  -0.030  0.00  0.00    +0.170 C 
ATOM      8  C   LIG    1        0.718  -2.134  -0.016  0.00  0.00    -0.020 A 
ATOM      9  C   LIG    1        1.185  -0.875  -0.013  0.00  0.00    -0.040 A 
ATOM     10  C   LIG    1        0.002  -0.004   0.002  0.00  0.00    -0.080 A 
ATOM     11  C   LIG    1       -1.071  -0.840   0.013  0.00  0.00    +0.020 A 
ATOM     12  C   LIG    1       -2.517  -0.418   0.037  0.00  0.00    +0.190 C 
ATOM     13  O   LIG    1       -0.624  -2.104  -0.004  0.00  0.00    -0.180 OA
ENDBRANCH   1  10
BRANCH   5  14
ATOM     14  C   LIG    1        0.866   5.952   0.024  0.00  0.00    +0.250 C 
BRANCH  14  15
ATOM     15  C   LIG    1        1.227   6.647   1.312  0.00  0.00    +0.010 A 
ATOM     16  C   LIG    1        0.401   6.533   2.414  0.00  0.00    +0.030 A 
ATOM     17  C   LIG    1        0.735   7.166   3.597  0.00  0.00    +0.090 A 
ATOM     18  C   LIG    1        1.891   7.921   3.674  0.00  0.00    -0.070 A 
ATOM     19  C   LIG    1        2.714   8.040   2.569  0.00  0.00    +0.090 A 
ATOM     20  C   LIG    1        2.382   7.402   1.389  0.00  0.00    +0.030 A 
BRANCH  18  21
ATOM     21  N   LIG    1        2.246   8.603   4.938  0.00  0.00    +0.040 N 
ATOM     22  O   LIG    1        1.520   8.499   5.911  0.00  0.00    -0.180 OA
ATOM     23  O   LIG    1        3.263   9.269   5.006  0.00  0.00    -0.180 OA
ENDBRANCH  18  21
ENDBRANCH  14  15
ENDBRANCH   5  14
TORSDOF 4
