REMARK  Name = ZINCqH0000050j7q.0
REMARK                            x       y       z     vdW  Elec       q    Type
REMARK                         _______ _______ _______ _____ _____    ______ ____
ROOT
ATOM      1  O   LIG    1        7.413   1.012  -0.065  0.00  0.00    -0.330 OA
ENDROOT
BRANCH   1   2
ATOM      2  C   LIG    1        6.238   1.662  -0.050  0.00  0.00    +0.470 C 
ATOM      3  O   LIG    1        6.217   2.870  -0.043  0.00  0.00    -0.510 OA
BRANCH   2   4
ATOM      4  C   LIG    1        4.947   0.885  -0.042  0.00  0.00    +0.140 C 
BRANCH   4   5
ATOM      5  C   LIG    1        3.767   1.858  -0.025  0.00  0.00    +0.060 C 
BRANCH   5   6
ATOM      6  C   LIG    1        2.475   1.081  -0.016  0.00  0.00    +0.400 C 
ATOM      7  O   LIG    1        2.497  -0.132  -0.024  0.00  0.00    -0.450 OA
BRANCH   6  12
ATOM      8  C   LIG    1       -2.554   3.864   0.047  0.00  0.00    +0.100 C 
ATOM      9  C   LIG    1       -1.236   3.135   0.031  0.00  0.00    -0.050 A 
ATOM     10  C   LIG    1       -1.215   1.751   0.017  0.00  0.00    -0.010 A 
ATOM     11  C   LIG    1       -0.013   1.076   0.008  0.00  0.00    +0.080 A 
ATOM     12  C   LIG    1        1.188   1.793   0.000  0.00  0.00    -0.180 A 
ATOM     13  C   LIG    1        1.158   3.192   0.008  0.00  0.00    +0.060 A 
ATOM     14  C   LIG    1       -0.052   3.852   0.023  0.00  0.00    -0.010 A 
ENDBRANCH   6  12
ENDBRANCH   5   6
ENDBRANCH   4   5
ENDBRANCH   2   4
ENDBRANCH   1   2
BRANCH   1  15
ATOM     15  C   LIG    1        8.616   1.825  -0.072  0.00  0.00    +0.250 C 
BRANCH  15  16
ATOM     16  C   LIG    1        9.827   0.928  -0.089  0.00  0.00    +0.510 C 
ATOM     17  N   LIG    1       11.063   1.466  -0.098  0.00  0.00    -0.720 N 
ATOM     18  H   LIG    1       11.173   2.430  -0.093  0.00  0.00    +0.400 HD
ATOM     19  O   LIG    1        9.690  -0.277  -0.095  0.00  0.00    -0.510 OA
BRANCH  17  20
ATOM     20  C   LIG    1       12.241   0.595  -0.114  0.00  0.00    +0.240 C 
ATOM     21  C   LIG    1       12.590   0.182   1.317  0.00  0.00    +0.000 C 
ATOM     22  C   LIG    1       13.542  -1.015   1.284  0.00  0.00    +0.010 C 
ATOM     23  C   LIG    1       13.053  -2.029   0.248  0.00  0.00    -0.000 C 
ATOM     24  C   LIG    1       14.052  -2.098  -0.909  0.00  0.00    +0.000 C 
ATOM     25  C   LIG    1       13.885  -0.865  -1.799  0.00  0.00    +0.000 C 
ATOM     26  C   LIG    1       14.517   0.348  -1.115  0.00  0.00    +0.030 C 
ATOM     27  C   LIG    1       13.423   1.346  -0.731  0.00  0.00    +0.010 C 
ENDBRANCH  17  20
ENDBRANCH  15  16
ENDBRANCH   1  15
TORSDOF 8
