REMARK  Name = ZINCrH000004v1xx.0
REMARK                            x       y       z     vdW  Elec       q    Type
REMARK                         _______ _______ _______ _____ _____    ______ ____
ROOT
ATOM      1  O   LIG    1        2.506   4.077  -0.102  0.00  0.00    -0.570 OA
ATOM      2  C   LIG    1        3.567   3.481  -0.115  0.00  0.00    +0.710 C 
ATOM      3  N   LIG    1        4.723   4.165  -0.224  0.00  0.00    -0.730 N 
ATOM      4  H   LIG    1        5.568   3.690  -0.235  0.00  0.00    +0.400 HD
ATOM      5  N   LIG    1        3.585   2.136  -0.021  0.00  0.00    -0.670 N 
ATOM      6  H   LIG    1        4.432   1.666   0.033  0.00  0.00    +0.410 HD
ENDROOT
BRANCH   3   7
ATOM      7  C   LIG    1        4.702   5.626  -0.326  0.00  0.00    +0.250 C 
ATOM      8  C   LIG    1        4.500   6.035  -1.788  0.00  0.00    -0.010 C 
ATOM      9  C   LIG    1        4.548   7.562  -1.896  0.00  0.00    +0.220 C 
ATOM     10  O   LIG    1        5.800   8.036  -1.394  0.00  0.00    -0.360 OA
ATOM     11  C   LIG    1        6.048   7.705  -0.034  0.00  0.00    +0.090 C 
ATOM     12  C   LIG    1        7.396   8.292   0.423  0.00  0.00    +0.040 C 
ATOM     13  C   LIG    1        7.012   9.258   1.567  0.00  0.00    +0.210 C 
ATOM     14  O   LIG    1        5.746   8.765   2.058  0.00  0.00    -0.370 OA
ATOM     15  C   LIG    1        5.005   8.374   0.880  0.00  0.00    +0.190 C 
ATOM     16  C   LIG    1        6.036   6.194   0.172  0.00  0.00    +0.030 C 
ENDBRANCH   3   7
BRANCH   5  17
ATOM     17  C   LIG    1        2.381   1.418  -0.002  0.00  0.00    +0.200 A 
ATOM     18  C   LIG    1        1.262   1.954   0.616  0.00  0.00    +0.050 A 
ATOM     19  C   LIG    1        0.075   1.244   0.633  0.00  0.00    -0.020 A 
ATOM     20  C   LIG    1        0.001  -0.002   0.036  0.00  0.00    +0.010 A 
ATOM     21  C   LIG    1        1.113  -0.543  -0.582  0.00  0.00    +0.010 A 
ATOM     22 CL   LIG    1       -1.328   1.920   1.401  0.00  0.00    -0.060 Cl
ATOM     23  C   LIG    1        2.307   0.163  -0.605  0.00  0.00    +0.060 A 
BRANCH  23  24
ATOM     24  N   LIG    1        3.433  -0.384  -1.230  0.00  0.00    -0.500 N 
ATOM     25  C   LIG    1        3.208  -0.545  -2.672  0.00  0.00    +0.180 C 
ATOM     26  C   LIG    1        4.504  -1.006  -3.344  0.00  0.00    +0.020 C 
ATOM     27  C   LIG    1        4.949  -2.334  -2.726  0.00  0.00    +0.010 C 
ATOM     28  C   LIG    1        5.130  -2.151  -1.217  0.00  0.00    +0.020 C 
ATOM     29  C   LIG    1        3.816  -1.657  -0.607  0.00  0.00    +0.180 C 
ENDBRANCH  23  24
ENDBRANCH   5  17
TORSDOF 3
