REMARK  Name = ZINCrH00000No4LN.0
REMARK                            x       y       z     vdW  Elec       q    Type
REMARK                         _______ _______ _______ _____ _____    ______ ____
ROOT
ATOM      1  N   LIG    1       -1.986   5.109  -1.338  0.00  0.00    -0.590 N 
ENDROOT
BRANCH   1   2
ATOM      2  C   LIG    1       -3.078   4.836  -2.149  0.00  0.00    +0.380 A 
ATOM      3  N   LIG    1       -3.054   5.191  -3.420  0.00  0.00    -0.500 NA
ATOM      4  C   LIG    1       -4.109   4.926  -4.201  0.00  0.00    +0.140 A 
ATOM      5  C   LIG    1       -4.113   5.291  -5.558  0.00  0.00    +0.040 A 
ATOM      6  C   LIG    1       -5.199   5.009  -6.330  0.00  0.00    +0.060 A 
ATOM      7  C   LIG    1       -6.310   4.362  -5.794  0.00  0.00    +0.020 A 
ATOM      8  C   LIG    1       -6.341   3.993  -4.483  0.00  0.00    +0.020 A 
ATOM      9 CL   LIG    1       -7.737   3.188  -3.837  0.00  0.00    -0.040 Cl
ATOM     10  C   LIG    1       -5.238   4.268  -3.655  0.00  0.00    +0.030 A 
ATOM     11  N   LIG    1       -5.241   3.915  -2.363  0.00  0.00    -0.380 NA
ATOM     12  C   LIG    1       -4.199   4.177  -1.613  0.00  0.00    +0.250 A 
ENDBRANCH   1   2
BRANCH   1  13
ATOM     13  C   LIG    1       -2.079   4.899   0.109  0.00  0.00    +0.420 C 
BRANCH  13  18
ATOM     14  C   LIG    1       -2.425  -0.051   0.807  0.00  0.00    +0.140 C 
ATOM     15  C   LIG    1       -1.854   1.343   0.738  0.00  0.00    +0.010 A 
ATOM     16  C   LIG    1       -0.586   1.693   1.024  0.00  0.00    +0.120 A 
ATOM     17  N   LIG    1       -0.497   3.046   0.837  0.00  0.00    -0.450 N 
ATOM     18  C   LIG    1       -1.713   3.474   0.435  0.00  0.00    +0.170 A 
ATOM     19  C   LIG    1        0.695   3.875   1.034  0.00  0.00    +0.320 C 
ATOM     20  N   LIG    1       -2.521   2.450   0.381  0.00  0.00    -0.470 NA
ENDBRANCH  13  18
ENDBRANCH   1  13
BRANCH   1  21
ATOM     21  C   LIG    1       -0.741   5.607  -1.928  0.00  0.00    +0.310 C 
BRANCH  21  22
ATOM     22  C   LIG    1        0.135   4.423  -2.343  0.00  0.00    -0.060 C 
ATOM     23  C   LIG    1        1.497   4.938  -2.819  0.00  0.00    +0.020 C 
ATOM     24  C   LIG    1        2.337   3.752  -3.304  0.00  0.00    +0.000 C 
ATOM     25  C   LIG    1        1.575   3.015  -4.409  0.00  0.00    +0.200 C 
ATOM     26  O   LIG    1        0.305   2.591  -3.909  0.00  0.00    -0.380 OA
ATOM     27  C   LIG    1       -0.541   3.661  -3.485  0.00  0.00    +0.220 C 
ENDBRANCH  21  22
ENDBRANCH   1  21
TORSDOF 5
