REMARK  Name = ZINCpk00000KfKVW.0
REMARK                            x       y       z     vdW  Elec       q    Type
REMARK                         _______ _______ _______ _____ _____    ______ ____
ROOT
ATOM      1  C   LIG    1        1.401   9.094   0.036  0.00  0.00    +0.570 C 
ATOM      2  N   LIG    1        0.850   7.864   0.035  0.00  0.00    -0.720 N 
ATOM      3  H   LIG    1       -0.115   7.765   0.044  0.00  0.00    +0.410 HD
ATOM      4  O   LIG    1        2.610   9.219   0.024  0.00  0.00    -0.540 OA
ENDROOT
BRANCH   1   8
ATOM      5  C   LIG    1       -1.120  12.450   0.078  0.00  0.00    +0.340 A 
ATOM      6  C   LIG    1        0.259  12.656   0.065  0.00  0.00    -0.060 A 
ATOM      7  C   LIG    1        1.099  11.575   0.052  0.00  0.00    +0.160 A 
ATOM      8  C   LIG    1        0.536  10.290   0.051  0.00  0.00    -0.230 A 
ATOM      9  C   LIG    1       -0.854  10.158   0.058  0.00  0.00    +0.330 A 
ATOM     10  N   LIG    1       -1.626  11.224   0.076  0.00  0.00    -0.520 NA
BRANCH   5  15
ATOM     11  C   LIG    1       -4.882  16.545   0.977  0.00  0.00    +0.030 C 
ATOM     12  C   LIG    1       -4.018  15.293   1.135  0.00  0.00    -0.030 C 
ATOM     13  C   LIG    1       -4.287  14.334  -0.029  0.00  0.00    +0.020 C 
ATOM     14  C   LIG    1       -3.377  13.111   0.103  0.00  0.00    +0.210 C 
ATOM     15  N   LIG    1       -1.972  13.541   0.092  0.00  0.00    -0.470 N 
ATOM     16  C   LIG    1       -1.678  14.425   1.227  0.00  0.00    +0.200 C 
ATOM     17  C   LIG    1       -2.538  15.687   1.129  0.00  0.00    +0.050 C 
ENDBRANCH   5  15
ENDBRANCH   1   8
BRANCH   2  18
ATOM     18  C   LIG    1        1.708   6.677   0.020  0.00  0.00    +0.330 C 
BRANCH  18  19
ATOM     19  C   LIG    1        0.851   5.437   0.022  0.00  0.00    +0.510 C 
ATOM     20  N   LIG    1        1.428   4.219   0.010  0.00  0.00    -0.640 N 
ATOM     21  H   LIG    1        2.395   4.141   0.000  0.00  0.00    +0.420 HD
ATOM     22  O   LIG    1       -0.358   5.536   0.035  0.00  0.00    -0.520 OA
BRANCH  20  23
ATOM     23  C   LIG    1        0.628   3.062   0.013  0.00  0.00    -0.010 A 
ATOM     24  C   LIG    1        1.076   1.780   0.001  0.00  0.00    +0.210 A 
ATOM     25  N   LIG    1       -0.011   0.966   0.007  0.00  0.00    -0.470 N 
ATOM     26  H   LIG    1        0.002  -0.004   0.002  0.00  0.00    +0.450 HD
ATOM     27  N   LIG    1       -1.155   1.775   0.017  0.00  0.00    -0.280 NA
ATOM     28  C   LIG    1       -0.774   3.026   0.026  0.00  0.00    +0.270 A 
ENDBRANCH  20  23
ENDBRANCH  18  19
ENDBRANCH   2  18
TORSDOF 5
