REMARK  Name = ZINCpk00000xIc39.0
REMARK                            x       y       z     vdW  Elec       q    Type
REMARK                         _______ _______ _______ _____ _____    ______ ____
ROOT
ATOM      1  C   LIG    1        4.019  -6.155   1.153  0.00  0.00    +0.350 A 
ATOM      2  N   LIG    1        3.462  -6.497   2.310  0.00  0.00    -0.550 NA
ATOM      3  C   LIG    1        3.334  -5.614   3.280  0.00  0.00    +0.510 A 
ATOM      4  N   LIG    1        3.746  -4.370   3.145  0.00  0.00    -0.520 NA
ATOM      5  C   LIG    1        4.312  -3.954   2.017  0.00  0.00    +0.180 A 
ATOM      6  C   LIG    1        4.764  -2.522   1.907  0.00  0.00    +0.080 C 
ATOM      7  C   LIG    1        5.733  -2.371   0.734  0.00  0.00    +0.240 C 
ATOM      8  N   LIG    1        5.126  -2.985  -0.458  0.00  0.00    -0.510 NA
ATOM      9  C   LIG    1        5.104  -4.446  -0.324  0.00  0.00    +0.310 C 
ATOM     10  C   LIG    1        4.468  -4.841   0.980  0.00  0.00    -0.190 A 
ENDROOT
BRANCH   1  12
ATOM     11  C   LIG    1        5.022  -8.194   0.545  0.00  0.00    +0.230 C 
ATOM     12  N   LIG    1        4.152  -7.084   0.134  0.00  0.00    -0.490 N 
ATOM     13  C   LIG    1        2.840  -7.578  -0.303  0.00  0.00    +0.230 C 
ENDBRANCH   1  12
BRANCH   8  14
ATOM     14  C   LIG    1        3.776  -2.457  -0.692  0.00  0.00    +0.160 C 
BRANCH  14  15
ATOM     15  C   LIG    1        3.864  -0.972  -1.052  0.00  0.00    +0.230 C 
BRANCH  15  16
ATOM     16  O   LIG    1        4.548  -0.823  -2.297  0.00  0.00    -0.530 OA
ATOM     17  H   LIG    1        4.119  -1.272  -3.038  0.00  0.00    +0.370 HD
ENDBRANCH  15  16
BRANCH  15  18
ATOM     18  C   LIG    1        2.453  -0.393  -1.173  0.00  0.00    +0.170 C 
BRANCH  18  19
ATOM     19  O   LIG    1        2.534   1.017  -1.393  0.00  0.00    -0.290 OA
BRANCH  19  20
ATOM     20  C   LIG    1        1.361   1.690  -1.524  0.00  0.00    +0.100 A 
ATOM     21  C   LIG    1        0.156   1.009  -1.443  0.00  0.00    -0.050 A 
ATOM     22  C   LIG    1       -1.036   1.694  -1.582  0.00  0.00    +0.040 A 
ATOM     23  C   LIG    1       -1.030   3.060  -1.792  0.00  0.00    +0.010 A 
ATOM     24  C   LIG    1        0.170   3.744  -1.874  0.00  0.00    +0.020 A 
ATOM     25  C   LIG    1        1.366   3.063  -1.741  0.00  0.00    +0.070 A 
ATOM     26  F   LIG    1        2.537   3.731  -1.821  0.00  0.00    -0.130 F 
ENDBRANCH  19  20
ENDBRANCH  18  19
ENDBRANCH  15  18
ENDBRANCH  14  15
ENDBRANCH   8  14
TORSDOF 7
