REMARK  Name = ZINCtV00000L6koo.0
REMARK                            x       y       z     vdW  Elec       q    Type
REMARK                         _______ _______ _______ _____ _____    ______ ____
ROOT
ATOM      1  O   LIG    1        0.219   2.397   2.937  0.00  0.00    -0.490 OA
ATOM      2  C   LIG    1        0.157   2.454   1.725  0.00  0.00    +0.580 C 
ATOM      3  N   LIG    1       -0.485   1.489   1.037  0.00  0.00    -0.510 N 
ENDROOT
BRANCH   3   4
ATOM      4  C   LIG    1       -0.622   1.593  -0.347  0.00  0.00    +0.320 A 
ATOM      5  C   LIG    1       -1.710   2.273  -0.882  0.00  0.00    -0.010 A 
ATOM      6  C   LIG    1       -1.838   2.363  -2.257  0.00  0.00    +0.090 A 
ATOM      7  C   LIG    1       -0.868   1.769  -3.052  0.00  0.00    -0.010 A 
ATOM      8  C   LIG    1        0.187   1.109  -2.453  0.00  0.00    +0.290 A 
ATOM      9  N   LIG    1        0.282   1.039  -1.139  0.00  0.00    -0.480 NA
ENDBRANCH   3   4
BRANCH   3  10
ATOM     10  C   LIG    1       -1.013   0.382   1.712  0.00  0.00    +0.130 A 
ATOM     11  C   LIG    1       -0.632  -0.902   1.347  0.00  0.00    +0.020 A 
ATOM     12  C   LIG    1       -1.151  -1.992   2.018  0.00  0.00    +0.020 A 
ATOM     13  C   LIG    1       -2.059  -1.806   3.044  0.00  0.00    +0.020 A 
ATOM     14  C   LIG    1       -2.445  -0.528   3.406  0.00  0.00    +0.020 A 
ATOM     15  C   LIG    1       -1.925   0.566   2.743  0.00  0.00    +0.030 A 
ENDBRANCH   3  10
BRANCH   2  16
ATOM     16  C   LIG    1        0.785   3.581   1.005  0.00  0.00    -0.130 A 
ATOM     17  C   LIG    1        1.688   3.336  -0.032  0.00  0.00    +0.150 A 
ATOM     18  C   LIG    1        2.267   4.393  -0.703  0.00  0.00    -0.190 A 
ATOM     19  C   LIG    1        1.963   5.694  -0.344  0.00  0.00    +0.160 A 
ATOM     20  C   LIG    1        1.073   5.944   0.686  0.00  0.00    -0.190 A 
ATOM     21  C   LIG    1        0.483   4.897   1.362  0.00  0.00    +0.170 A 
BRANCH  20  22
ATOM     22  C   LIG    1        0.748   7.365   1.070  0.00  0.00    +0.510 C 
ATOM     23  F   LIG    1       -0.557   7.426   1.570  0.00  0.00    -0.170 F 
ATOM     24  F   LIG    1        0.855   8.188  -0.056  0.00  0.00    -0.170 F 
ATOM     25  F   LIG    1        1.645   7.800   2.052  0.00  0.00    -0.170 F 
ENDBRANCH  20  22
BRANCH  18  26
ATOM     26  C   LIG    1        3.236   4.130  -1.826  0.00  0.00    +0.510 C 
ATOM     27  F   LIG    1        2.560   4.185  -3.049  0.00  0.00    -0.170 F 
ATOM     28  F   LIG    1        3.804   2.861  -1.664  0.00  0.00    -0.170 F 
ATOM     29  F   LIG    1        4.246   5.098  -1.807  0.00  0.00    -0.170 F 
ENDBRANCH  18  26
ENDBRANCH   2  16
TORSDOF 5
