REMARK  Name = ZINCrH000004v71a.0
REMARK                            x       y       z     vdW  Elec       q    Type
REMARK                         _______ _______ _______ _____ _____    ______ ____
ROOT
ATOM      1  N   LIG    1        5.810  -1.134  -0.263  0.00  0.00    -0.680 N 
ATOM      2  H   LIG    1        6.674  -0.702  -0.183  0.00  0.00    +0.410 HD
ATOM      3  C   LIG    1        5.737  -2.467  -0.445  0.00  0.00    +0.720 C 
ATOM      4  N   LIG    1        6.865  -3.187  -0.610  0.00  0.00    -0.630 N 
ATOM      5  C   LIG    1        8.233  -2.648  -0.613  0.00  0.00    +0.240 C 
ATOM      6  C   LIG    1        9.191  -3.833  -0.860  0.00  0.00    +0.040 C 
ATOM      7  C   LIG    1        8.277  -4.882  -1.546  0.00  0.00    +0.240 C 
ATOM      8  C   LIG    1        6.931  -4.646  -0.812  0.00  0.00    +0.260 C 
ATOM      9  O   LIG    1        4.655  -3.021  -0.461  0.00  0.00    -0.570 OA
ENDROOT
BRANCH   1  13
ATOM     10  C   LIG    1        2.316   1.133  -0.041  0.00  0.00    +0.130 A 
ATOM     11  C   LIG    1        2.346  -0.151   0.489  0.00  0.00    +0.010 A 
ATOM     12  C   LIG    1        3.501  -0.903   0.411  0.00  0.00    +0.040 A 
ATOM     13  C   LIG    1        4.636  -0.372  -0.188  0.00  0.00    +0.150 A 
ATOM     14  C   LIG    1        4.608   0.913  -0.713  0.00  0.00    +0.000 A 
ATOM     15  C   LIG    1        3.451   1.663  -0.640  0.00  0.00    +0.040 A 
BRANCH  10  18
ATOM     16  O   LIG    1        1.586   2.896  -1.896  0.00  0.00    -0.520 OA
ATOM     17  C   LIG    1        0.820   2.735  -0.970  0.00  0.00    +0.540 C 
ATOM     18  N   LIG    1        1.142   1.894   0.033  0.00  0.00    -0.670 N 
ATOM     19  H   LIG    1        0.562   1.816   0.806  0.00  0.00    +0.410 HD
BRANCH  17  20
ATOM     20  C   LIG    1       -0.489   3.480  -0.937  0.00  0.00    -0.070 C 
ATOM     21  C   LIG    1       -1.547   3.096  -1.973  0.00  0.00    +0.060 C 
ATOM     22  C   LIG    1       -0.795   4.423  -2.102  0.00  0.00    +0.070 C 
ENDBRANCH  17  20
ENDBRANCH  10  18
ENDBRANCH   1  13
BRANCH   7  23
ATOM     23  N   LIG    1        8.770  -6.241  -1.311  0.00  0.00    -0.740 N 
ATOM     24  H   LIG    1        9.315  -6.432  -0.531  0.00  0.00    +0.400 HD
BRANCH  23  25
ATOM     25  C   LIG    1        8.456  -7.263  -2.210  0.00  0.00    +0.210 A 
ATOM     26  C   LIG    1        7.671  -6.994  -3.324  0.00  0.00    -0.080 A 
ATOM     27  C   LIG    1        7.367  -8.005  -4.213  0.00  0.00    +0.050 A 
ATOM     28  C   LIG    1        7.833  -9.288  -3.990  0.00  0.00    -0.060 A 
ATOM     29  C   LIG    1        8.610  -9.561  -2.879  0.00  0.00    +0.050 A 
ATOM     30  C   LIG    1        8.923  -8.553  -1.989  0.00  0.00    -0.070 A 
ENDBRANCH  23  25
ENDBRANCH   7  23
TORSDOF 5
