REMARK  Name = ZINCpk000000mWzp.0
REMARK                            x       y       z     vdW  Elec       q    Type
REMARK                         _______ _______ _______ _____ _____    ______ ____
ROOT
ATOM      1  C   LIG    1       -0.525   2.534   3.459  0.00  0.00    +0.250 C 
ENDROOT
BRANCH   1   2
ATOM      2  C   LIG    1       -1.462   1.474   3.980  0.00  0.00    +0.500 C 
ATOM      3  N   LIG    1       -1.728   1.400   5.299  0.00  0.00    -0.610 N 
ATOM      4  C   LIG    1       -2.540   0.305   5.781  0.00  0.00    +0.290 C 
ATOM      5  C   LIG    1       -1.632  -0.899   6.134  0.00  0.00    -0.020 C 
ATOM      6  C   LIG    1       -0.856  -0.614   7.351  0.00  0.00    +0.160 C 
ATOM      7  C   LIG    1        0.108   0.561   7.220  0.00  0.00    +0.050 C 
ATOM      8  C   LIG    1       -0.629   1.847   7.502  0.00  0.00    -0.070 C 
ATOM      9  C   LIG    1        0.330   2.851   8.146  0.00  0.00    +0.040 C 
ATOM     10  C   LIG    1       -1.789   1.568   8.459  0.00  0.00    +0.030 C 
ATOM     11  C   LIG    1       -1.175   2.436   6.192  0.00  0.00    +0.260 C 
ATOM     12  O   LIG    1       -1.975   0.689   3.212  0.00  0.00    -0.500 OA
BRANCH   6  13
ATOM     13  O   LIG    1       -0.103  -1.779   7.692  0.00  0.00    -0.570 OA
ATOM     14  H   LIG    1       -0.646  -2.561   7.866  0.00  0.00    +0.380 HD
ENDBRANCH   6  13
ENDBRANCH   1   2
BRANCH   1  17
ATOM     15  C   LIG    1       -0.607   1.715  -0.280  0.00  0.00    +0.090 C 
ATOM     16  C   LIG    1       -1.034   2.067   1.123  0.00  0.00    +0.520 C 
ATOM     17  N   LIG    1       -0.110   2.192   2.096  0.00  0.00    -0.720 N 
ATOM     18  H   LIG    1        0.829   2.057   1.895  0.00  0.00    +0.410 HD
ATOM     19  O   LIG    1       -2.208   2.237   1.375  0.00  0.00    -0.520 OA
ENDBRANCH   1  17
BRANCH   1  20
ATOM     20  C   LIG    1       -1.240   3.887   3.451  0.00  0.00    +0.090 C 
BRANCH  20  21
ATOM     21  C   LIG    1       -0.267   4.966   3.051  0.00  0.00    -0.090 A 
ATOM     22  C   LIG    1        0.467   5.627   4.019  0.00  0.00    +0.030 A 
ATOM     23  C   LIG    1        1.363   6.613   3.655  0.00  0.00    -0.010 A 
ATOM     24  C   LIG    1        1.518   6.948   2.318  0.00  0.00    +0.100 A 
ATOM     25  C   LIG    1        0.776   6.288   1.349  0.00  0.00    -0.010 A 
ATOM     26  C   LIG    1       -0.115   5.299   1.718  0.00  0.00    +0.030 A 
BRANCH  24  27
ATOM     27  O   LIG    1        2.396   7.921   1.957  0.00  0.00    -0.500 OA
ATOM     28  H   LIG    1        2.011   8.808   1.931  0.00  0.00    +0.390 HD
ENDBRANCH  24  27
ENDBRANCH  20  21
ENDBRANCH   1  20
TORSDOF 6
