REMARK  Name = ZINCpk00000K9bTG.0
REMARK                            x       y       z     vdW  Elec       q    Type
REMARK                         _______ _______ _______ _____ _____    ______ ____
ROOT
ATOM      1  O   LIG    1        7.006   1.599  -0.048  0.00  0.00    -0.500 OA
ATOM      2  C   LIG    1        5.950   2.200  -0.043  0.00  0.00    +0.580 C 
ATOM      3  N   LIG    1        5.941   3.548  -0.036  0.00  0.00    -0.640 N 
ATOM      4  H   LIG    1        5.101   4.028  -0.099  0.00  0.00    +0.430 HD
ENDROOT
BRANCH   3   5
ATOM      5  C   LIG    1        7.138   4.251   0.061  0.00  0.00    +0.210 A 
ATOM      6  C   LIG    1        8.293   3.760  -0.545  0.00  0.00    +0.060 A 
ATOM      7  C   LIG    1        9.482   4.455  -0.451  0.00  0.00    +0.080 A 
ATOM      8  C   LIG    1        9.549   5.651   0.245  0.00  0.00    +0.080 A 
ATOM      9  C   LIG    1        8.412   6.158   0.856  0.00  0.00    -0.090 A 
ATOM     10  C   LIG    1        8.438   7.430   1.609  0.00  0.00    +0.570 A 
ATOM     11  O   LIG    1        9.470   8.063   1.708  0.00  0.00    -0.510 OA
ATOM     12  N   LIG    1        7.306   7.882   2.186  0.00  0.00    -0.510 N 
ATOM     13  H   LIG    1        7.330   8.717   2.679  0.00  0.00    +0.430 HD
ATOM     14  N   LIG    1        6.101   7.184   2.094  0.00  0.00    -0.500 N 
ATOM     15  H   LIG    1        5.313   7.548   2.526  0.00  0.00    +0.430 HD
ATOM     16  C   LIG    1        6.001   6.019   1.426  0.00  0.00    +0.570 A 
ATOM     17  O   LIG    1        4.935   5.436   1.367  0.00  0.00    -0.510 OA
ATOM     18  C   LIG    1        7.192   5.457   0.761  0.00  0.00    -0.140 A 
ENDBRANCH   3   5
BRANCH   2  19
ATOM     19  C   LIG    1        4.672   1.451  -0.042  0.00  0.00    +0.050 A 
ATOM     20  N   LIG    1        3.526   2.109  -0.036  0.00  0.00    -0.380 NA
ATOM     21  C   LIG    1        2.376   1.434  -0.037  0.00  0.00    +0.080 A 
ATOM     22  C   LIG    1        1.139   2.107  -0.031  0.00  0.00    +0.080 A 
ATOM     23  C   LIG    1       -0.017   1.391  -0.031  0.00  0.00    +0.040 A 
ATOM     24  C   LIG    1        0.002  -0.003  -0.037  0.00  0.00    +0.060 A 
ATOM     25  C   LIG    1        1.177  -0.689  -0.043  0.00  0.00    +0.060 A 
ATOM     26  C   LIG    1        2.394   0.014  -0.043  0.00  0.00    +0.100 A 
ATOM     27  N   LIG    1        3.564  -0.635  -0.049  0.00  0.00    -0.420 NA
ATOM     28  C   LIG    1        4.687   0.045  -0.049  0.00  0.00    +0.320 A 
ENDBRANCH   2  19
TORSDOF 2
