REMARK  Name = ZINCrg00000y7mb8.0
REMARK                            x       y       z     vdW  Elec       q    Type
REMARK                         _______ _______ _______ _____ _____    ______ ____
ROOT
ATOM      1  N   LIG    1       -2.506  -2.697  -0.302  0.00  0.00    -0.620 N 
ATOM      2  H   LIG    1       -3.344  -2.252  -0.099  0.00  0.00    +0.430 HD
ATOM      3  C   LIG    1       -1.348  -2.009  -0.246  0.00  0.00    +0.470 C 
ATOM      4  O   LIG    1       -0.300  -2.564  -0.500  0.00  0.00    -0.500 OA
ENDROOT
BRANCH   1   6
ATOM      5  C   LIG    1       -3.617  -4.830  -0.728  0.00  0.00    -0.220 A 
ATOM      6  C   LIG    1       -2.499  -4.039  -0.648  0.00  0.00    +0.080 A 
ATOM      7  S   LIG    1       -1.100  -4.935  -1.025  0.00  0.00    +0.310 S 
ATOM      8  C   LIG    1       -2.020  -6.402  -1.305  0.00  0.00    -0.250 A 
ATOM      9  C   LIG    1       -3.314  -6.190  -1.115  0.00  0.00    +0.080 A 
BRANCH   5  10
ATOM     10  C   LIG    1       -4.973  -4.347  -0.455  0.00  0.00    +0.540 C 
ATOM     11  O   LIG    1       -5.153  -3.187  -0.137  0.00  0.00    -0.530 OA
BRANCH  10  12
ATOM     12  O   LIG    1       -6.021  -5.189  -0.556  0.00  0.00    -0.350 OA
BRANCH  12  14
ATOM     13  C   LIG    1       -8.391  -5.738  -0.436  0.00  0.00    +0.070 C 
ATOM     14  C   LIG    1       -7.336  -4.642  -0.271  0.00  0.00    +0.200 C 
ENDBRANCH  12  14
ENDBRANCH  10  12
ENDBRANCH   5  10
BRANCH   8  15
ATOM     15  C   LIG    1       -1.420  -7.725  -1.708  0.00  0.00    +0.100 C 
ATOM     16  C   LIG    1       -1.363  -7.816  -3.234  0.00  0.00    +0.030 C 
ENDBRANCH   8  15
ENDBRANCH   1   6
BRANCH   3  17
ATOM     17  C   LIG    1       -1.356  -0.550   0.130  0.00  0.00    +0.290 C 
BRANCH  17  18
ATOM     18  N   LIG    1        0.027  -0.067   0.248  0.00  0.00    -0.520 NA
ATOM     19  C   LIG    1        0.738  -0.771   1.314  0.00  0.00    +0.180 C 
ATOM     20  C   LIG    1        2.193  -0.289   1.470  0.00  0.00    +0.080 C 
ATOM     21  C   LIG    1        2.841  -0.439   0.113  0.00  0.00    -0.010 C 
ATOM     22  C   LIG    1        4.239   0.039  -0.109  0.00  0.00    +0.550 C 
ATOM     23  N   LIG    1        4.282   0.477  -1.397  0.00  0.00    -0.700 N 
ATOM     24  H   LIG    1        5.109   0.674  -1.865  0.00  0.00    +0.420 HD
ATOM     25  C   LIG    1        3.052   0.613  -1.964  0.00  0.00    +0.550 C 
ATOM     26  O   LIG    1        2.803   0.773  -3.139  0.00  0.00    -0.470 OA
ATOM     27  O   LIG    1        5.148   0.036   0.693  0.00  0.00    -0.470 OA
ATOM     28  C   LIG    1        2.071   0.526  -0.839  0.00  0.00    +0.000 C 
ATOM     29  C   LIG    1        0.715  -0.103  -1.064  0.00  0.00    +0.240 C 
ENDBRANCH  17  18
ENDBRANCH   3  17
TORSDOF 7
