REMARK  Name = ZINCpk00000KfLey.0
REMARK                            x       y       z     vdW  Elec       q    Type
REMARK                         _______ _______ _______ _____ _____    ______ ____
ROOT
ATOM      1  C   LIG    1       -1.003  -0.934   0.553  0.00  0.00    +0.380 A 
ATOM      2  N   LIG    1       -0.889  -2.256   0.572  0.00  0.00    -0.580 NA
ATOM      3  C   LIG    1        0.230  -2.840   0.192  0.00  0.00    +0.540 A 
ATOM      4  N   LIG    1        1.271  -2.144  -0.216  0.00  0.00    -0.540 NA
ATOM      5  C   LIG    1        1.233  -0.817  -0.261  0.00  0.00    +0.200 A 
ATOM      6  C   LIG    1        2.449  -0.062  -0.726  0.00  0.00    +0.090 C 
ATOM      7  C   LIG    1        2.062   1.372  -1.093  0.00  0.00    +0.240 C 
ATOM      8  N   LIG    1        1.291   1.949   0.020  0.00  0.00    -0.510 NA
ATOM      9  C   LIG    1       -0.037   1.331   0.095  0.00  0.00    +0.300 C 
ATOM     10  C   LIG    1        0.083  -0.167   0.123  0.00  0.00    -0.240 A 
ENDROOT
BRANCH   1  11
ATOM     11  O   LIG    1       -2.155  -0.336   0.944  0.00  0.00    -0.300 OA
BRANCH  11  13
ATOM     12  C   LIG    1       -4.426  -0.343   1.769  0.00  0.00    +0.070 C 
ATOM     13  C   LIG    1       -3.217  -1.192   1.369  0.00  0.00    +0.200 C 
ENDBRANCH  11  13
ENDBRANCH   1  11
BRANCH   8  14
ATOM     14  C   LIG    1        2.012   1.802   1.292  0.00  0.00    +0.270 C 
BRANCH  14  15
ATOM     15  C   LIG    1        1.306   2.593   2.363  0.00  0.00    +0.220 A 
ATOM     16  C   LIG    1        0.735   1.940   3.439  0.00  0.00    -0.180 A 
ATOM     17  C   LIG    1        0.089   2.697   4.424  0.00  0.00    +0.510 A 
ATOM     18  N   LIG    1        0.035   4.039   4.287  0.00  0.00    -0.430 N 
ATOM     19  C   LIG    1       -0.594   4.788   5.235  0.00  0.00    +0.280 A 
ATOM     20  C   LIG    1       -0.661   6.133   5.120  0.00  0.00    -0.010 A 
ATOM     21  C   LIG    1       -0.081   6.776   4.017  0.00  0.00    +0.120 A 
ATOM     22  C   LIG    1        0.551   6.035   3.063  0.00  0.00    +0.040 A 
ATOM     23  C   LIG    1        0.611   4.636   3.201  0.00  0.00    +0.390 A 
ATOM     24  O   LIG    1       -0.420   2.151   5.390  0.00  0.00    -0.530 OA
ATOM     25  N   LIG    1        1.228   3.911   2.270  0.00  0.00    -0.520 NA
ENDBRANCH  14  15
ENDBRANCH   8  14
TORSDOF 4
