REMARK  Name = ZINCpe00000MJK3O.0
REMARK                            x       y       z     vdW  Elec       q    Type
REMARK                         _______ _______ _______ _____ _____    ______ ____
ROOT
ATOM      1  N   LIG    1        1.016   1.296  -0.150  0.00  0.00    -0.500 NA
ENDROOT
BRANCH   1   2
ATOM      2  C   LIG    1       -0.415   0.986  -0.034  0.00  0.00    +0.160 C 
ATOM      3  C   LIG    1       -0.951   1.562   1.273  0.00  0.00    +0.030 C 
ATOM      4  C   LIG    1       -2.363   1.038   1.537  0.00  0.00    -0.320 C 
ATOM      5  S   LIG    1       -3.469   1.633   0.223  0.00  0.00    +2.410 S 
ATOM      6  C   LIG    1       -2.595   1.061  -1.263  0.00  0.00    -0.330 C 
ATOM      7  O   LIG    1       -4.705   0.940   0.319  0.00  0.00    -0.940 OA
ATOM      8  O   LIG    1       -3.465   3.054   0.235  0.00  0.00    -0.930 OA
ATOM      9  C   LIG    1       -1.157   1.582  -1.227  0.00  0.00    +0.100 C 
ENDBRANCH   1   2
BRANCH   1  10
ATOM     10  C   LIG    1        1.267   2.722   0.094  0.00  0.00    +0.220 C 
BRANCH  10  13
ATOM     11  N   LIG    1        0.956   4.857  -1.116  0.00  0.00    -0.680 N 
ATOM     12  H   LIG    1        1.223   5.320  -0.307  0.00  0.00    +0.410 HD
ATOM     13  C   LIG    1        0.940   3.510  -1.149  0.00  0.00    +0.510 C 
ATOM     14  O   LIG    1        0.663   2.931  -2.178  0.00  0.00    -0.490 OA
BRANCH  11  19
ATOM     15  C   LIG    1        0.566   5.860  -4.636  0.00  0.00    +0.140 A 
ATOM     16  C   LIG    1       -0.148   7.041  -4.492  0.00  0.00    -0.090 A 
ATOM     17  C   LIG    1       -0.492   7.494  -3.233  0.00  0.00    +0.070 A 
ATOM     18  C   LIG    1       -0.133   6.769  -2.113  0.00  0.00    -0.050 A 
ATOM     19  C   LIG    1        0.586   5.588  -2.251  0.00  0.00    +0.180 A 
ATOM     20  C   LIG    1        0.934   5.132  -3.514  0.00  0.00    +0.000 A 
BRANCH  15  22
ATOM     21  C   LIG    1        0.493   6.216  -6.985  0.00  0.00    +0.250 C 
ATOM     22  O   LIG    1        0.904   5.416  -5.875  0.00  0.00    -0.320 OA
ENDBRANCH  15  22
ENDBRANCH  11  19
ENDBRANCH  10  13
ENDBRANCH   1  10
BRANCH   1  23
ATOM     23  C   LIG    1        1.811   0.458   0.759  0.00  0.00    +0.160 C 
BRANCH  23  24
ATOM     24  C   LIG    1        3.252   0.382   0.252  0.00  0.00    +0.220 C 
ATOM     25  C   LIG    1        4.017  -0.677   1.048  0.00  0.00    +0.010 C 
BRANCH  24  26
ATOM     26  O   LIG    1        3.884   1.652   0.419  0.00  0.00    -0.560 OA
ATOM     27  H   LIG    1        3.920   1.956   1.336  0.00  0.00    +0.370 HD
ENDBRANCH  24  26
ENDBRANCH  23  24
ENDBRANCH   1  23
TORSDOF 8
