REMARK  Name = ZINCrH000004jSB0.0
REMARK                            x       y       z     vdW  Elec       q    Type
REMARK                         _______ _______ _______ _____ _____    ______ ____
ROOT
ATOM      1  C   LIG    1        0.914   9.585  -1.483  0.00  0.00    -0.290 A 
ATOM      2  C   LIG    1        1.813  10.452  -2.134  0.00  0.00    +0.320 A 
ATOM      3  N   LIG    1        2.936  10.232  -2.819  0.00  0.00    -0.450 NA
ATOM      4  C   LIG    1        3.616  11.225  -3.353  0.00  0.00    +0.380 A 
ATOM      5  C   LIG    1        3.167  12.538  -3.216  0.00  0.00    -0.040 A 
ATOM      6  C   LIG    1        2.002  12.780  -2.514  0.00  0.00    +0.240 A 
ATOM      7  N   LIG    1        1.324  11.717  -1.974  0.00  0.00    -0.300 N 
ATOM      8  N   LIG    1        0.144  11.637  -1.227  0.00  0.00    -0.300 NA
ATOM      9  C   LIG    1       -0.104  10.387  -0.935  0.00  0.00    +0.330 A 
ENDROOT
BRANCH   6  10
ATOM     10  C   LIG    1        1.496  14.158  -2.349  0.00  0.00    -0.080 A 
ATOM     11  C   LIG    1        1.431  14.733  -1.078  0.00  0.00    +0.050 A 
ATOM     12  C   LIG    1        0.962  16.022  -0.931  0.00  0.00    +0.010 A 
ATOM     13  C   LIG    1        0.546  16.741  -2.038  0.00  0.00    +0.040 A 
ATOM     14  C   LIG    1        0.602  16.175  -3.299  0.00  0.00    +0.010 A 
ATOM     15  C   LIG    1        1.074  14.889  -3.461  0.00  0.00    +0.050 A 
ENDBRANCH   6  10
BRANCH   1  18
ATOM     16  C   LIG    1       -1.413   8.002  -1.424  0.00  0.00    +0.280 C 
ATOM     17  N   LIG    1       -0.092   7.367  -1.407  0.00  0.00    -0.620 N 
ATOM     18  C   LIG    1        1.021   8.126  -1.389  0.00  0.00    +0.600 C 
ATOM     19  O   LIG    1        2.115   7.601  -1.296  0.00  0.00    -0.520 OA
BRANCH  17  20
ATOM     20  C   LIG    1        0.018   5.906  -1.408  0.00  0.00    +0.300 C 
BRANCH  20  21
ATOM     21  C   LIG    1        0.036   5.394   0.034  0.00  0.00    +0.050 C 
BRANCH  21  22
ATOM     22  C   LIG    1        0.149   3.891   0.032  0.00  0.00    -0.080 A 
ATOM     23  C   LIG    1        1.395   3.292   0.048  0.00  0.00    +0.010 A 
ATOM     24  C   LIG    1        1.499   1.914   0.047  0.00  0.00    +0.000 A 
ATOM     25  C   LIG    1        0.357   1.134   0.031  0.00  0.00    +0.000 A 
ATOM     26  C   LIG    1       -0.888   1.734   0.009  0.00  0.00    +0.000 A 
ATOM     27  C   LIG    1       -0.992   3.112   0.014  0.00  0.00    +0.000 A 
ENDBRANCH  21  22
ENDBRANCH  20  21
ENDBRANCH  17  20
ENDBRANCH   1  18
TORSDOF 5
