REMARK  Name = ZINCtV000002OKSJ.0
REMARK                            x       y       z     vdW  Elec       q    Type
REMARK                         _______ _______ _______ _____ _____    ______ ____
ROOT
ATOM      1  O   LIG    1       -2.383   2.992   4.169  0.00  0.00    -0.470 OA
ATOM      2  C   LIG    1       -3.373   3.685   4.032  0.00  0.00    +0.560 C 
ATOM      3  N   LIG    1       -4.029   4.143   5.117  0.00  0.00    -0.620 N 
ATOM      4  H   LIG    1       -4.819   4.696   5.007  0.00  0.00    +0.420 HD
ENDROOT
BRANCH   3   5
ATOM      5  C   LIG    1       -3.577   3.824   6.386  0.00  0.00    +0.300 A 
ATOM      6  N   LIG    1       -4.127   4.214   7.486  0.00  0.00    -0.500 NA
ATOM      7  C   LIG    1       -3.576   3.821   8.638  0.00  0.00    +0.130 A 
ATOM      8  C   LIG    1       -2.444   3.029   8.465  0.00  0.00    -0.230 A 
ATOM      9  C   LIG    1       -1.738   2.533   9.571  0.00  0.00    +0.070 A 
ATOM     10  C   LIG    1       -2.117   2.800  10.843  0.00  0.00    +0.040 A 
ATOM     11  C   LIG    1       -3.252   3.594  11.099  0.00  0.00    -0.040 A 
ATOM     12  C   LIG    1       -3.658   3.878  12.414  0.00  0.00    +0.030 A 
ATOM     13  C   LIG    1       -4.761   4.649  12.625  0.00  0.00    +0.020 A 
ATOM     14  C   LIG    1       -5.493   5.162  11.558  0.00  0.00    +0.010 A 
ATOM     15  C   LIG    1       -5.125   4.905  10.270  0.00  0.00    +0.040 A 
ATOM     16  C   LIG    1       -3.997   4.115  10.019  0.00  0.00    -0.010 A 
ATOM     17  S   LIG    1       -2.165   2.836   6.734  0.00  0.00    +0.210 S 
ENDBRANCH   3   5
BRANCH   2  18
ATOM     18  C   LIG    1       -3.853   4.024   2.682  0.00  0.00    -0.130 A 
ATOM     19  C   LIG    1       -4.990   4.820   2.519  0.00  0.00    +0.070 A 
ATOM     20  C   LIG    1       -5.434   5.134   1.254  0.00  0.00    +0.010 A 
ATOM     21  C   LIG    1       -4.760   4.663   0.138  0.00  0.00    +0.080 A 
ATOM     22  C   LIG    1       -3.633   3.881   0.280  0.00  0.00    -0.020 A 
ATOM     23  C   LIG    1       -3.172   3.549   1.549  0.00  0.00    -0.040 A 
BRANCH  23  24
ATOM     24  S   LIG    1       -1.737   2.543   1.735  0.00  0.00    +0.020 S 
BRANCH  24  25
ATOM     25  C   LIG    1       -1.250   2.205   0.020  0.00  0.00    +0.150 C 
BRANCH  25  26
ATOM     26  C   LIG    1       -0.016   1.341   0.009  0.00  0.00    -0.010 A 
ATOM     27  C   LIG    1        0.002  -0.004   0.002  0.00  0.00    -0.030 A 
ATOM     28  C   LIG    1        1.361  -0.395  -0.013  0.00  0.00    -0.060 A 
ATOM     29  C   LIG    1        2.091   0.734  -0.014  0.00  0.00    +0.180 A 
ATOM     30  O   LIG    1        1.252   1.783  -0.000  0.00  0.00    -0.170 OA
ENDBRANCH  25  26
ENDBRANCH  24  25
ENDBRANCH  23  24
ENDBRANCH   2  18
TORSDOF 5
