REMARK  Name = ZINCvU0000000EWI.0
REMARK                            x       y       z     vdW  Elec       q    Type
REMARK                         _______ _______ _______ _____ _____    ______ ____
ROOT
ATOM      1  C   LIG    1        3.094  -6.271   1.758  0.00  0.00    +0.160 A 
ATOM      2  N   LIG    1        2.761  -5.997   0.528  0.00  0.00    -0.270 NA
ATOM      3  N   LIG    1        2.385  -4.772   0.436  0.00  0.00    -0.290 NA
ATOM      4  C   LIG    1        2.466  -4.191   1.610  0.00  0.00    +0.150 A 
ATOM      5  N   LIG    1        2.918  -5.130   2.491  0.00  0.00    -0.450 N 
ENDROOT
BRANCH   1   6
ATOM      6  C   LIG    1        3.582  -7.600   2.276  0.00  0.00    +0.260 C 
BRANCH   6   7
ATOM      7  N   LIG    1        4.783  -8.004   1.533  0.00  0.00    -0.520 NA
ATOM      8  C   LIG    1        5.923  -7.138   1.863  0.00  0.00    +0.190 C 
ATOM      9  C   LIG    1        4.529  -8.011   0.086  0.00  0.00    +0.220 C 
ENDBRANCH   6   7
BRANCH   6  11
ATOM     10  C   LIG    1        2.943  -9.976   2.710  0.00  0.00    +0.040 C 
ATOM     11  C   LIG    1        2.489  -8.653   2.090  0.00  0.00    +0.040 C 
ENDBRANCH   6  11
ENDBRANCH   1   6
BRANCH   4  12
ATOM     12  S   LIG    1        2.062  -2.516   1.980  0.00  0.00    +0.040 S 
BRANCH  12  13
ATOM     13  C   LIG    1        1.559  -1.944   0.339  0.00  0.00    +0.260 C 
BRANCH  13  14
ATOM     14  C   LIG    1        1.157  -0.493   0.413  0.00  0.00    +0.190 A 
ATOM     15  N   LIG    1        1.956   0.523   0.245  0.00  0.00    -0.450 NA
ATOM     16  C   LIG    1        1.253   1.657   0.384  0.00  0.00    +0.170 A 
ATOM     17  C   LIG    1       -0.033   1.310   0.648  0.00  0.00    +0.010 A 
ATOM     18  O   LIG    1       -0.079  -0.040   0.664  0.00  0.00    -0.190 OA
BRANCH  17  19
ATOM     19  C   LIG    1       -1.166   2.233   0.870  0.00  0.00    -0.020 A 
ATOM     20  C   LIG    1       -0.964   3.614   0.829  0.00  0.00    +0.040 A 
ATOM     21  C   LIG    1       -2.027   4.469   1.032  0.00  0.00    +0.020 A 
ATOM     22  C   LIG    1       -3.289   3.962   1.287  0.00  0.00    +0.020 A 
ATOM     23  C   LIG    1       -3.494   2.595   1.335  0.00  0.00    +0.010 A 
ATOM     24  C   LIG    1       -2.441   1.728   1.128  0.00  0.00    +0.030 A 
ENDBRANCH  17  19
ENDBRANCH  13  14
ENDBRANCH  12  13
ENDBRANCH   4  12
BRANCH   5  25
ATOM     25  C   LIG    1        3.164  -4.954   3.925  0.00  0.00    +0.360 C 
BRANCH  25  26
ATOM     26  C   LIG    1        1.908  -5.277   4.693  0.00  0.00    -0.120 A 
ATOM     27  C   LIG    1        0.990  -4.280   4.968  0.00  0.00    +0.040 A 
ATOM     28  C   LIG    1       -0.164  -4.578   5.669  0.00  0.00    +0.010 A 
ATOM     29  C   LIG    1       -0.395  -5.870   6.103  0.00  0.00    +0.030 A 
ATOM     30  C   LIG    1        0.525  -6.865   5.832  0.00  0.00    +0.010 A 
ATOM     31  C   LIG    1        1.677  -6.569   5.127  0.00  0.00    +0.020 A 
ENDBRANCH  25  26
ENDBRANCH   5  25
TORSDOF 9
