REMARK  Name = ZINCrH000004naCr.0
REMARK                            x       y       z     vdW  Elec       q    Type
REMARK                         _______ _______ _______ _____ _____    ______ ____
ROOT
ATOM      1  C   LIG    1       -4.019   6.789  -6.821  0.00  0.00    +0.130 A 
ATOM      2  C   LIG    1       -4.713   5.703  -6.308  0.00  0.00    -0.080 A 
ATOM      3  C   LIG    1       -4.036   4.539  -6.009  0.00  0.00    +0.060 A 
ATOM      4  C   LIG    1       -2.666   4.446  -6.217  0.00  0.00    -0.130 A 
ATOM      5  C   LIG    1       -1.972   5.524  -6.720  0.00  0.00    -0.030 A 
ATOM      6  C   LIG    1       -0.485   5.502  -6.955  0.00  0.00    +0.080 C 
ATOM      7  C   LIG    1        0.029   4.071  -7.040  0.00  0.00    +0.230 C 
ATOM      8  N   LIG    1       -0.535   3.313  -5.911  0.00  0.00    -0.600 N 
ATOM      9  C   LIG    1        0.253   2.803  -4.944  0.00  0.00    +0.570 C 
ATOM     10  O   LIG    1       -0.213   2.045  -4.116  0.00  0.00    -0.520 OA
ATOM     11  C   LIG    1        1.557   4.067  -6.953  0.00  0.00    +0.050 C 
ATOM     12  C   LIG    1       -1.992   3.140  -5.877  0.00  0.00    +0.270 C 
ATOM     13  C   LIG    1       -2.420   2.696  -4.477  0.00  0.00    +0.060 C 
ATOM     14  C   LIG    1       -2.653   6.696  -7.025  0.00  0.00    -0.020 A 
ENDROOT
BRANCH   9  15
ATOM     15  C   LIG    1        1.683   3.166  -4.891  0.00  0.00    -0.120 A 
ATOM     16  C   LIG    1        2.064   4.459  -4.522  0.00  0.00    +0.070 A 
ATOM     17  C   LIG    1        3.399   4.794  -4.472  0.00  0.00    -0.020 A 
ATOM     18  C   LIG    1        4.368   3.847  -4.789  0.00  0.00    +0.180 A 
ATOM     19  N   LIG    1        5.718   4.188  -4.738  0.00  0.00    -0.660 N 
ATOM     20  H   LIG    1        5.999   4.970  -4.238  0.00  0.00    +0.410 HD
ATOM     21  C   LIG    1        6.637   3.442  -5.378  0.00  0.00    +0.520 C 
ATOM     22  C   LIG    1        6.227   2.233  -6.176  0.00  0.00    +0.080 C 
ATOM     23  C   LIG    1        5.046   1.538  -5.498  0.00  0.00    +0.100 C 
ATOM     24  O   LIG    1        7.809   3.746  -5.311  0.00  0.00    -0.520 OA
ATOM     25  C   LIG    1        3.991   2.559  -5.156  0.00  0.00    -0.120 A 
ATOM     26  C   LIG    1        2.659   2.217  -5.208  0.00  0.00    +0.080 A 
ENDBRANCH   9  15
BRANCH   1  28
ATOM     27  C   LIG    1       -6.086   7.961  -6.885  0.00  0.00    +0.250 C 
ATOM     28  O   LIG    1       -4.677   7.939  -7.122  0.00  0.00    -0.320 OA
ENDBRANCH   1  28
TORSDOF 2
