REMARK  Name = ZINCrH000004uNL9.0
REMARK                            x       y       z     vdW  Elec       q    Type
REMARK                         _______ _______ _______ _____ _____    ______ ____
ROOT
ATOM      1  O   LIG    1        5.768  -1.915   1.225  0.00  0.00    -0.580 OA
ATOM      2  C   LIG    1        5.686  -0.713   1.390  0.00  0.00    +0.710 C 
ATOM      3  N   LIG    1        6.618  -0.068   2.118  0.00  0.00    -0.630 N 
ATOM      4  C   LIG    1        7.796  -0.779   2.637  0.00  0.00    +0.310 C 
ATOM      5  C   LIG    1        9.051   0.014   2.237  0.00  0.00    +0.190 C 
ATOM      6  N   LIG    1        8.914   1.403   2.695  0.00  0.00    -0.490 N 
ATOM      7  C   LIG    1        7.784   2.071   2.035  0.00  0.00    +0.190 C 
ATOM      8  C   LIG    1        6.480   1.365   2.421  0.00  0.00    +0.280 C 
ATOM      9  N   LIG    1        4.663  -0.026   0.843  0.00  0.00    -0.740 N 
ATOM     10  H   LIG    1        4.553   0.917   1.039  0.00  0.00    +0.390 HD
ENDROOT
BRANCH   6  11
ATOM     11  C   LIG    1       10.100   2.114   2.500  0.00  0.00    +0.130 A 
ATOM     12  C   LIG    1       10.092   3.290   1.760  0.00  0.00    -0.050 A 
ATOM     13  C   LIG    1       11.265   3.993   1.568  0.00  0.00    +0.050 A 
ATOM     14  C   LIG    1       12.449   3.530   2.110  0.00  0.00    -0.040 A 
ATOM     15  C   LIG    1       12.463   2.355   2.850  0.00  0.00    +0.130 A 
ATOM     16  C   LIG    1       11.287   1.650   3.050  0.00  0.00    -0.040 A 
BRANCH  15  17
ATOM     17  O   LIG    1       13.627   1.901   3.382  0.00  0.00    -0.500 OA
ATOM     18  H   LIG    1       13.808   2.231   4.273  0.00  0.00    +0.390 HD
ENDBRANCH  15  17
ENDBRANCH   6  11
BRANCH   9  19
ATOM     19  C   LIG    1        3.716  -0.705  -0.045  0.00  0.00    +0.310 C 
BRANCH  19  20
ATOM     20  C   LIG    1        2.399   0.027  -0.030  0.00  0.00    -0.090 A 
ATOM     21  C   LIG    1        1.214  -0.684  -0.029  0.00  0.00    +0.020 A 
ATOM     22  C   LIG    1        0.005  -0.013  -0.015  0.00  0.00    +0.010 A 
ATOM     23  C   LIG    1       -0.018   1.369   0.000  0.00  0.00    +0.000 A 
ATOM     24  C   LIG    1        1.168   2.080   0.001  0.00  0.00    +0.000 A 
ATOM     25  C   LIG    1        2.376   1.409  -0.015  0.00  0.00    +0.000 A 
ENDBRANCH  19  20
BRANCH  19  26
ATOM     26  C   LIG    1        4.275  -0.719  -1.470  0.00  0.00    -0.030 C 
ATOM     27  C   LIG    1        3.683  -1.831  -2.352  0.00  0.00    +0.020 C 
ATOM     28  C   LIG    1        5.099  -2.026  -2.919  0.00  0.00    +0.010 C 
ATOM     29  C   LIG    1        5.624  -1.446  -1.595  0.00  0.00    +0.020 C 
ENDBRANCH  19  26
ENDBRANCH   9  19
TORSDOF 5
