REMARK  Name = ZINCqH000000886C.0
REMARK                            x       y       z     vdW  Elec       q    Type
REMARK                         _______ _______ _______ _____ _____    ______ ____
ROOT
ATOM      1  C   LIG    1        3.695   2.667   2.180  0.00  0.00    +0.520 C 
ATOM      2  N   LIG    1        4.539   3.696   1.961  0.00  0.00    -0.730 N 
ATOM      3  H   LIG    1        4.187   4.582   1.782  0.00  0.00    +0.410 HD
ATOM      4  O   LIG    1        4.135   1.559   2.404  0.00  0.00    -0.530 OA
ENDROOT
BRANCH   2   5
ATOM      5  C   LIG    1        5.987   3.475   1.994  0.00  0.00    +0.290 C 
ATOM      6  C   LIG    1        6.657   4.511   1.109  0.00  0.00    +0.060 C 
ATOM      7  C   LIG    1        8.172   4.265   1.111  0.00  0.00    +0.120 C 
ATOM      8  S   LIG    1        8.801   4.786   2.733  0.00  0.00    -0.110 S 
ATOM      9  C   LIG    1        7.648   4.051   3.848  0.00  0.00    -0.070 A 
ATOM     10  C   LIG    1        7.983   4.022   5.203  0.00  0.00    +0.050 A 
ATOM     11  C   LIG    1        7.123   3.471   6.127  0.00  0.00    +0.050 A 
ATOM     12  C   LIG    1        5.915   2.944   5.705  0.00  0.00    -0.040 A 
ATOM     13  C   LIG    1        5.583   2.968   4.367  0.00  0.00    +0.060 A 
ATOM     14 CL   LIG    1        4.818   2.253   6.860  0.00  0.00    -0.060 Cl
ATOM     15  C   LIG    1        6.447   3.520   3.422  0.00  0.00    -0.090 A 
ENDBRANCH   2   5
BRANCH   1  16
ATOM     16  C   LIG    1        2.206   2.894   2.146  0.00  0.00    +0.050 C 
BRANCH  16  17
ATOM     17  C   LIG    1        1.482   1.575   2.424  0.00  0.00    +0.140 C 
BRANCH  17  21
ATOM     18  C   LIG    1       -2.678   2.200   2.296  0.00  0.00    +0.370 A 
ATOM     19  N   LIG    1       -2.032   1.781   1.226  0.00  0.00    -0.540 NA
ATOM     20  C   LIG    1       -0.718   1.572   1.248  0.00  0.00    +0.200 A 
ATOM     21  C   LIG    1       -0.007   1.802   2.390  0.00  0.00    -0.260 A 
ATOM     22  C   LIG    1       -0.687   2.255   3.534  0.00  0.00    +0.530 A 
ATOM     23  O   LIG    1       -0.082   2.472   4.572  0.00  0.00    -0.530 OA
ATOM     24  C   LIG    1       -0.013   1.086   0.008  0.00  0.00    +0.140 C 
ATOM     25  N   LIG    1       -2.021   2.447   3.463  0.00  0.00    -0.620 N 
ATOM     26  H   LIG    1       -2.510   2.760   4.241  0.00  0.00    +0.420 HD
BRANCH  18  28
ATOM     27  C   LIG    1       -4.724   1.983   0.491  0.00  0.00    +0.180 C 
ATOM     28  S   LIG    1       -4.420   2.453   2.213  0.00  0.00    -0.000 S 
ENDBRANCH  18  28
ENDBRANCH  17  21
ENDBRANCH  16  17
ENDBRANCH   1  16
TORSDOF 5
