REMARK  Name = ZINCrD0000075loQ.0
REMARK                            x       y       z     vdW  Elec       q    Type
REMARK                         _______ _______ _______ _____ _____    ______ ____
ROOT
ATOM      1  C   LIG    1        1.023   3.021   0.737  0.00  0.00    +0.480 C 
ATOM      2  N   LIG    1        1.143   1.898   0.001  0.00  0.00    -0.670 N 
ATOM      3  H   LIG    1        0.369   1.532  -0.454  0.00  0.00    +0.410 HD
ATOM      4  O   LIG    1        1.967   3.427   1.383  0.00  0.00    -0.510 OA
ENDROOT
BRANCH   2   5
ATOM      5  C   LIG    1        2.387   1.261  -0.107  0.00  0.00    +0.130 A 
ATOM      6  C   LIG    1        2.447  -0.126  -0.215  0.00  0.00    +0.020 A 
ATOM      7  C   LIG    1        3.663  -0.765  -0.322  0.00  0.00    +0.040 A 
ATOM      8  C   LIG    1        4.836  -0.024  -0.323  0.00  0.00    +0.040 A 
ATOM      9  N   LIG    1        6.177  -0.350  -0.412  0.00  0.00    -0.590 N 
ATOM     10  H   LIG    1        6.548  -1.242  -0.497  0.00  0.00    +0.420 HD
ATOM     11  C   LIG    1        6.880   0.813  -0.358  0.00  0.00    +0.290 A 
ATOM     12  N   LIG    1        6.067   1.823  -0.243  0.00  0.00    -0.470 NA
ATOM     13  C   LIG    1        4.785   1.376  -0.214  0.00  0.00    +0.070 A 
ATOM     14  C   LIG    1        3.546   2.014  -0.111  0.00  0.00    +0.080 A 
BRANCH  11  15
ATOM     15  C   LIG    1        8.382   0.918  -0.424  0.00  0.00    +0.250 C 
ATOM     16  C   LIG    1        8.803   1.929  -1.520  0.00  0.00    +0.050 C 
ATOM     17  C   LIG    1       10.203   2.359  -1.002  0.00  0.00    +0.020 C 
ATOM     18  C   LIG    1       10.013   2.315   0.529  0.00  0.00    +0.200 C 
ATOM     19  O   LIG    1        8.898   1.458   0.803  0.00  0.00    -0.370 OA
ENDBRANCH  11  15
ENDBRANCH   2   5
BRANCH   1  20
ATOM     20  C   LIG    1       -0.285   3.768   0.763  0.00  0.00    +0.240 C 
BRANCH  20  21
ATOM     21  C   LIG    1       -1.236   3.084   1.711  0.00  0.00    -0.130 A 
ATOM     22  C   LIG    1       -1.413   3.578   2.989  0.00  0.00    +0.120 A 
ATOM     23  C   LIG    1       -2.288   2.954   3.858  0.00  0.00    -0.010 A 
ATOM     24  C   LIG    1       -2.981   1.826   3.451  0.00  0.00    +0.140 A 
ATOM     25  C   LIG    1       -2.801   1.327   2.173  0.00  0.00    -0.040 A 
ATOM     26  F   LIG    1       -3.833   1.213   4.302  0.00  0.00    -0.130 F 
ATOM     27  C   LIG    1       -1.928   1.956   1.302  0.00  0.00    +0.140 A 
ATOM     28  F   LIG    1       -1.751   1.470   0.054  0.00  0.00    -0.130 F 
ENDBRANCH  20  21
BRANCH  20  29
ATOM     29  N   LIG    1       -0.052   5.147   1.214  0.00  0.00    -0.810 NA
ATOM     30  H   LIG    1        0.531   5.648   0.561  0.00  0.00    +0.360 HD
ATOM     31  H   LIG    1        0.347   5.162   2.141  0.00  0.00    +0.350 HD
ENDBRANCH  20  29
ENDBRANCH   1  20
TORSDOF 5
