REMARK  Name = ZINCrD0000075loQ.1
REMARK                            x       y       z     vdW  Elec       q    Type
REMARK                         _______ _______ _______ _____ _____    ______ ____
ROOT
ATOM      1  C   LIG    1       -3.722   3.290  -0.437  0.00  0.00    +0.480 C 
ATOM      2  N   LIG    1       -3.639   2.035   0.049  0.00  0.00    -0.660 N 
ATOM      3  H   LIG    1       -4.428   1.600   0.406  0.00  0.00    +0.420 HD
ATOM      4  O   LIG    1       -2.758   3.799  -0.970  0.00  0.00    -0.520 OA
ENDROOT
BRANCH   2   5
ATOM      5  C   LIG    1       -2.412   1.361   0.039  0.00  0.00    +0.160 A 
ATOM      6  C   LIG    1       -2.381  -0.020  -0.145  0.00  0.00    +0.000 A 
ATOM      7  C   LIG    1       -1.193  -0.693  -0.158  0.00  0.00    +0.100 A 
ATOM      8  C   LIG    1        0.006   0.003   0.015  0.00  0.00    +0.030 A 
ATOM      9  N   LIG    1        1.310  -0.375   0.051  0.00  0.00    -0.460 NA
ATOM     10  C   LIG    1        2.064   0.668   0.242  0.00  0.00    +0.280 A 
ATOM     11  N   LIG    1        1.296   1.787   0.342  0.00  0.00    -0.590 N 
ATOM     12  H   LIG    1        1.614   2.692   0.485  0.00  0.00    +0.420 HD
ATOM     13  C   LIG    1       -0.021   1.396   0.202  0.00  0.00    +0.070 A 
ATOM     14  C   LIG    1       -1.234   2.068   0.217  0.00  0.00    +0.020 A 
BRANCH  10  15
ATOM     15  C   LIG    1        3.567   0.641   0.339  0.00  0.00    +0.250 C 
ATOM     16  C   LIG    1        4.020  -0.405   1.388  0.00  0.00    +0.050 C 
ATOM     17  C   LIG    1        5.452  -0.730   0.882  0.00  0.00    +0.020 C 
ATOM     18  C   LIG    1        5.293  -0.610  -0.649  0.00  0.00    +0.200 C 
ATOM     19  O   LIG    1        4.139   0.199  -0.903  0.00  0.00    -0.370 OA
ENDBRANCH  10  15
ENDBRANCH   2   5
BRANCH   1  20
ATOM     20  C   LIG    1       -5.012   4.060  -0.318  0.00  0.00    +0.240 C 
BRANCH  20  21
ATOM     21  C   LIG    1       -5.130   4.630   1.072  0.00  0.00    -0.130 A 
ATOM     22  C   LIG    1       -4.815   5.956   1.303  0.00  0.00    +0.110 A 
ATOM     23  C   LIG    1       -4.923   6.481   2.578  0.00  0.00    -0.010 A 
ATOM     24  C   LIG    1       -5.347   5.679   3.623  0.00  0.00    +0.140 A 
ATOM     25  C   LIG    1       -5.663   4.351   3.393  0.00  0.00    -0.040 A 
ATOM     26  F   LIG    1       -5.452   6.192   4.869  0.00  0.00    -0.130 F 
ATOM     27  C   LIG    1       -5.559   3.828   2.116  0.00  0.00    +0.140 A 
ATOM     28  F   LIG    1       -5.872   2.533   1.888  0.00  0.00    -0.130 F 
ENDBRANCH  20  21
BRANCH  20  29
ATOM     29  N   LIG    1       -5.021   5.153  -1.299  0.00  0.00    -0.810 NA
ATOM     30  H   LIG    1       -5.008   4.794  -2.241  0.00  0.00    +0.360 HD
ATOM     31  H   LIG    1       -4.251   5.786  -1.142  0.00  0.00    +0.350 HD
ENDBRANCH  20  29
ENDBRANCH   1  20
TORSDOF 5
