REMARK  Name = ZINCvU0000000DYy.0
REMARK                            x       y       z     vdW  Elec       q    Type
REMARK                         _______ _______ _______ _____ _____    ______ ____
ROOT
ATOM      1  C   LIG    1        1.152   3.176   0.002  0.00  0.00    -0.130 A 
ATOM      2  C   LIG    1        1.173   1.780  -0.002  0.00  0.00    +0.090 A 
ATOM      3  C   LIG    1       -0.013   1.076  -0.003  0.00  0.00    +0.040 A 
ATOM      4  C   LIG    1       -1.222   1.750  -0.006  0.00  0.00    -0.050 A 
ATOM      5  C   LIG    1       -1.249   3.134   0.004  0.00  0.00    +0.040 A 
ATOM      6  C   LIG    1       -0.070   3.850   0.005  0.00  0.00    +0.050 A 
ENDROOT
BRANCH   1   9
ATOM      7  N   LIG    1        2.396   5.285   0.006  0.00  0.00    -0.670 N 
ATOM      8  H   LIG    1        1.550   5.755  -0.059  0.00  0.00    +0.410 HD
ATOM      9  C   LIG    1        2.419   3.937   0.002  0.00  0.00    +0.560 C 
ATOM     10  O   LIG    1        3.482   3.348  -0.000  0.00  0.00    -0.510 OA
BRANCH   7  14
ATOM     11  C   LIG    1        5.955   7.428   0.296  0.00  0.00    -0.140 A 
ATOM     12  C   LIG    1        5.919   6.222  -0.410  0.00  0.00    +0.110 A 
ATOM     13  C   LIG    1        4.741   5.516  -0.504  0.00  0.00    +0.020 A 
ATOM     14  C   LIG    1        3.587   6.002   0.103  0.00  0.00    +0.180 A 
ATOM     15  C   LIG    1        3.618   7.205   0.803  0.00  0.00    -0.020 A 
ATOM     16  C   LIG    1        4.793   7.913   0.905  0.00  0.00    +0.100 A 
BRANCH  11  17
ATOM     17  C   LIG    1        7.215   8.188   0.398  0.00  0.00    +0.510 C 
ATOM     18  O   LIG    1        8.223   7.766  -0.132  0.00  0.00    -0.510 OA
BRANCH  17  19
ATOM     19  O   LIG    1        7.248   9.350   1.079  0.00  0.00    -0.360 OA
BRANCH  19  21
ATOM     20  C   LIG    1        8.364  11.332   1.947  0.00  0.00    +0.070 C 
ATOM     21  C   LIG    1        8.522  10.043   1.138  0.00  0.00    +0.200 C 
ENDBRANCH  19  21
ENDBRANCH  17  19
ENDBRANCH  11  17
ENDBRANCH   7  14
ENDBRANCH   1   9
BRANCH   4  22
ATOM     22  C   LIG    1       -2.514   0.975  -0.013  0.00  0.00    +0.160 C 
BRANCH  22  23
ATOM     23  S   LIG    1       -3.038   0.659   1.690  0.00  0.00    +0.010 S 
BRANCH  23  24
ATOM     24  C   LIG    1       -4.526  -0.235   1.392  0.00  0.00    +0.260 A 
ATOM     25  N   LIG    1       -5.007  -0.523   0.207  0.00  0.00    -0.490 NA
ATOM     26  C   LIG    1       -6.166  -1.220   0.342  0.00  0.00    +0.060 A 
ATOM     27  C   LIG    1       -7.071  -1.763  -0.573  0.00  0.00    +0.060 A 
ATOM     28  C   LIG    1       -8.185  -2.433  -0.117  0.00  0.00    +0.010 A 
ATOM     29  C   LIG    1       -8.415  -2.572   1.243  0.00  0.00    +0.030 A 
ATOM     30  C   LIG    1       -7.531  -2.041   2.159  0.00  0.00    +0.020 A 
ATOM     31  C   LIG    1       -6.404  -1.364   1.719  0.00  0.00    +0.060 A 
ATOM     32  N   LIG    1       -5.349  -0.736   2.361  0.00  0.00    -0.580 N 
ATOM     33  H   LIG    1       -5.219  -0.664   3.320  0.00  0.00    +0.430 HD
ENDBRANCH  23  24
ENDBRANCH  22  23
ENDBRANCH   4  22
TORSDOF 8
