REMARK  Name = ZINCrH000004rrul.0
REMARK                            x       y       z     vdW  Elec       q    Type
REMARK                         _______ _______ _______ _____ _____    ______ ____
ROOT
ATOM      1  C   LIG    1        1.375   6.799  -1.025  0.00  0.00    +0.300 A 
ATOM      2  N   LIG    1        2.406   7.582  -1.094  0.00  0.00    -0.520 NA
ATOM      3  C   LIG    1        2.236   8.830  -0.695  0.00  0.00    +0.120 A 
ATOM      4  C   LIG    1        1.004   9.113  -0.270  0.00  0.00    -0.130 A 
ATOM      5  S   LIG    1        0.027   7.654  -0.413  0.00  0.00    +0.130 S 
ENDROOT
BRANCH   1   6
ATOM      6  N   LIG    1        1.366   5.463  -1.399  0.00  0.00    -0.630 N 
ATOM      7  H   LIG    1        2.193   5.026  -1.657  0.00  0.00    +0.420 HD
BRANCH   6  12
ATOM      8  C   LIG    1       -3.507   2.561  -1.415  0.00  0.00    +0.090 C 
ATOM      9  C   LIG    1       -2.212   3.332  -1.414  0.00  0.00    -0.100 A 
ATOM     10  C   LIG    1       -2.200   4.662  -1.790  0.00  0.00    +0.050 A 
ATOM     11  C   LIG    1       -1.016   5.373  -1.785  0.00  0.00    -0.030 A 
ATOM     12  C   LIG    1        0.166   4.747  -1.405  0.00  0.00    +0.150 A 
ATOM     13  C   LIG    1        0.151   3.409  -1.033  0.00  0.00    -0.010 A 
ATOM     14  C   LIG    1       -1.037   2.705  -1.041  0.00  0.00    +0.040 A 
ENDBRANCH   6  12
ENDBRANCH   1   6
BRANCH   3  15
ATOM     15  C   LIG    1        3.344   9.851  -0.717  0.00  0.00    +0.290 C 
BRANCH  15  16
ATOM     16  N   LIG    1        4.138   9.738   0.513  0.00  0.00    -0.530 NA
ATOM     17  C   LIG    1        3.340  10.104   1.691  0.00  0.00    +0.170 C 
ATOM     18  C   LIG    1        4.142   9.802   2.961  0.00  0.00    +0.300 C 
ATOM     19  N   LIG    1        5.447  10.473   2.861  0.00  0.00    -0.610 N 
ATOM     20  C   LIG    1        6.246  10.263   1.645  0.00  0.00    +0.270 C 
ATOM     21  C   LIG    1        5.898  11.260   3.858  0.00  0.00    +0.590 C 
ATOM     22  O   LIG    1        5.240  11.394   4.872  0.00  0.00    -0.530 OA
ATOM     23  C   LIG    1        5.361  10.547   0.426  0.00  0.00    +0.170 C 
BRANCH  21  24
ATOM     24  C   LIG    1        7.189  11.957   3.720  0.00  0.00    -0.230 A 
ATOM     25  C   LIG    1        8.256  11.574   2.960  0.00  0.00    +0.220 A 
ATOM     26  O   LIG    1        9.227  12.480   3.110  0.00  0.00    -0.170 OA
ATOM     27  C   LIG    1        8.848  13.453   3.953  0.00  0.00    +0.180 A 
ATOM     28  C   LIG    1        7.600  13.206   4.377  0.00  0.00    -0.010 A 
ENDBRANCH  21  24
ENDBRANCH  15  16
ENDBRANCH   3  15
TORSDOF 5
