REMARK  Name = ZINCfA000000bggn.1
REMARK                            x       y       z     vdW  Elec       q    Type
REMARK                         _______ _______ _______ _____ _____    ______ ____
ROOT
ATOM      1  N   LIG    1        3.084  -1.550   1.165  0.00  0.00    -0.390 N 
ATOM      2  C   LIG    1        3.683  -0.495   1.994  0.00  0.00    +0.330 C 
ATOM      3  H   LIG    1        2.096  -1.608   1.358  0.00  0.00    +0.430 HD
ENDROOT
BRANCH   1   4
ATOM      4  C   LIG    1        3.721  -2.837   1.476  0.00  0.00    +0.200 C 
ATOM      5  C   LIG    1        5.189  -2.796   1.050  0.00  0.00    +0.110 C 
BRANCH   4   6
ATOM      6  C   LIG    1        3.002  -3.957   0.721  0.00  0.00    +0.100 C 
BRANCH   6   7
ATOM      7  S   LIG    1        1.296  -4.093   1.322  0.00  0.00    -0.270 S 
BRANCH   7   9
ATOM      8  C   LIG    1       -0.840  -5.692   0.718  0.00  0.00    +0.070 C 
ATOM      9  C   LIG    1        0.619  -5.449   0.325  0.00  0.00    +0.110 C 
ENDBRANCH   7   9
ENDBRANCH   6   7
ENDBRANCH   4   6
ENDBRANCH   1   4
BRANCH   1  10
ATOM     10  C   LIG    1        3.289  -1.233  -0.254  0.00  0.00    +0.370 C 
BRANCH  10  11
ATOM     11  C   LIG    1        2.534   0.024  -0.602  0.00  0.00    -0.340 A 
ATOM     12  C   LIG    1        3.007   1.272  -0.527  0.00  0.00    +0.130 A 
ATOM     13  N   LIG    1        2.149   2.204  -0.888  0.00  0.00    -0.470 NA
ATOM     14  C   LIG    1        0.978   1.813  -1.264  0.00  0.00    +0.280 A 
ATOM     15  C   LIG    1        4.407   1.587  -0.065  0.00  0.00    +0.170 C 
ATOM     16  S   LIG    1        0.872   0.108  -1.181  0.00  0.00    +0.180 S 
ENDBRANCH  10  11
ENDBRANCH   1  10
TORSDOF 6
