REMARK  Name = ZINCfA000000bggn.0
REMARK                            x       y       z     vdW  Elec       q    Type
REMARK                         _______ _______ _______ _____ _____    ______ ____
ROOT
ATOM      1  N   LIG    1        4.181   1.512   1.342  0.00  0.00    -0.380 N 
ATOM      2  C   LIG    1        4.215   0.100   1.745  0.00  0.00    +0.320 C 
ATOM      3  H   LIG    1        3.609   2.033   1.990  0.00  0.00    +0.430 HD
ENDROOT
BRANCH   1   4
ATOM      4  C   LIG    1        5.546   2.056   1.347  0.00  0.00    +0.200 C 
ATOM      5  C   LIG    1        6.447   1.182   0.473  0.00  0.00    +0.110 C 
BRANCH   4   6
ATOM      6  C   LIG    1        6.083   2.071   2.779  0.00  0.00    +0.110 C 
BRANCH   6   7
ATOM      7  S   LIG    1        5.027   3.126   3.811  0.00  0.00    -0.270 S 
BRANCH   7   9
ATOM      8  C   LIG    1        5.028   3.869   6.443  0.00  0.00    +0.070 C 
ATOM      9  C   LIG    1        5.813   3.018   5.442  0.00  0.00    +0.110 C 
ENDBRANCH   7   9
ENDBRANCH   6   7
ENDBRANCH   4   6
ENDBRANCH   1   4
BRANCH   1  10
ATOM     10  C   LIG    1        3.615   1.622  -0.009  0.00  0.00    +0.380 C 
BRANCH  10  11
ATOM     11  C   LIG    1        2.175   1.179   0.012  0.00  0.00    -0.340 A 
ATOM     12  C   LIG    1        1.115   1.961   0.235  0.00  0.00    +0.140 A 
ATOM     13  N   LIG    1       -0.044   1.333   0.202  0.00  0.00    -0.470 NA
ATOM     14  C   LIG    1       -0.020   0.066  -0.036  0.00  0.00    +0.290 A 
ATOM     15  C   LIG    1        1.234   3.439   0.502  0.00  0.00    +0.160 C 
ATOM     16  S   LIG    1        1.592  -0.463  -0.252  0.00  0.00    +0.170 S 
ENDBRANCH  10  11
ENDBRANCH   1  10
TORSDOF 6
