REMARK  Name = ZINCrD00000l8tW2.0
REMARK                            x       y       z     vdW  Elec       q    Type
REMARK                         _______ _______ _______ _____ _____    ______ ____
ROOT
ATOM      1  N   LIG    1       -3.139  -2.490   0.016  0.00  0.00    -0.660 N 
ATOM      2  H   LIG    1       -3.925  -1.928   0.097  0.00  0.00    +0.430 HD
ATOM      3  C   LIG    1       -1.910  -1.935   0.011  0.00  0.00    +0.540 C 
ATOM      4  O   LIG    1       -0.925  -2.643   0.012  0.00  0.00    -0.500 OA
ENDROOT
BRANCH   1  10
ATOM      5  C   LIG    1       -4.417  -4.508   0.426  0.00  0.00    -0.170 A 
ATOM      6  C   LIG    1       -4.548  -5.894   0.304  0.00  0.00    +0.100 A 
ATOM      7  C   LIG    1       -3.558  -6.626  -0.314  0.00  0.00    -0.010 A 
ATOM      8  C   LIG    1       -2.433  -5.995  -0.821  0.00  0.00    +0.090 A 
ATOM      9  C   LIG    1       -2.292  -4.626  -0.713  0.00  0.00    +0.010 A 
ATOM     10  C   LIG    1       -3.279  -3.871  -0.094  0.00  0.00    +0.220 A 
BRANCH   5  11
ATOM     11  C   LIG    1       -5.470  -3.720   1.091  0.00  0.00    +0.520 C 
ATOM     12  O   LIG    1       -5.398  -2.507   1.111  0.00  0.00    -0.520 OA
BRANCH  11  13
ATOM     13  O   LIG    1       -6.511  -4.343   1.675  0.00  0.00    -0.350 OA
BRANCH  13  15
ATOM     14  C   LIG    1       -8.607  -4.383   2.914  0.00  0.00    +0.070 C 
ATOM     15  C   LIG    1       -7.511  -3.503   2.311  0.00  0.00    +0.200 C 
ENDBRANCH  13  15
ENDBRANCH  11  13
ENDBRANCH   5  11
ENDBRANCH   1  10
BRANCH   3  16
ATOM     16  C   LIG    1       -1.761  -0.436   0.004  0.00  0.00    +0.100 C 
BRANCH  16  17
ATOM     17  S   LIG    1        0.001  -0.003  -0.002  0.00  0.00    +0.120 S 
BRANCH  17  18
ATOM     18  C   LIG    1       -0.024   1.758  -0.009  0.00  0.00    +0.200 A 
ATOM     19  N   LIG    1       -1.104   2.506  -0.016  0.00  0.00    -0.320 NA
ATOM     20  N   LIG    1       -0.675   3.844  -0.017  0.00  0.00    -0.470 N 
ATOM     21  H   LIG    1       -1.238   4.634  -0.019  0.00  0.00    +0.440 HD
ATOM     22  C   LIG    1        0.676   3.811  -0.020  0.00  0.00    +0.340 A 
ATOM     23  N   LIG    1        1.052   2.548  -0.015  0.00  0.00    -0.500 NA
BRANCH  22  24
ATOM     24  C   LIG    1        1.575   4.987  -0.026  0.00  0.00    -0.040 A 
ATOM     25  C   LIG    1        1.041   6.276  -0.036  0.00  0.00    +0.020 A 
ATOM     26  C   LIG    1        1.885   7.368  -0.035  0.00  0.00    +0.010 A 
ATOM     27  C   LIG    1        3.256   7.187  -0.038  0.00  0.00    +0.040 A 
ATOM     28  C   LIG    1        3.791   5.911  -0.034  0.00  0.00    +0.010 A 
ATOM     29  C   LIG    1        2.958   4.811  -0.028  0.00  0.00    +0.080 A 
ENDBRANCH  22  24
ENDBRANCH  17  18
ENDBRANCH  16  17
ENDBRANCH   3  16
TORSDOF 8
