REMARK  Name = ZINCrD00000l8tW2.1
REMARK                            x       y       z     vdW  Elec       q    Type
REMARK                         _______ _______ _______ _____ _____    ______ ____
ROOT
ATOM      1  N   LIG    1       -0.289   1.270  -2.444  0.00  0.00    -0.650 N 
ATOM      2  H   LIG    1        0.544   0.783  -2.545  0.00  0.00    +0.430 HD
ATOM      3  C   LIG    1       -0.740   1.585  -1.213  0.00  0.00    +0.530 C 
ATOM      4  O   LIG    1       -1.726   2.280  -1.089  0.00  0.00    -0.500 OA
ENDROOT
BRANCH   1  10
ATOM      5  C   LIG    1       -0.371   1.819  -4.803  0.00  0.00    -0.170 A 
ATOM      6  C   LIG    1       -1.116   2.188  -5.926  0.00  0.00    +0.100 A 
ATOM      7  C   LIG    1       -2.475   2.389  -5.814  0.00  0.00    -0.010 A 
ATOM      8  C   LIG    1       -3.109   2.220  -4.594  0.00  0.00    +0.090 A 
ATOM      9  C   LIG    1       -2.388   1.850  -3.477  0.00  0.00    +0.010 A 
ATOM     10  C   LIG    1       -1.018   1.643  -3.570  0.00  0.00    +0.220 A 
BRANCH   5  11
ATOM     11  C   LIG    1        1.083   1.608  -4.914  0.00  0.00    +0.520 C 
ATOM     12  O   LIG    1        1.712   1.196  -3.959  0.00  0.00    -0.520 OA
BRANCH  11  13
ATOM     13  O   LIG    1        1.716   1.874  -6.074  0.00  0.00    -0.350 OA
BRANCH  13  15
ATOM     14  C   LIG    1        3.687   1.998  -7.498  0.00  0.00    +0.070 C 
ATOM     15  C   LIG    1        3.149   1.643  -6.110  0.00  0.00    +0.200 C 
ENDBRANCH  13  15
ENDBRANCH  11  13
ENDBRANCH   5  11
ENDBRANCH   1  10
BRANCH   3  16
ATOM     16  C   LIG    1       -0.018   1.075   0.007  0.00  0.00    +0.130 C 
BRANCH  16  17
ATOM     17  S   LIG    1       -0.861   1.665   1.497  0.00  0.00    +0.100 S 
BRANCH  17  18
ATOM     18  C   LIG    1        0.163   0.942   2.735  0.00  0.00    +0.250 A 
ATOM     19  N   LIG    1        1.224   0.195   2.520  0.00  0.00    -0.530 NA
ATOM     20  C   LIG    1        1.756  -0.180   3.692  0.00  0.00    +0.280 A 
ATOM     21  N   LIG    1        1.035   0.326   4.668  0.00  0.00    -0.290 NA
ATOM     22  N   LIG    1       -0.001   1.062   4.071  0.00  0.00    -0.460 N 
ATOM     23  H   LIG    1       -0.698   1.557   4.528  0.00  0.00    +0.450 HD
BRANCH  20  24
ATOM     24  C   LIG    1        2.961  -1.030   3.861  0.00  0.00    -0.020 A 
ATOM     25  C   LIG    1        3.638  -1.513   2.743  0.00  0.00    +0.050 A 
ATOM     26  C   LIG    1        4.762  -2.297   2.906  0.00  0.00    +0.010 A 
ATOM     27  C   LIG    1        5.209  -2.614   4.176  0.00  0.00    +0.030 A 
ATOM     28  C   LIG    1        4.538  -2.142   5.289  0.00  0.00    +0.010 A 
ATOM     29  C   LIG    1        3.416  -1.352   5.138  0.00  0.00    +0.050 A 
ENDBRANCH  20  24
ENDBRANCH  17  18
ENDBRANCH  16  17
ENDBRANCH   3  16
TORSDOF 8
