REMARK  Name = ZINCqH0000004Aps.0
REMARK                            x       y       z     vdW  Elec       q    Type
REMARK                         _______ _______ _______ _____ _____    ______ ____
ROOT
ATOM      1  C   LIG    1       -3.701  -1.073  -0.207  0.00  0.00    -0.010 C 
ATOM      2  C   LIG    1       -4.184  -1.085  -1.659  0.00  0.00    +0.080 C 
ENDROOT
BRANCH   1   5
ATOM      3  N   LIG    1       -2.400   1.020   0.008  0.00  0.00    -0.670 N 
ATOM      4  H   LIG    1       -3.239   1.496   0.109  0.00  0.00    +0.410 HD
ATOM      5  C   LIG    1       -2.397  -0.322  -0.117  0.00  0.00    +0.540 C 
ATOM      6  O   LIG    1       -1.346  -0.925  -0.158  0.00  0.00    -0.490 OA
BRANCH   3  12
ATOM      7  C   LIG    1       -1.132   2.991  -0.578  0.00  0.00    -0.090 A 
ATOM      8  C   LIG    1        0.061   3.685  -0.597  0.00  0.00    +0.000 A 
ATOM      9  C   LIG    1        1.200   3.122  -0.040  0.00  0.00    +0.100 A 
ATOM     10  C   LIG    1        1.141   1.862   0.537  0.00  0.00    +0.000 A 
ATOM     11  C   LIG    1       -0.052   1.167   0.556  0.00  0.00    +0.050 A 
ATOM     12  C   LIG    1       -1.191   1.727  -0.006  0.00  0.00    +0.130 A 
BRANCH   7  14
ATOM     13  C   LIG    1       -3.180   4.302  -0.090  0.00  0.00    +0.020 C 
ATOM     14  C   LIG    1       -2.369   3.603  -1.183  0.00  0.00    +0.060 C 
ENDBRANCH   7  14
BRANCH   9  15
ATOM     15  O   LIG    1        2.375   3.807  -0.059  0.00  0.00    -0.500 OA
ATOM     16  H   LIG    1        2.915   3.639  -0.843  0.00  0.00    +0.390 HD
ENDBRANCH   9  15
ENDBRANCH   3  12
ENDBRANCH   1   5
BRANCH   1  17
ATOM     17  S   LIG    1       -3.457  -2.778   0.363  0.00  0.00    -0.090 S 
BRANCH  17  18
ATOM     18  C   LIG    1       -5.136  -3.464   0.328  0.00  0.00    +0.090 C 
BRANCH  18  19
ATOM     19  C   LIG    1       -5.102  -4.900   0.783  0.00  0.00    +0.530 C 
ATOM     20  N   LIG    1       -6.241  -5.617   0.838  0.00  0.00    -0.670 N 
ATOM     21  H   LIG    1       -7.070  -5.237   0.506  0.00  0.00    +0.410 HD
ATOM     22  O   LIG    1       -4.048  -5.411   1.100  0.00  0.00    -0.490 OA
BRANCH  20  23
ATOM     23  C   LIG    1       -6.230  -6.910   1.375  0.00  0.00    +0.140 A 
ATOM     24  C   LIG    1       -7.186  -7.836   0.980  0.00  0.00    +0.020 A 
ATOM     25  C   LIG    1       -7.170  -9.112   1.508  0.00  0.00    +0.010 A 
ATOM     26  C   LIG    1       -6.207  -9.466   2.438  0.00  0.00    +0.080 A 
ATOM     27  C   LIG    1       -5.256  -8.543   2.837  0.00  0.00    +0.010 A 
ATOM     28  F   LIG    1       -6.197 -10.713   2.957  0.00  0.00    -0.140 F 
ATOM     29  C   LIG    1       -5.265  -7.267   2.308  0.00  0.00    +0.050 A 
ENDBRANCH  20  23
ENDBRANCH  18  19
ENDBRANCH  17  18
ENDBRANCH   1  17
TORSDOF 8
