REMARK  Name = ZINCvU0000000Gp3.0
REMARK                            x       y       z     vdW  Elec       q    Type
REMARK                         _______ _______ _______ _____ _____    ______ ____
ROOT
ATOM      1  S   LIG    1       -2.506  -1.933  -3.241  0.00  0.00    +0.090 S 
ENDROOT
BRANCH   1   2
ATOM      2  C   LIG    1       -0.979  -2.795  -3.407  0.00  0.00    +0.250 A 
ATOM      3  N   LIG    1       -0.640  -3.538  -4.432  0.00  0.00    -0.490 NA
ATOM      4  C   LIG    1        0.602  -4.053  -4.234  0.00  0.00    +0.060 A 
ATOM      5  C   LIG    1        1.425  -4.890  -4.990  0.00  0.00    +0.060 A 
ATOM      6  C   LIG    1        2.666  -5.246  -4.510  0.00  0.00    +0.010 A 
ATOM      7  C   LIG    1        3.104  -4.780  -3.279  0.00  0.00    +0.030 A 
ATOM      8  C   LIG    1        2.303  -3.953  -2.519  0.00  0.00    +0.010 A 
ATOM      9  C   LIG    1        1.054  -3.579  -2.990  0.00  0.00    +0.060 A 
ATOM     10  N   LIG    1        0.032  -2.789  -2.484  0.00  0.00    -0.430 N 
BRANCH  10  11
ATOM     11  C   LIG    1        0.037  -2.108  -1.260  0.00  0.00    +0.110 A 
ATOM     12  C   LIG    1        0.065  -2.819  -0.068  0.00  0.00    +0.020 A 
ATOM     13  C   LIG    1        0.070  -2.144   1.137  0.00  0.00    +0.040 A 
ATOM     14  C   LIG    1        0.045  -0.762   1.158  0.00  0.00    +0.020 A 
ATOM     15  C   LIG    1        0.016  -0.051  -0.028  0.00  0.00    -0.070 A 
ATOM     16  C   LIG    1       -0.012   1.456  -0.002  0.00  0.00    +0.100 C 
ATOM     17  C   LIG    1        0.006  -0.720  -1.236  0.00  0.00    +0.030 A 
ENDBRANCH  10  11
ENDBRANCH   1   2
BRANCH   1  18
ATOM     18  C   LIG    1       -3.302  -2.401  -4.799  0.00  0.00    +0.110 C 
BRANCH  18  21
ATOM     19  N   LIG    1       -5.443  -1.970  -5.959  0.00  0.00    -0.660 N 
ATOM     20  H   LIG    1       -5.103  -2.477  -6.712  0.00  0.00    +0.420 HD
ATOM     21  C   LIG    1       -4.663  -1.761  -4.880  0.00  0.00    +0.530 C 
ATOM     22  O   LIG    1       -5.058  -1.058  -3.974  0.00  0.00    -0.500 OA
BRANCH  19  26
ATOM     23  C   LIG    1       -9.320  -0.437  -6.059  0.00  0.00    +0.130 A 
ATOM     24  C   LIG    1       -8.307   0.276  -5.431  0.00  0.00    +0.000 A 
ATOM     25  C   LIG    1       -7.024  -0.232  -5.397  0.00  0.00    +0.040 A 
ATOM     26  C   LIG    1       -6.746  -1.456  -5.992  0.00  0.00    +0.130 A 
ATOM     27  C   LIG    1       -7.757  -2.166  -6.625  0.00  0.00    +0.010 A 
ATOM     28  C   LIG    1       -9.041  -1.661  -6.654  0.00  0.00    +0.040 A 
BRANCH  23  31
ATOM     29  C   LIG    1      -13.076  -0.196  -5.949  0.00  0.00    +0.110 C 
ATOM     30  C   LIG    1      -11.679  -0.755  -6.017  0.00  0.00    +0.510 C 
ATOM     31  N   LIG    1      -10.622   0.078  -6.093  0.00  0.00    -0.670 N 
ATOM     32  H   LIG    1      -10.763   1.034  -6.171  0.00  0.00    +0.410 HD
ATOM     33  O   LIG    1      -11.505  -1.956  -6.004  0.00  0.00    -0.530 OA
ENDBRANCH  23  31
ENDBRANCH  19  26
ENDBRANCH  18  21
ENDBRANCH   1  18
TORSDOF 6
