REMARK  Name = ZINCpk00000e9CUe.1
REMARK                            x       y       z     vdW  Elec       q    Type
REMARK                         _______ _______ _______ _____ _____    ______ ____
ROOT
ATOM      1  N   LIG    1       -1.883   9.228  -2.212  0.00  0.00    -0.520 NA
ATOM      2  C   LIG    1       -1.072   9.170  -3.435  0.00  0.00    +0.170 C 
ATOM      3  C   LIG    1        0.273   8.507  -3.126  0.00  0.00    +0.020 C 
ATOM      4  C   LIG    1        0.028   7.095  -2.585  0.00  0.00    +0.020 C 
ATOM      5  C   LIG    1       -0.859   7.181  -1.339  0.00  0.00    +0.150 C 
ATOM      6  C   LIG    1       -2.170   7.883  -1.699  0.00  0.00    +0.180 C 
ENDROOT
BRANCH   5   7
ATOM      7  N   LIG    1       -1.146   5.827  -0.848  0.00  0.00    -0.650 NA
ATOM      8  H   LIG    1       -2.038   5.795  -0.378  0.00  0.00    +0.350 HD
BRANCH   7   9
ATOM      9  C   LIG    1       -0.070   5.347   0.031  0.00  0.00    +0.220 C 
BRANCH   9  10
ATOM     10  C   LIG    1       -0.050   3.840   0.022  0.00  0.00    -0.070 A 
ATOM     11  C   LIG    1        1.156   3.165   0.008  0.00  0.00    +0.000 A 
ATOM     12  C   LIG    1        1.175   1.783   0.000  0.00  0.00    +0.000 A 
ATOM     13  C   LIG    1       -0.013   1.076   0.008  0.00  0.00    +0.000 A 
ATOM     14  C   LIG    1       -1.219   1.751   0.017  0.00  0.00    +0.000 A 
ATOM     15  C   LIG    1       -1.238   3.133   0.029  0.00  0.00    +0.030 A 
ENDBRANCH   9  10
BRANCH   9  16
ATOM     16  C   LIG    1       -0.312   5.838   1.435  0.00  0.00    +0.500 C 
ATOM     17  O   LIG    1       -1.284   6.521   1.680  0.00  0.00    -0.540 OA
ATOM     18  N   LIG    1        0.553   5.519   2.418  0.00  0.00    -0.850 N 
ATOM     19  H   LIG    1        0.398   5.835   3.322  0.00  0.00    +0.400 HD
ATOM     20  H   LIG    1        1.330   4.973   2.222  0.00  0.00    +0.400 HD
ENDBRANCH   9  16
ENDBRANCH   7   9
ENDBRANCH   5   7
BRANCH   1  21
ATOM     21  C   LIG    1       -3.123   9.982  -2.438  0.00  0.00    +0.360 C 
BRANCH  21  24
ATOM     22  C   LIG    1       -5.436   7.925  -4.245  0.00  0.00    +0.180 A 
ATOM     23  N   LIG    1       -4.926   8.311  -3.100  0.00  0.00    -0.470 NA
ATOM     24  C   LIG    1       -3.996   9.232  -3.411  0.00  0.00    +0.140 A 
ATOM     25  N   LIG    1       -3.992   9.360  -4.704  0.00  0.00    -0.380 NA
ATOM     26  O   LIG    1       -4.809   8.614  -5.202  0.00  0.00    +0.080 OA
BRANCH  22  28
ATOM     27  C   LIG    1       -7.888   7.592  -4.415  0.00  0.00    +0.050 C 
ATOM     28  C   LIG    1       -6.524   6.900  -4.442  0.00  0.00    +0.180 C 
ENDBRANCH  22  28
ENDBRANCH  21  24
ENDBRANCH   1  21
TORSDOF 7
