REMARK  Name = ZINCpe000000SFKV.0
REMARK                            x       y       z     vdW  Elec       q    Type
REMARK                         _______ _______ _______ _____ _____    ______ ____
ROOT
ATOM      1  C   LIG    1        3.370   4.261  -1.449  0.00  0.00    +0.210 C 
ENDROOT
BRANCH   1   2
ATOM      2  O   LIG    1        2.860   3.109  -2.124  0.00  0.00    -0.540 OA
ATOM      3  H   LIG    1        3.129   2.269  -1.727  0.00  0.00    +0.380 HD
ENDBRANCH   1   2
BRANCH   1   4
ATOM      4  C   LIG    1        4.899   4.224  -1.463  0.00  0.00    +0.180 C 
BRANCH   4   5
ATOM      5  O   LIG    1        5.367   4.336  -2.809  0.00  0.00    -0.300 OA
BRANCH   5  10
ATOM      6  C   LIG    1        8.617   4.409  -4.466  0.00  0.00    -0.130 A 
ATOM      7  C   LIG    1        9.466   4.287  -3.362  0.00  0.00    +0.030 A 
ATOM      8  C   LIG    1        8.935   4.183  -2.093  0.00  0.00    +0.040 A 
ATOM      9  C   LIG    1        7.565   4.205  -1.908  0.00  0.00    -0.050 A 
ATOM     10  C   LIG    1        6.712   4.321  -2.998  0.00  0.00    +0.120 A 
ATOM     11  C   LIG    1        7.232   4.426  -4.276  0.00  0.00    +0.050 A 
BRANCH   6  13
ATOM     12  C   LIG    1       10.672   4.502  -6.023  0.00  0.00    +0.090 C 
ATOM     13  C   LIG    1        9.178   4.520  -5.822  0.00  0.00    +0.390 C 
ATOM     14  O   LIG    1        8.439   4.626  -6.778  0.00  0.00    -0.450 OA
ENDBRANCH   6  13
ENDBRANCH   5  10
ENDBRANCH   4   5
ENDBRANCH   1   4
BRANCH   1  15
ATOM     15  C   LIG    1        2.873   4.266  -0.002  0.00  0.00    +0.310 C 
BRANCH  15  16
ATOM     16  N   LIG    1        1.408   4.301   0.011  0.00  0.00    -0.470 N 
ATOM     17  C   LIG    1        0.758   5.499   0.022  0.00  0.00    +0.210 A 
ATOM     18  C   LIG    1       -0.594   5.534   0.035  0.00  0.00    -0.110 A 
ATOM     19  C   LIG    1       -1.323   4.326   0.036  0.00  0.00    +0.560 A 
ATOM     20  N   LIG    1       -0.666   3.153   0.024  0.00  0.00    -0.380 N 
ATOM     21  N   LIG    1       -1.090   1.817   0.017  0.00  0.00    -0.290 NA
ATOM     22  C   LIG    1       -0.013   1.076   0.008  0.00  0.00    +0.490 A 
ATOM     23  N   LIG    1        1.064   1.860   0.002  0.00  0.00    -0.540 NA
ATOM     24  O   LIG    1       -2.541   4.346   0.047  0.00  0.00    -0.480 OA
ATOM     25  C   LIG    1        1.545   6.784   0.022  0.00  0.00    +0.170 C 
ATOM     26  C   LIG    1        0.695   3.125   0.011  0.00  0.00    +0.510 A 
ENDBRANCH  15  16
ENDBRANCH   1  15
TORSDOF 7
