REMARK  Name = ZINCvU0000000BiF.0
REMARK                            x       y       z     vdW  Elec       q    Type
REMARK                         _______ _______ _______ _____ _____    ______ ____
ROOT
ATOM      1  N   LIG    1        2.647   2.583  -2.049  0.00  0.00    -0.560 N 
ATOM      2  C   LIG    1        3.871   2.893  -2.439  0.00  0.00    +0.530 C 
ATOM      3  C   LIG    1        4.874   1.774  -2.283  0.00  0.00    +0.050 C 
ATOM      4  S   LIG    1        3.886   0.412  -1.578  0.00  0.00    +0.040 S 
ATOM      5  O   LIG    1        4.165   3.983  -2.882  0.00  0.00    -0.450 OA
ATOM      6  C   LIG    1        2.374   1.336  -1.556  0.00  0.00    +0.390 C 
ATOM      7  N   LIG    1        1.207   0.905  -1.137  0.00  0.00    -0.490 NA
ENDROOT
BRANCH   7   8
ATOM      8  C   LIG    1        0.057   1.497  -1.587  0.00  0.00    +0.120 A 
ATOM      9  C   LIG    1       -0.770   2.187  -0.700  0.00  0.00    +0.010 A 
ATOM     10  C   LIG    1       -1.928   2.781  -1.159  0.00  0.00    +0.050 A 
ATOM     11  C   LIG    1       -2.270   2.693  -2.497  0.00  0.00    -0.090 A 
ATOM     12  C   LIG    1       -1.452   2.014  -3.384  0.00  0.00    -0.020 A 
ATOM     13 CL   LIG    1       -1.887   1.915  -5.062  0.00  0.00    -0.060 Cl
ATOM     14  C   LIG    1       -3.536   3.345  -2.991  0.00  0.00    +0.110 C 
ATOM     15  C   LIG    1       -0.294   1.411  -2.936  0.00  0.00    +0.000 A 
ENDBRANCH   7   8
BRANCH   1  16
ATOM     16  C   LIG    1        1.577   3.579  -2.145  0.00  0.00    +0.310 C 
BRANCH  16  17
ATOM     17  C   LIG    1        1.493   4.366  -0.836  0.00  0.00    +0.170 C 
BRANCH  17  19
ATOM     18  C   LIG    1        2.707   5.916   0.531  0.00  0.00    +0.200 C 
ATOM     19  O   LIG    1        2.683   5.139  -0.668  0.00  0.00    -0.380 OA
ENDBRANCH  17  19
ENDBRANCH  16  17
ENDBRANCH   1  16
BRANCH   3  20
ATOM     20  C   LIG    1        5.456   1.380  -3.642  0.00  0.00    +0.130 C 
BRANCH  20  21
ATOM     21  C   LIG    1        6.539   0.350  -3.446  0.00  0.00    +0.520 C 
ATOM     22  N   LIG    1        7.198  -0.147  -4.511  0.00  0.00    -0.660 N 
ATOM     23  H   LIG    1        7.024   0.207  -5.397  0.00  0.00    +0.420 HD
ATOM     24  O   LIG    1        6.817  -0.032  -2.329  0.00  0.00    -0.510 OA
BRANCH  22  25
ATOM     25  C   LIG    1        8.132  -1.175  -4.339  0.00  0.00    +0.150 A 
ATOM     26  C   LIG    1        8.795  -1.316  -3.127  0.00  0.00    +0.040 A 
ATOM     27  C   LIG    1        9.716  -2.332  -2.959  0.00  0.00    +0.050 A 
ATOM     28  C   LIG    1        9.980  -3.206  -3.997  0.00  0.00    +0.020 A 
ATOM     29  C   LIG    1        9.322  -3.068  -5.207  0.00  0.00    -0.020 A 
ATOM     30 CL   LIG    1        9.656  -4.168  -6.507  0.00  0.00    -0.060 Cl
ATOM     31  C   LIG    1        8.394  -2.058  -5.378  0.00  0.00    -0.110 A 
ATOM     32  C   LIG    1        7.673  -1.911  -6.693  0.00  0.00    +0.110 C 
ENDBRANCH  22  25
ENDBRANCH  20  21
ENDBRANCH   3  20
TORSDOF 7
