REMARK  Name = ZINCpk00000y1Jdg.0
REMARK                            x       y       z     vdW  Elec       q    Type
REMARK                         _______ _______ _______ _____ _____    ______ ____
ROOT
ATOM      1  C   LIG    1        1.685  -0.343   0.128  0.00  0.00    +0.170 C 
ATOM      2  C   LIG    1        2.416   0.872  -0.502  0.00  0.00    +0.090 C 
ATOM      3  C   LIG    1        1.362   1.996  -0.408  0.00  0.00    +0.340 C 
ATOM      4  N   LIG    1        0.045   1.351  -0.300  0.00  0.00    -0.600 N 
ATOM      5  C   LIG    1       -1.135   1.990  -0.173  0.00  0.00    +0.590 C 
ATOM      6  O   LIG    1       -2.170   1.354  -0.131  0.00  0.00    -0.530 OA
ATOM      7  C   LIG    1        0.229  -0.111  -0.348  0.00  0.00    +0.260 C 
ENDROOT
BRANCH   5   8
ATOM      8  C   LIG    1       -1.170   3.462  -0.084  0.00  0.00    -0.220 A 
ATOM      9  C   LIG    1       -2.395   4.146  -0.078  0.00  0.00    +0.150 A 
ATOM     10  C   LIG    1       -2.381   5.512   0.012  0.00  0.00    -0.050 A 
ATOM     11  C   LIG    1       -1.159   6.179   0.083  0.00  0.00    +0.320 A 
ATOM     12  N   LIG    1       -0.015   5.510   0.070  0.00  0.00    -0.510 NA
ATOM     13  C   LIG    1        0.016   4.196  -0.009  0.00  0.00    +0.330 A 
BRANCH  11  14
ATOM     14  N   LIG    1       -1.141   7.561   0.168  0.00  0.00    -0.460 N 
ATOM     15  C   LIG    1       -1.802   8.027   1.414  0.00  0.00    +0.190 C 
ATOM     16  C   LIG    1       -1.240   9.459   1.600  0.00  0.00    +0.040 C 
ATOM     17  C   LIG    1        0.229   9.316   1.138  0.00  0.00    +0.020 C 
ATOM     18  C   LIG    1        0.247   8.070   0.234  0.00  0.00    +0.210 C 
ENDBRANCH  11  14
ENDBRANCH   5   8
BRANCH   3  19
ATOM     19  C   LIG    1        1.413   2.851  -1.648  0.00  0.00    +0.200 A 
ATOM     20  N   LIG    1        0.777   2.610  -2.764  0.00  0.00    -0.290 NA
ATOM     21  N   LIG    1        1.101   3.652  -3.648  0.00  0.00    -0.480 N 
ATOM     22  H   LIG    1        0.784   3.761  -4.559  0.00  0.00    +0.440 HD
ATOM     23  C   LIG    1        1.941   4.465  -2.985  0.00  0.00    +0.490 A 
ATOM     24  N   LIG    1        2.120   3.972  -1.786  0.00  0.00    -0.530 NA
ENDBRANCH   3  19
BRANCH   1  26
ATOM     25  C   LIG    1        1.762  -1.600   2.167  0.00  0.00    +0.210 C 
ATOM     26  O   LIG    1        1.770  -0.309   1.554  0.00  0.00    -0.370 OA
ENDBRANCH   1  26
TORSDOF 4
