REMARK  Name = ZINCpk00000y1Jdg.1
REMARK                            x       y       z     vdW  Elec       q    Type
REMARK                         _______ _______ _______ _____ _____    ______ ____
ROOT
ATOM      1  C   LIG    1        3.441   6.596   0.849  0.00  0.00    +0.170 C 
ATOM      2  C   LIG    1        2.876   7.952   0.349  0.00  0.00    +0.100 C 
ATOM      3  C   LIG    1        1.361   7.678   0.241  0.00  0.00    +0.350 C 
ATOM      4  N   LIG    1        1.187   6.223   0.125  0.00  0.00    -0.610 N 
ATOM      5  C   LIG    1        0.008   5.577   0.032  0.00  0.00    +0.580 C 
ATOM      6  O   LIG    1       -1.029   6.210  -0.019  0.00  0.00    -0.520 OA
ATOM      7  C   LIG    1        2.517   5.587   0.122  0.00  0.00    +0.250 C 
ENDROOT
BRANCH   5   8
ATOM      8  C   LIG    1       -0.025   4.103  -0.009  0.00  0.00    -0.220 A 
ATOM      9  C   LIG    1       -1.153   3.403   0.445  0.00  0.00    +0.160 A 
ATOM     10  C   LIG    1       -1.142   2.036   0.383  0.00  0.00    -0.030 A 
ATOM     11  C   LIG    1       -0.016   1.383  -0.115  0.00  0.00    +0.330 A 
ATOM     12  N   LIG    1        1.038   2.068  -0.538  0.00  0.00    -0.520 NA
ATOM     13  C   LIG    1        1.066   3.384  -0.501  0.00  0.00    +0.320 A 
BRANCH  11  14
ATOM     14  N   LIG    1        0.001  -0.000  -0.174  0.00  0.00    -0.460 N 
ATOM     15  C   LIG    1       -1.062  -0.507  -1.079  0.00  0.00    +0.190 C 
ATOM     16  C   LIG    1       -0.576  -1.936  -1.431  0.00  0.00    +0.040 C 
ATOM     17  C   LIG    1        0.956  -1.761  -1.545  0.00  0.00    +0.020 C 
ATOM     18  C   LIG    1        1.277  -0.491  -0.736  0.00  0.00    +0.190 C 
ENDBRANCH  11  14
ENDBRANCH   5   8
BRANCH   3  19
ATOM     19  C   LIG    1        0.800   8.360  -0.981  0.00  0.00    +0.170 A 
ATOM     20  N   LIG    1        0.889   9.630  -1.267  0.00  0.00    -0.280 NA
ATOM     21  N   LIG    1        0.299   9.864  -2.385  0.00  0.00    -0.290 NA
ATOM     22  C   LIG    1       -0.194   8.754  -2.863  0.00  0.00    +0.380 A 
ATOM     23  N   LIG    1        0.114   7.767  -1.988  0.00  0.00    -0.560 N 
ATOM     24  H   LIG    1       -0.112   6.827  -2.065  0.00  0.00    +0.430 HD
ENDBRANCH   3  19
BRANCH   1  26
ATOM     25  C   LIG    1        4.240   5.568   2.861  0.00  0.00    +0.210 C 
ATOM     26  O   LIG    1        3.312   6.478   2.267  0.00  0.00    -0.370 OA
ENDBRANCH   1  26
TORSDOF 4
