REMARK  Name = ZINCpk00001AZiXg.0
REMARK                            x       y       z     vdW  Elec       q    Type
REMARK                         _______ _______ _______ _____ _____    ______ ____
ROOT
ATOM      1  N   LIG    1        4.025   0.618   0.545  0.00  0.00    -0.450 N 
ATOM      2  C   LIG    1        3.522   1.902   1.076  0.00  0.00    +0.210 C 
ATOM      3  C   LIG    1        2.006   1.673   1.314  0.00  0.00    +0.010 C 
ATOM      4  C   LIG    1        1.291   1.993   0.000  0.00  0.00    +0.230 C 
ATOM      5  O   LIG    1       -0.017   1.423   0.010  0.00  0.00    -0.370 OA
ATOM      6  C   LIG    1        0.002  -0.004   0.002  0.00  0.00    +0.220 C 
ATOM      7  C   LIG    1        0.672  -0.531   1.258  0.00  0.00    +0.030 C 
ATOM      8  C   LIG    1        1.921   0.190   1.655  0.00  0.00    -0.070 C 
ATOM      9  C   LIG    1        3.202  -0.460   1.130  0.00  0.00    +0.240 C 
ENDROOT
BRANCH   8  10
ATOM     10  C   LIG    1        2.000   0.115   3.158  0.00  0.00    +0.540 C 
ATOM     11  N   LIG    1        2.043  -1.085   3.771  0.00  0.00    -0.610 N 
ATOM     12  C   LIG    1        2.013  -2.396   3.098  0.00  0.00    +0.280 C 
ATOM     13  C   LIG    1        2.692  -3.368   4.098  0.00  0.00    +0.060 C 
ATOM     14  C   LIG    1        2.172  -2.827   5.456  0.00  0.00    +0.280 C 
ATOM     15  F   LIG    1        0.896  -3.329   5.733  0.00  0.00    -0.180 F 
ATOM     16  F   LIG    1        3.064  -3.140   6.487  0.00  0.00    -0.180 F 
ATOM     17  C   LIG    1        2.120  -1.302   5.223  0.00  0.00    +0.270 C 
ATOM     18  O   LIG    1        2.025   1.133   3.816  0.00  0.00    -0.520 OA
ENDBRANCH   8  10
BRANCH   1  23
ATOM     19  C   LIG    1        9.374  -0.258   1.898  0.00  0.00    +0.140 C 
ATOM     20  C   LIG    1        7.946   0.023   1.506  0.00  0.00    +0.050 A 
ATOM     21  C   LIG    1        7.645   1.136   0.735  0.00  0.00    +0.050 A 
ATOM     22  C   LIG    1        6.319   1.352   0.393  0.00  0.00    +0.030 A 
ATOM     23  C   LIG    1        5.369   0.443   0.856  0.00  0.00    +0.240 A 
ATOM     24  N   LIG    1        5.754  -0.592   1.588  0.00  0.00    -0.280 NA
ATOM     25  N   LIG    1        6.984  -0.789   1.897  0.00  0.00    -0.220 NA
ENDBRANCH   1  23
TORSDOF 2
