REMARK  Name = ZINCkj000005jRH4.0
REMARK                            x       y       z     vdW  Elec       q    Type
REMARK                         _______ _______ _______ _____ _____    ______ ____
ROOT
ATOM      1  N   LIG    1        1.442   1.362   2.377  0.00  0.00    -0.500 N 
ATOM      2  H   LIG    1        1.419   2.356   2.207  0.00  0.00    +0.420 HD
ATOM      3  H   LIG    1        1.947   0.904   1.633  0.00  0.00    +0.440 HD
ENDROOT
BRANCH   1  12
ATOM      4  C   LIG    1       -0.544   3.131   3.233  0.00  0.00    +0.050 C 
ATOM      5  C   LIG    1       -0.734   1.631   3.467  0.00  0.00    +0.010 C 
ATOM      6  C   LIG    1       -2.215   1.268   3.312  0.00  0.00    +0.070 C 
ATOM      7  C   LIG    1       -2.713   1.806   1.970  0.00  0.00    +0.280 C 
ATOM      8  N   LIG    1       -1.821   1.394   0.893  0.00  0.00    -0.690 N 
ATOM      9  H   LIG    1       -2.162   1.423  -0.015  0.00  0.00    +0.420 HD
ATOM     10  C   LIG    1       -0.567   0.981   1.077  0.00  0.00    +0.510 C 
ATOM     11  O   LIG    1        0.095   0.702   0.100  0.00  0.00    -0.530 OA
ATOM     12  C   LIG    1        0.070   0.842   2.430  0.00  0.00    +0.190 C 
ENDBRANCH   1  12
BRANCH   1  13
ATOM     13  C   LIG    1        2.115   1.100   3.657  0.00  0.00    +0.320 C 
BRANCH  13  14
ATOM     14  C   LIG    1        3.561   1.510   3.558  0.00  0.00    -0.160 A 
ATOM     15  C   LIG    1        4.534   0.555   3.340  0.00  0.00    +0.060 A 
ATOM     16  C   LIG    1        5.861   0.931   3.248  0.00  0.00    +0.030 A 
ATOM     17  C   LIG    1        6.209   2.261   3.377  0.00  0.00    +0.070 A 
ATOM     18  C   LIG    1        5.234   3.221   3.599  0.00  0.00    -0.110 A 
ATOM     19  C   LIG    1        5.656   4.660   3.746  0.00  0.00    +0.290 C 
ATOM     20  O   LIG    1        4.528   5.524   3.580  0.00  0.00    -0.370 OA
ATOM     21  C   LIG    1        3.426   5.167   4.423  0.00  0.00    +0.240 C 
ATOM     22  C   LIG    1        2.819   3.863   3.901  0.00  0.00    +0.040 C 
ATOM     23  C   LIG    1        3.910   2.846   3.680  0.00  0.00    -0.050 A 
ENDBRANCH  13  14
ENDBRANCH   1  13
TORSDOF 3
