REMARK  Name = ZINCvU0000000F7s.1
REMARK                            x       y       z     vdW  Elec       q    Type
REMARK                         _______ _______ _______ _____ _____    ______ ____
ROOT
ATOM      1  F   LIG    1        6.119  -1.792   0.291  0.00  0.00    -0.140 F 
ATOM      2  C   LIG    1        6.813  -0.588   0.135  0.00  0.00    +0.300 C 
ATOM      3  C   LIG    1        7.566  -0.261   1.426  0.00  0.00    +0.200 C 
ATOM      4  N   LIG    1        6.671  -0.477   2.573  0.00  0.00    -0.530 NA
ATOM      5  C   LIG    1        5.698   0.614   2.696  0.00  0.00    +0.170 C 
ATOM      6  C   LIG    1        4.290   0.091   2.402  0.00  0.00    -0.010 C 
ATOM      7  C   LIG    1        4.325  -0.810   1.165  0.00  0.00    +0.230 C 
ATOM      8  N   LIG    1        4.452   0.025  -0.040  0.00  0.00    -0.460 N 
ATOM      9  F   LIG    1        7.724  -0.706  -0.920  0.00  0.00    -0.190 F 
ATOM     10  C   LIG    1        5.821   0.538  -0.170  0.00  0.00    +0.210 C 
ENDROOT
BRANCH   8  11
ATOM     11  C   LIG    1        3.534   1.059  -0.026  0.00  0.00    +0.420 A 
ATOM     12  N   LIG    1        3.917   2.306   0.237  0.00  0.00    -0.580 NA
ATOM     13  C   LIG    1        3.043   3.295   0.251  0.00  0.00    +0.550 A 
ATOM     14  N   LIG    1        1.762   3.113   0.011  0.00  0.00    -0.550 NA
ATOM     15  C   LIG    1        1.284   1.899  -0.262  0.00  0.00    +0.390 A 
ATOM     16  N   LIG    1        0.026   1.426  -0.545  0.00  0.00    -0.590 N 
ATOM     17  H   LIG    1       -0.773   1.974  -0.593  0.00  0.00    +0.430 HD
ATOM     18  C   LIG    1        0.060   0.058  -0.759  0.00  0.00    +0.140 A 
ATOM     19  C   LIG    1       -0.930  -0.868  -1.070  0.00  0.00    +0.040 A 
ATOM     20  C   LIG    1       -0.606  -2.199  -1.229  0.00  0.00    -0.060 A 
ATOM     21  C   LIG    1        0.705  -2.628  -1.082  0.00  0.00    +0.030 A 
ATOM     22  C   LIG    1        1.700  -1.725  -0.774  0.00  0.00    +0.100 A 
ATOM     23 BR   LIG    1       -1.960  -3.450  -1.652  0.00  0.00    -0.040 Br
ATOM     24  C   LIG    1        1.386  -0.378  -0.610  0.00  0.00    -0.060 A 
ATOM     25  C   LIG    1        2.179   0.818  -0.288  0.00  0.00    -0.200 A 
ENDBRANCH   8  11
BRANCH   4  26
ATOM     26  C   LIG    1        7.438  -0.641   3.815  0.00  0.00    +0.240 C 
BRANCH  26  27
ATOM     27  C   LIG    1        6.518  -1.100   4.917  0.00  0.00    -0.080 A 
ATOM     28  C   LIG    1        5.876  -0.171   5.714  0.00  0.00    +0.010 A 
ATOM     29  C   LIG    1        5.029  -0.593   6.721  0.00  0.00    +0.000 A 
ATOM     30  C   LIG    1        4.830  -1.944   6.938  0.00  0.00    +0.000 A 
ATOM     31  C   LIG    1        5.476  -2.873   6.144  0.00  0.00    +0.000 A 
ATOM     32  C   LIG    1        6.320  -2.451   5.133  0.00  0.00    +0.030 A 
ENDBRANCH  26  27
ENDBRANCH   4  26
TORSDOF 3
