REMARK  Name = ZINCvU0000000F7s.0
REMARK                            x       y       z     vdW  Elec       q    Type
REMARK                         _______ _______ _______ _____ _____    ______ ____
ROOT
ATOM      1  F   LIG    1        6.562   1.447  -2.579  0.00  0.00    -0.140 F 
ATOM      2  C   LIG    1        7.135   0.817  -1.468  0.00  0.00    +0.270 C 
ATOM      3  C   LIG    1        6.803  -0.682  -1.495  0.00  0.00    +0.180 C 
ATOM      4  N   LIG    1        5.889  -0.955  -2.603  0.00  0.00    -0.520 NA
ATOM      5  C   LIG    1        4.821   0.053  -2.677  0.00  0.00    +0.220 C 
ATOM      6  C   LIG    1        3.772  -0.238  -1.594  0.00  0.00    -0.050 C 
ATOM      7  C   LIG    1        4.377   0.116  -0.225  0.00  0.00    +0.290 C 
ATOM      8  N   LIG    1        5.089   1.386  -0.307  0.00  0.00    -0.650 N 
ATOM      9  F   LIG    1        8.523   0.994  -1.488  0.00  0.00    -0.190 F 
ATOM     10  C   LIG    1        6.554   1.415  -0.175  0.00  0.00    +0.320 C 
ENDROOT
BRANCH   8  11
ATOM     11  C   LIG    1        4.392   2.555  -0.502  0.00  0.00    +0.500 A 
ATOM     12  C   LIG    1        3.878   3.259   0.586  0.00  0.00    -0.210 A 
ATOM     13  C   LIG    1        3.164   4.462   0.351  0.00  0.00    +0.340 A 
ATOM     14  N   LIG    1        3.016   4.874  -0.959  0.00  0.00    -0.560 N 
ATOM     15  H   LIG    1        2.534   5.691  -1.161  0.00  0.00    +0.430 HD
ATOM     16  C   LIG    1        3.541   4.138  -1.956  0.00  0.00    +0.630 A 
ATOM     17  N   LIG    1        2.773   4.958   1.507  0.00  0.00    -0.530 NA
ATOM     18  C   LIG    1        3.159   4.192   2.546  0.00  0.00    +0.120 A 
ATOM     19  C   LIG    1        2.981   4.309   3.931  0.00  0.00    +0.070 A 
ATOM     20  C   LIG    1        3.498   3.354   4.773  0.00  0.00    -0.070 A 
ATOM     21 BR   LIG    1        3.251   3.522   6.640  0.00  0.00    -0.050 Br
ATOM     22  C   LIG    1        4.200   2.265   4.269  0.00  0.00    +0.010 A 
ATOM     23  C   LIG    1        4.389   2.126   2.912  0.00  0.00    +0.070 A 
ATOM     24  C   LIG    1        3.875   3.081   2.040  0.00  0.00    -0.100 A 
ATOM     25  N   LIG    1        4.199   3.030  -1.740  0.00  0.00    -0.540 NA
ENDBRANCH   8  11
BRANCH   4  26
ATOM     26  C   LIG    1        5.329  -2.309  -2.502  0.00  0.00    +0.230 C 
BRANCH  26  27
ATOM     27  C   LIG    1        6.369  -3.316  -2.923  0.00  0.00    -0.080 A 
ATOM     28  C   LIG    1        6.457  -3.707  -4.246  0.00  0.00    +0.020 A 
ATOM     29  C   LIG    1        7.414  -4.626  -4.632  0.00  0.00    +0.000 A 
ATOM     30  C   LIG    1        8.276  -5.162  -3.694  0.00  0.00    +0.000 A 
ATOM     31  C   LIG    1        8.184  -4.775  -2.370  0.00  0.00    +0.000 A 
ATOM     32  C   LIG    1        7.231  -3.852  -1.984  0.00  0.00    +0.000 A 
ENDBRANCH  26  27
ENDBRANCH   4  26
TORSDOF 3
