REMARK  Name = ZINCrg00001Jdv2C.0
REMARK                            x       y       z     vdW  Elec       q    Type
REMARK                         _______ _______ _______ _____ _____    ______ ____
ROOT
ATOM      1  C   LIG    1       -1.187   1.624   0.017  0.00  0.00    +0.610 C 
ATOM      2  N   LIG    1       -0.011   0.966   0.007  0.00  0.00    -0.720 N 
ATOM      3  H   LIG    1        0.002  -0.004   0.002  0.00  0.00    +0.410 HD
ATOM      4  O   LIG    1       -1.204   2.840   0.023  0.00  0.00    -0.500 OA
ENDROOT
BRANCH   1   8
ATOM      5  C   LIG    1       -3.874  -0.804   0.016  0.00  0.00    -0.030 A 
ATOM      6  C   LIG    1       -4.613   0.346   0.026  0.00  0.00    +0.060 A 
ATOM      7  C   LIG    1       -3.706   1.413   0.027  0.00  0.00    +0.050 A 
ATOM      8  C   LIG    1       -2.453   0.870   0.018  0.00  0.00    -0.030 A 
ATOM      9  O   LIG    1       -2.571  -0.470   0.006  0.00  0.00    -0.140 OA
BRANCH   5  10
ATOM     10  C   LIG    1       -4.413  -2.173   0.011  0.00  0.00    +0.550 C 
ATOM     11  O   LIG    1       -5.615  -2.354   0.015  0.00  0.00    -0.480 OA
BRANCH  10  12
ATOM     12  O   LIG    1       -3.573  -3.228   0.001  0.00  0.00    -0.350 OA
BRANCH  12  14
ATOM     13  C   LIG    1       -3.072  -5.611  -0.015  0.00  0.00    +0.080 C 
ATOM     14  C   LIG    1       -4.174  -4.549  -0.004  0.00  0.00    +0.220 C 
ENDBRANCH  12  14
ENDBRANCH  10  12
ENDBRANCH   5  10
ENDBRANCH   1   8
BRANCH   2  15
ATOM     15  C   LIG    1        1.248   1.716  -0.001  0.00  0.00    +0.430 C 
BRANCH  15  16
ATOM     16  C   LIG    1        2.406   0.752  -0.017  0.00  0.00    +0.160 A 
ATOM     17  N   LIG    1        2.994   0.261  -1.077  0.00  0.00    -0.270 NA
ATOM     18  N   LIG    1        3.948  -0.529  -0.720  0.00  0.00    -0.260 NA
ATOM     19  C   LIG    1        4.009  -0.576   0.576  0.00  0.00    +0.180 A 
ATOM     20  C   LIG    1        4.961  -1.359   1.444  0.00  0.00    +0.150 C 
ATOM     21  C   LIG    1        4.896  -0.783   2.865  0.00  0.00    +0.080 C 
ATOM     22  C   LIG    1        3.431  -0.650   3.291  0.00  0.00    +0.060 C 
ATOM     23  C   LIG    1        2.758   0.461   2.476  0.00  0.00    +0.290 C 
ATOM     24  N   LIG    1        3.035   0.238   1.058  0.00  0.00    -0.460 N 
BRANCH  20  25
ATOM     25  C   LIG    1        6.363  -1.231   0.907  0.00  0.00    +0.480 C 
ATOM     26  O   LIG    1        7.232  -0.752   1.596  0.00  0.00    -0.500 OA
BRANCH  25  27
ATOM     27  O   LIG    1        6.646  -1.649  -0.337  0.00  0.00    -0.330 OA
ATOM     28  C   LIG    1        8.017  -1.494  -0.788  0.00  0.00    +0.270 C 
ENDBRANCH  25  27
ENDBRANCH  20  25
ENDBRANCH  15  16
ENDBRANCH   2  15
TORSDOF 8
