REMARK  Name = ZINCrD000000fHGG.0
REMARK                            x       y       z     vdW  Elec       q    Type
REMARK                         _______ _______ _______ _____ _____    ______ ____
ROOT
ATOM      1  C   LIG    1        8.299  -1.935  -3.583  0.00  0.00    +0.060 C 
ATOM      2  C   LIG    1        7.676  -1.698  -4.960  0.00  0.00    +0.040 C 
ATOM      3  C   LIG    1        6.397  -0.872  -4.808  0.00  0.00    +0.010 C 
ATOM      4  C   LIG    1        5.392  -1.648  -3.951  0.00  0.00    +0.260 C 
ATOM      5  N   LIG    1        6.033  -2.007  -2.679  0.00  0.00    -0.610 N 
ATOM      6  C   LIG    1        5.457  -1.684  -1.504  0.00  0.00    +0.520 C 
ATOM      7  O   LIG    1        5.997  -1.986  -0.461  0.00  0.00    -0.540 OA
ATOM      8  C   LIG    1        7.318  -2.718  -2.712  0.00  0.00    +0.290 C 
ENDROOT
BRANCH   1  14
ATOM      9  C   LIG    1       10.853  -2.297  -3.341  0.00  0.00    -0.010 A 
ATOM     10  C   LIG    1       11.732  -3.284  -3.650  0.00  0.00    +0.250 A 
ATOM     11  N   LIG    1       11.029  -4.296  -4.221  0.00  0.00    -0.470 N 
ATOM     12  H   LIG    1       11.395  -5.134  -4.544  0.00  0.00    +0.450 HD
ATOM     13  N   LIG    1        9.681  -3.916  -4.257  0.00  0.00    -0.270 NA
ATOM     14  C   LIG    1        9.576  -2.721  -3.737  0.00  0.00    +0.070 A 
BRANCH   9  17
ATOM     15  C   LIG    1       12.779   0.531  -1.749  0.00  0.00    +0.110 C 
ATOM     16  C   LIG    1       12.443  -0.786  -2.401  0.00  0.00    +0.510 C 
ATOM     17  N   LIG    1       11.167  -1.067  -2.732  0.00  0.00    -0.640 N 
ATOM     18  H   LIG    1       10.465  -0.423  -2.550  0.00  0.00    +0.410 HD
ATOM     19  O   LIG    1       13.320  -1.592  -2.628  0.00  0.00    -0.540 OA
ENDBRANCH   9  17
ENDBRANCH   1  14
BRANCH   6  20
ATOM     20  C   LIG    1        4.142  -0.948  -1.487  0.00  0.00    +0.070 C 
BRANCH  20  21
ATOM     21  C   LIG    1        3.711  -0.707  -0.039  0.00  0.00    +0.100 C 
BRANCH  21  22
ATOM     22  C   LIG    1        2.396   0.029  -0.022  0.00  0.00    -0.080 A 
ATOM     23  C   LIG    1        1.208  -0.679  -0.014  0.00  0.00    +0.000 A 
ATOM     24  C   LIG    1        0.002  -0.004   0.002  0.00  0.00    -0.080 A 
ATOM     25  C   LIG    1       -0.017   1.378   0.010  0.00  0.00    -0.010 A 
ATOM     26  C   LIG    1        1.171   2.086   0.002  0.00  0.00    -0.080 A 
ATOM     27  C   LIG    1        1.151   3.592   0.010  0.00  0.00    +0.090 C 
ATOM     28  C   LIG    1       -1.293  -0.775   0.010  0.00  0.00    +0.090 C 
ATOM     29  C   LIG    1        2.377   1.411  -0.014  0.00  0.00    +0.000 A 
ENDBRANCH  21  22
ENDBRANCH  20  21
ENDBRANCH   6  20
TORSDOF 5
