REMARK  Name = ZINCpk00001AZiSM.0
REMARK                            x       y       z     vdW  Elec       q    Type
REMARK                         _______ _______ _______ _____ _____    ______ ____
ROOT
ATOM      1  N   LIG    1        0.771  -4.728   1.196  0.00  0.00    -0.660 N 
ATOM      2  H   LIG    1        0.811  -5.696   1.238  0.00  0.00    +0.420 HD
ATOM      3  C   LIG    1        0.147  -4.124   0.165  0.00  0.00    +0.700 C 
ATOM      4  N   LIG    1       -0.332  -4.860  -0.858  0.00  0.00    -0.630 N 
ATOM      5  C   LIG    1       -0.918  -4.209  -2.038  0.00  0.00    +0.300 C 
ATOM      6  C   LIG    1       -2.314  -4.780  -2.279  0.00  0.00    +0.020 C 
ATOM      7  C   LIG    1       -2.229  -6.305  -2.378  0.00  0.00    +0.250 C 
ATOM      8  C   LIG    1       -1.693  -6.874  -1.063  0.00  0.00    +0.030 C 
ATOM      9  C   LIG    1       -0.285  -6.327  -0.810  0.00  0.00    +0.270 C 
ATOM     10  O   LIG    1        0.017  -2.915   0.157  0.00  0.00    -0.520 OA
ENDROOT
BRANCH   1  17
ATOM     11  C   LIG    1        2.004  -4.591   3.266  0.00  0.00    +0.050 A 
ATOM     12  C   LIG    1        2.589  -3.814   4.255  0.00  0.00    +0.000 A 
ATOM     13  C   LIG    1        2.504  -2.432   4.146  0.00  0.00    -0.130 A 
ATOM     14  C   LIG    1        1.846  -1.877   3.068  0.00  0.00    +0.260 A 
ATOM     15  N   LIG    1        1.298  -2.640   2.141  0.00  0.00    -0.440 NA
ATOM     16  C   LIG    1        3.125  -1.547   5.196  0.00  0.00    +0.100 C 
ATOM     17  C   LIG    1        1.360  -3.960   2.202  0.00  0.00    +0.350 A 
BRANCH  11  19
ATOM     18  C   LIG    1        2.746  -6.516   4.450  0.00  0.00    +0.250 C 
ATOM     19  O   LIG    1        2.062  -5.948   3.330  0.00  0.00    -0.320 OA
ENDBRANCH  11  19
ENDBRANCH   1  17
BRANCH   7  20
ATOM     20  N   LIG    1       -3.563  -6.852  -2.640  0.00  0.00    -1.110 NA
ATOM     21  H   LIG    1       -4.168  -7.027  -1.902  0.00  0.00    +0.420 HD
BRANCH  20  22
ATOM     22  S   LIG    1       -4.037  -7.171  -4.194  0.00  0.00    +2.640 S 
ATOM     23  O   LIG    1       -3.762  -5.968  -4.898  0.00  0.00    -0.950 OA
ATOM     24  O   LIG    1       -5.367  -7.655  -4.062  0.00  0.00    -0.950 OA
BRANCH  22  25
ATOM     25  C   LIG    1       -2.928  -8.497  -4.742  0.00  0.00    -0.530 C 
ATOM     26  C   LIG    1       -1.825  -8.130  -5.737  0.00  0.00    +0.100 C 
ATOM     27  C   LIG    1       -3.032  -8.947  -6.201  0.00  0.00    +0.100 C 
ENDBRANCH  22  25
ENDBRANCH  20  22
ENDBRANCH   7  20
TORSDOF 5
