REMARK  Name = ZINCrD000000fD7r.0
REMARK                            x       y       z     vdW  Elec       q    Type
REMARK                         _______ _______ _______ _____ _____    ______ ____
ROOT
ATOM      1  S   LIG    1        2.985  -3.054  -1.450  0.00  0.00    +2.680 S 
ATOM      2  O   LIG    1        1.853  -3.389  -2.240  0.00  0.00    -0.960 OA
ATOM      3  O   LIG    1        4.104  -3.916  -1.290  0.00  0.00    -0.930 OA
ENDROOT
BRANCH   1  10
ATOM      4  C   LIG    1        6.330   3.955  -4.450  0.00  0.00    +0.110 C 
ATOM      5  C   LIG    1        6.103   2.681  -3.678  0.00  0.00    +0.520 C 
ATOM      6  N   LIG    1        4.895   2.083  -3.705  0.00  0.00    -0.550 N 
ATOM      7  C   LIG    1        4.599   0.849  -3.116  0.00  0.00    +0.210 A 
ATOM      8  C   LIG    1        5.431  -0.012  -2.399  0.00  0.00    +0.000 A 
ATOM      9  C   LIG    1        4.937  -1.196  -1.895  0.00  0.00    +0.160 A 
ATOM     10  C   LIG    1        3.613  -1.540  -2.096  0.00  0.00    -0.690 A 
ATOM     11  C   LIG    1        2.784  -0.694  -2.810  0.00  0.00    +0.160 A 
ATOM     12  C   LIG    1        3.273   0.496  -3.312  0.00  0.00    -0.160 A 
ATOM     13  C   LIG    1        2.597   1.588  -4.110  0.00  0.00    +0.100 C 
ATOM     14  C   LIG    1        3.701   2.629  -4.355  0.00  0.00    +0.230 C 
ATOM     15  C   LIG    1        3.320   3.970  -3.725  0.00  0.00    +0.050 C 
ATOM     16  O   LIG    1        7.007   2.194  -3.032  0.00  0.00    -0.510 OA
ENDBRANCH   1  10
BRANCH   1  17
ATOM     17  O   LIG    1        2.462  -2.765  -0.050  0.00  0.00    -0.640 OA
BRANCH  17  18
ATOM     18  C   LIG    1        1.278  -2.099  -0.030  0.00  0.00    +0.080 A 
ATOM     19  C   LIG    1        0.101  -2.791  -0.023  0.00  0.00    +0.090 A 
ATOM     20  C   LIG    1       -1.122  -2.126  -0.002  0.00  0.00    +0.040 A 
ATOM     21  C   LIG    1       -1.179  -0.765   0.012  0.00  0.00    +0.070 A 
ATOM     22  C   LIG    1        0.010  -0.018   0.005  0.00  0.00    -0.090 A 
ATOM     23  C   LIG    1       -0.009   1.389   0.019  0.00  0.00    +0.100 A 
ATOM     24  C   LIG    1        1.187   2.050   0.011  0.00  0.00    -0.030 A 
ATOM     25  C   LIG    1        2.379   1.329  -0.011  0.00  0.00    +0.310 A 
ATOM     26  N   LIG    1        2.392   0.018  -0.023  0.00  0.00    -0.460 NA
ATOM     27  C   LIG    1        1.258  -0.688  -0.016  0.00  0.00    +0.120 A 
ENDBRANCH  17  18
ENDBRANCH   1  17
TORSDOF 3
