REMARK  Name = ZINCrD00000F5LG0.0
REMARK                            x       y       z     vdW  Elec       q    Type
REMARK                         _______ _______ _______ _____ _____    ______ ____
ROOT
ATOM      1  N   LIG    1       -6.107   1.593   0.040  0.00  0.00    -0.620 N 
ATOM      2  H   LIG    1       -6.117   2.563   0.045  0.00  0.00    +0.430 HD
ATOM      3  C   LIG    1       -4.933   0.932   0.030  0.00  0.00    +0.550 C 
ATOM      4  O   LIG    1       -4.921  -0.285   0.024  0.00  0.00    -0.510 OA
ENDROOT
BRANCH   1   8
ATOM      5  C   LIG    1       -9.514   0.600   0.049  0.00  0.00    +0.100 A 
ATOM      6  C   LIG    1       -9.190  -0.695   0.040  0.00  0.00    -0.130 A 
ATOM      7  S   LIG    1       -7.432  -0.818   0.025  0.00  0.00    +0.250 S 
ATOM      8  C   LIG    1       -7.303   0.887   0.041  0.00  0.00    +0.240 A 
ATOM      9  N   LIG    1       -8.483   1.424   0.050  0.00  0.00    -0.490 NA
BRANCH   5  10
ATOM     10  C   LIG    1      -10.942   1.081   0.058  0.00  0.00    +0.210 C 
BRANCH  10  11
ATOM     11  C   LIG    1      -11.152   2.007   1.228  0.00  0.00    +0.460 C 
ATOM     12  O   LIG    1      -10.237   2.251   1.978  0.00  0.00    -0.490 OA
BRANCH  11  13
ATOM     13  O   LIG    1      -12.357   2.562   1.437  0.00  0.00    -0.360 OA
BRANCH  13  15
ATOM     14  C   LIG    1      -13.920   3.975   2.658  0.00  0.00    +0.070 C 
ATOM     15  C   LIG    1      -12.487   3.443   2.583  0.00  0.00    +0.200 C 
ENDBRANCH  13  15
ENDBRANCH  11  13
ENDBRANCH  10  11
ENDBRANCH   5  10
ENDBRANCH   1   8
BRANCH   3  16
ATOM     16  C   LIG    1       -3.675   1.676   0.029  0.00  0.00    -0.090 C 
ATOM     17  C   LIG    1       -2.499   1.013   0.019  0.00  0.00    +0.160 C 
BRANCH  17  18
ATOM     18  C   LIG    1       -1.233   1.761   0.018  0.00  0.00    -0.090 A 
ATOM     19  C   LIG    1       -1.246   3.160   0.031  0.00  0.00    +0.040 A 
ATOM     20  C   LIG    1       -0.058   3.859   0.024  0.00  0.00    -0.040 A 
ATOM     21  C   LIG    1        1.152   3.179   0.008  0.00  0.00    +0.130 A 
ATOM     22  C   LIG    1        1.172   1.784   0.000  0.00  0.00    +0.100 A 
ATOM     23  C   LIG    1       -0.013   1.076   0.008  0.00  0.00    +0.000 A 
BRANCH  22  24
ATOM     24  O   LIG    1        2.360   1.122  -0.014  0.00  0.00    -0.300 OA
ATOM     25  C   LIG    1        2.307  -0.306  -0.021  0.00  0.00    +0.240 C 
ENDBRANCH  22  24
BRANCH  21  26
ATOM     26  O   LIG    1        2.319   3.873   0.001  0.00  0.00    -0.300 OA
BRANCH  26  27
ATOM     27  C   LIG    1        2.226   5.299   0.009  0.00  0.00    +0.170 C 
ATOM     28  C   LIG    1        3.632   5.902  -0.001  0.00  0.00    +0.070 C 
ENDBRANCH  26  27
ENDBRANCH  21  26
ENDBRANCH  17  18
ENDBRANCH   3  16
TORSDOF 10
