REMARK  Name = ZINCpk00000e8Ypz.0
REMARK                            x       y       z     vdW  Elec       q    Type
REMARK                         _______ _______ _______ _____ _____    ______ ____
ROOT
ATOM      1  S   LIG    1        1.485   2.417   0.350  0.00  0.00    +2.700 S 
ATOM      2  O   LIG    1        1.470   3.837   0.313  0.00  0.00    -0.950 OA
ATOM      3  O   LIG    1        0.306   1.628   0.431  0.00  0.00    -0.950 OA
ENDROOT
BRANCH   1   8
ATOM      4  C   LIG    1        3.469   2.411  -3.150  0.00  0.00    +0.120 A 
ATOM      5  C   LIG    1        3.671   1.056  -3.379  0.00  0.00    +0.060 A 
ATOM      6  C   LIG    1        3.207   0.126  -2.469  0.00  0.00    +0.020 A 
ATOM      7  C   LIG    1        2.540   0.543  -1.332  0.00  0.00    +0.010 A 
ATOM      8  C   LIG    1        2.336   1.891  -1.101  0.00  0.00    -0.670 A 
ATOM      9  C   LIG    1        2.034  -0.475  -0.342  0.00  0.00    +0.110 C 
ATOM     10  C   LIG    1        2.794   2.825  -2.009  0.00  0.00    +0.130 A 
BRANCH   4  13
ATOM     11  C   LIG    1        4.783   5.611  -4.633  0.00  0.00    +0.110 C 
ATOM     12  C   LIG    1        4.386   4.551  -3.637  0.00  0.00    +0.510 C 
ATOM     13  N   LIG    1        3.938   3.355  -4.069  0.00  0.00    -0.680 N 
ATOM     14  H   LIG    1        3.941   3.150  -5.017  0.00  0.00    +0.410 HD
ATOM     15  O   LIG    1        4.471   4.774  -2.448  0.00  0.00    -0.520 OA
ENDBRANCH   4  13
ENDBRANCH   1   8
BRANCH   1  16
ATOM     16  N   LIG    1        2.421   1.992   1.648  0.00  0.00    -1.120 NA
ATOM     17  H   LIG    1        2.101   1.331   2.282  0.00  0.00    +0.420 HD
BRANCH  16  18
ATOM     18  C   LIG    1        3.736   2.610   1.836  0.00  0.00    +0.420 C 
BRANCH  18  19
ATOM     19  C   LIG    1        4.181   2.420   3.264  0.00  0.00    +0.120 A 
ATOM     20  N   LIG    1        4.875   1.414   3.730  0.00  0.00    -0.220 NA
ATOM     21  N   LIG    1        5.084   1.563   4.991  0.00  0.00    -0.290 NA
ATOM     22  C   LIG    1        4.526   2.690   5.401  0.00  0.00    +0.200 A 
ATOM     23  C   LIG    1        4.447   3.333   6.651  0.00  0.00    +0.080 A 
ATOM     24  C   LIG    1        3.796   4.524   6.746  0.00  0.00    +0.070 A 
ATOM     25  C   LIG    1        3.202   5.087   5.603  0.00  0.00    +0.030 A 
ATOM     26  C   LIG    1        3.283   4.457   4.412  0.00  0.00    +0.230 A 
ATOM     27  N   LIG    1        3.939   3.267   4.301  0.00  0.00    -0.380 N 
ENDBRANCH  18  19
ENDBRANCH  16  18
ENDBRANCH   1  16
TORSDOF 5
