REMARK  Name = ZINCpe000000Wj7X.0
REMARK                            x       y       z     vdW  Elec       q    Type
REMARK                         _______ _______ _______ _____ _____    ______ ____
ROOT
ATOM      1  N   LIG    1       -0.806   3.062  -1.200  0.00  0.00    -0.480 N 
ATOM      2  C   LIG    1       -0.780   1.592  -1.218  0.00  0.00    +0.200 C 
ATOM      3  C   LIG    1       -0.039   1.083   0.021  0.00  0.00    +0.200 C 
ATOM      4  N   LIG    1       -0.709   1.581   1.230  0.00  0.00    -0.530 NA
ATOM      5  C   LIG    1       -0.735   3.051   1.247  0.00  0.00    +0.190 C 
ATOM      6  C   LIG    1       -1.477   3.560   0.008  0.00  0.00    +0.200 C 
ENDROOT
BRANCH   1  13
ATOM      7  C   LIG    1       -0.807   3.393  -3.599  0.00  0.00    +0.150 A 
ATOM      8  C   LIG    1       -1.415   3.889  -4.739  0.00  0.00    -0.090 A 
ATOM      9  C   LIG    1       -2.620   4.566  -4.643  0.00  0.00    +0.120 A 
ATOM     10  C   LIG    1       -3.221   4.743  -3.409  0.00  0.00    -0.030 A 
ATOM     11  C   LIG    1       -2.621   4.245  -2.267  0.00  0.00    +0.040 A 
ATOM     12  F   LIG    1       -3.210   5.053  -5.757  0.00  0.00    -0.140 F 
ATOM     13  C   LIG    1       -1.415   3.567  -2.357  0.00  0.00    +0.070 A 
BRANCH   7  15
ATOM     14  C   LIG    1        0.944   2.593  -4.995  0.00  0.00    +0.240 C 
ATOM     15  O   LIG    1        0.379   2.733  -3.690  0.00  0.00    -0.300 OA
ENDBRANCH   7  15
ENDBRANCH   1  13
BRANCH   4  16
ATOM     16  C   LIG    1       -0.070   1.052   2.442  0.00  0.00    +0.170 C 
BRANCH  16  17
ATOM     17  C   LIG    1       -0.625   1.777   3.669  0.00  0.00    +0.320 C 
BRANCH  17  18
ATOM     18  N   LIG    1        0.012   1.249   4.878  0.00  0.00    -0.580 N 
ATOM     19  C   LIG    1       -0.463   0.221   5.590  0.00  0.00    +0.700 C 
ATOM     20  N   LIG    1        0.309  -0.069   6.653  0.00  0.00    -0.730 N 
ATOM     21  H   LIG    1        0.160  -0.772   7.304  0.00  0.00    +0.440 HD
ATOM     22  C   LIG    1        1.424   0.895   6.639  0.00  0.00    +0.220 C 
ATOM     23  C   LIG    1        1.407   1.755   7.904  0.00  0.00    +0.090 C 
ATOM     24  O   LIG    1       -1.477  -0.386   5.307  0.00  0.00    -0.540 OA
ATOM     25  C   LIG    1        1.146   1.743   5.414  0.00  0.00    +0.520 C 
ATOM     26  O   LIG    1        1.807   2.672   5.001  0.00  0.00    -0.460 OA
ENDBRANCH  17  18
ENDBRANCH  16  17
ENDBRANCH   4  16
TORSDOF 5
