REMARK  Name = ZINCvU0000000ASM.0
REMARK                            x       y       z     vdW  Elec       q    Type
REMARK                         _______ _______ _______ _____ _____    ______ ____
ROOT
ATOM      1  C   LIG    1       -0.117   2.152  -6.486  0.00  0.00    +0.410 A 
ATOM      2  C   LIG    1        0.307   3.459  -6.833  0.00  0.00    -0.170 A 
ATOM      3  C   LIG    1        1.345   4.024  -6.098  0.00  0.00    +0.110 A 
ATOM      4  S   LIG    1        1.689   5.632  -6.706  0.00  0.00    +0.210 S 
ATOM      5  C   LIG    1        0.434   5.517  -7.940  0.00  0.00    -0.200 A 
ATOM      6  C   LIG    1       -0.142   6.380  -9.058  0.00  0.00    +0.130 C 
ATOM      7  C   LIG    1       -0.908   5.395  -9.963  0.00  0.00    +0.050 C 
ATOM      8  C   LIG    1       -1.271   4.278  -8.964  0.00  0.00    +0.110 C 
ATOM      9  N   LIG    1        1.898   3.317  -5.102  0.00  0.00    -0.490 NA
ATOM     10  C   LIG    1        1.472   2.108  -4.817  0.00  0.00    +0.380 A 
ATOM     11  C   LIG    1       -0.190   4.349  -7.885  0.00  0.00    -0.080 A 
ATOM     12  N   LIG    1        0.493   1.529  -5.489  0.00  0.00    -0.560 NA
ENDROOT
BRANCH   1  13
ATOM     13  O   LIG    1       -1.123   1.550  -7.164  0.00  0.00    -0.230 OA
BRANCH  13  17
ATOM     14  C   LIG    1       -2.018  -2.369  -6.227  0.00  0.00    +0.150 A 
ATOM     15  C   LIG    1       -2.401  -1.346  -5.371  0.00  0.00    +0.040 A 
ATOM     16  C   LIG    1       -2.101  -0.035  -5.685  0.00  0.00    +0.040 A 
ATOM     17  C   LIG    1       -1.417   0.259  -6.855  0.00  0.00    +0.070 A 
ATOM     18  C   LIG    1       -1.038  -0.763  -7.714  0.00  0.00    +0.040 A 
ATOM     19  C   LIG    1       -1.333  -2.074  -7.399  0.00  0.00    +0.010 A 
BRANCH  14  22
ATOM     20  C   LIG    1       -3.852  -5.433  -5.030  0.00  0.00    +0.110 C 
ATOM     21  C   LIG    1       -3.476  -3.995  -5.279  0.00  0.00    +0.510 C 
ATOM     22  N   LIG    1       -2.322  -3.700  -5.910  0.00  0.00    -0.680 N 
ATOM     23  H   LIG    1       -1.702  -4.408  -6.144  0.00  0.00    +0.410 HD
ATOM     24  O   LIG    1       -4.212  -3.103  -4.912  0.00  0.00    -0.520 OA
ENDBRANCH  14  22
ENDBRANCH  13  17
ENDBRANCH   1  13
BRANCH  10  25
ATOM     25  C   LIG    1        2.126   1.353  -3.689  0.00  0.00    +0.310 C 
BRANCH  25  26
ATOM     26  N   LIG    1        1.420   1.641  -2.433  0.00  0.00    -0.530 NA
ATOM     27  C   LIG    1        2.163   1.117  -1.280  0.00  0.00    +0.180 C 
ATOM     28  C   LIG    1        1.477   1.560   0.014  0.00  0.00    +0.030 C 
ATOM     29  C   LIG    1        0.039   1.034   0.029  0.00  0.00    -0.020 C 
ATOM     30  C   LIG    1       -0.699   1.554  -1.208  0.00  0.00    +0.030 C 
ATOM     31  C   LIG    1       -0.671   1.523   1.293  0.00  0.00    +0.010 C 
ATOM     32  C   LIG    1        0.050   1.112  -2.467  0.00  0.00    +0.170 C 
ENDBRANCH  25  26
ENDBRANCH  10  25
TORSDOF 5
