REMARK  Name = ZINCqH0000051cb8.0
REMARK                            x       y       z     vdW  Elec       q    Type
REMARK                         _______ _______ _______ _____ _____    ______ ____
ROOT
ATOM      1  C   LIG    1       -0.090   5.865  -1.409  0.00  0.00    +0.060 C 
ENDROOT
BRANCH   1   2
ATOM      2  C   LIG    1       -1.378   5.452  -2.074  0.00  0.00    -0.060 A 
ATOM      3  C   LIG    1       -2.589   5.864  -1.549  0.00  0.00    +0.000 A 
ATOM      4  C   LIG    1       -3.771   5.489  -2.162  0.00  0.00    +0.000 A 
ATOM      5  C   LIG    1       -3.741   4.695  -3.293  0.00  0.00    +0.000 A 
ATOM      6  C   LIG    1       -2.530   4.279  -3.814  0.00  0.00    +0.000 A 
ATOM      7  C   LIG    1       -1.349   4.658  -3.204  0.00  0.00    +0.040 A 
ENDBRANCH   1   2
BRANCH   1   8
ATOM      8  C   LIG    1        0.015   7.391  -1.403  0.00  0.00    +0.100 C 
BRANCH   8  10
ATOM      9  O   LIG    1        0.111   7.107  -3.744  0.00  0.00    -0.490 OA
ATOM     10  C   LIG    1        0.119   7.893  -2.821  0.00  0.00    +0.530 C 
ATOM     11  N   LIG    1        0.222   9.215  -3.062  0.00  0.00    -0.540 N 
ATOM     12  C   LIG    1        0.335   9.818  -4.393  0.00  0.00    +0.290 C 
ATOM     13  C   LIG    1        0.423  11.334  -4.143  0.00  0.00    +0.120 C 
ATOM     14  C   LIG    1        0.358  11.470  -2.641  0.00  0.00    -0.240 A 
ATOM     15  C   LIG    1        0.393  12.569  -1.809  0.00  0.00    +0.360 A 
ATOM     16  N   LIG    1        0.315  12.385  -0.497  0.00  0.00    -0.530 NA
ATOM     17  C   LIG    1        0.206  11.171   0.005  0.00  0.00    +0.540 A 
ATOM     18  N   LIG    1        0.170  10.099  -0.757  0.00  0.00    -0.550 NA
ATOM     19  C   LIG    1        0.243  10.200  -2.086  0.00  0.00    +0.400 A 
ENDBRANCH   8  10
ENDBRANCH   1   8
BRANCH   1  20
ATOM     20  C   LIG    1       -0.070   5.347   0.031  0.00  0.00    +0.090 C 
BRANCH  20  21
ATOM     21  C   LIG    1       -0.050   3.840   0.022  0.00  0.00    -0.080 A 
ATOM     22  C   LIG    1        1.156   3.165   0.008  0.00  0.00    +0.000 A 
ATOM     23  C   LIG    1        1.175   1.783   0.000  0.00  0.00    +0.000 A 
ATOM     24  C   LIG    1       -0.013   1.076   0.008  0.00  0.00    +0.000 A 
ATOM     25  C   LIG    1       -1.219   1.751   0.017  0.00  0.00    +0.000 A 
ATOM     26  C   LIG    1       -1.238   3.133   0.029  0.00  0.00    +0.010 A 
ENDBRANCH  20  21
ENDBRANCH   1  20
TORSDOF 5
