REMARK  Name = ZINCb8000000111D.0
REMARK                            x       y       z     vdW  Elec       q    Type
REMARK                         _______ _______ _______ _____ _____    ______ ____
ROOT
ATOM      1  N   LIG    1       -0.665   3.968   0.029  0.00  0.00    -0.370 N 
ATOM      2  C   LIG    1        0.679   3.931   0.016  0.00  0.00    +0.510 A 
ATOM      3  N   LIG    1        1.050   2.676   0.006  0.00  0.00    -0.510 NA
ATOM      4  C   LIG    1       -0.024   1.887   0.012  0.00  0.00    +0.220 A 
ATOM      5 BR   LIG    1        0.002  -0.004   0.002  0.00  0.00    +0.090 Br
ATOM      6  N   LIG    1       -1.098   2.632   0.021  0.00  0.00    -0.250 NA
ENDROOT
BRANCH   1   7
ATOM      7  C   LIG    1       -1.509   5.165   0.043  0.00  0.00    +0.430 C 
BRANCH   7   8
ATOM      8  C   LIG    1       -2.476   5.111  -1.112  0.00  0.00    +0.440 C 
ATOM      9  O   LIG    1       -2.460   4.170  -1.870  0.00  0.00    -0.470 OA
BRANCH   8  11
ATOM     10  C   LIG    1       -4.254   5.991  -2.433  0.00  0.00    +0.290 C 
ATOM     11  O   LIG    1       -3.353   6.109  -1.300  0.00  0.00    -0.360 OA
ENDBRANCH   8  11
ENDBRANCH   7   8
ENDBRANCH   1   7
TORSDOF 3
