REMARK  Name = ZINCtV000002HGH5.0
REMARK                            x       y       z     vdW  Elec       q    Type
REMARK                         _______ _______ _______ _____ _____    ______ ____
ROOT
ATOM      1  C   LIG    1       -3.192   4.238  -1.034  0.00  0.00    +0.170 A 
ATOM      2  N   LIG    1       -4.268   4.834  -0.571  0.00  0.00    -0.280 NA
ATOM      3  N   LIG    1       -4.258   4.828   0.714  0.00  0.00    -0.260 NA
ATOM      4  C   LIG    1       -3.179   4.223   1.153  0.00  0.00    +0.240 A 
ATOM      5  N   LIG    1       -2.463   3.822   0.046  0.00  0.00    -0.420 N 
ENDROOT
BRANCH   5   6
ATOM      6  C   LIG    1       -1.238   3.137   0.030  0.00  0.00    +0.050 A 
ATOM      7  C   LIG    1       -1.219   1.750   0.017  0.00  0.00    +0.120 A 
ATOM      8  C   LIG    1       -0.013   1.076   0.008  0.00  0.00    +0.010 A 
ATOM      9  C   LIG    1        1.177   1.783   0.000  0.00  0.00    +0.160 A 
ATOM     10  C   LIG    1        1.162   3.168   0.007  0.00  0.00    -0.010 A 
ATOM     11  F   LIG    1        2.355   1.122  -0.013  0.00  0.00    -0.120 F 
ATOM     12  C   LIG    1       -0.043   3.847   0.023  0.00  0.00    +0.160 A 
ATOM     13  F   LIG    1       -0.058   5.197   0.030  0.00  0.00    -0.110 F 
ENDBRANCH   5   6
BRANCH   4  14
ATOM     14  C   LIG    1       -2.802   4.012   2.566  0.00  0.00    -0.020 A 
ATOM     15  C   LIG    1       -1.808   3.090   2.897  0.00  0.00    +0.010 A 
ATOM     16  C   LIG    1       -1.456   2.903   4.218  0.00  0.00    +0.010 A 
ATOM     17  C   LIG    1       -2.097   3.617   5.215  0.00  0.00    +0.030 A 
ATOM     18  C   LIG    1       -3.088   4.527   4.895  0.00  0.00    +0.010 A 
ATOM     19  C   LIG    1       -3.444   4.729   3.577  0.00  0.00    +0.070 A 
ENDBRANCH   4  14
BRANCH   1  20
ATOM     20  S   LIG    1       -2.769   4.013  -2.730  0.00  0.00    +0.020 S 
BRANCH  20  21
ATOM     21  C   LIG    1       -4.189   4.813  -3.516  0.00  0.00    +0.160 C 
BRANCH  21  26
ATOM     22  C   LIG    1       -3.622   4.534  -9.260  0.00  0.00    +0.090 C 
ATOM     23  C   LIG    1       -3.770   4.606  -7.762  0.00  0.00    -0.080 A 
ATOM     24  C   LIG    1       -3.253   5.684  -7.068  0.00  0.00    +0.010 A 
ATOM     25  C   LIG    1       -3.393   5.754  -5.695  0.00  0.00    +0.030 A 
ATOM     26  C   LIG    1       -4.041   4.740  -5.014  0.00  0.00    -0.090 A 
ATOM     27  C   LIG    1       -4.558   3.662  -5.708  0.00  0.00    +0.040 A 
ATOM     28  C   LIG    1       -4.422   3.595  -7.082  0.00  0.00    -0.090 A 
ATOM     29  C   LIG    1       -4.986   2.420  -7.839  0.00  0.00    +0.090 C 
ENDBRANCH  21  26
ENDBRANCH  20  21
ENDBRANCH   1  20
TORSDOF 5
