REMARK  Name = ZINCrD00000hQ4o1.0
REMARK                            x       y       z     vdW  Elec       q    Type
REMARK                         _______ _______ _______ _____ _____    ______ ____
ROOT
ATOM      1  N   LIG    1       -1.418   3.199   0.259  0.00  0.00    -0.590 N 
ATOM      2  C   LIG    1       -1.564   1.862   0.282  0.00  0.00    +0.530 C 
ATOM      3  C   LIG    1       -0.249   1.208   0.113  0.00  0.00    +0.110 C 
ATOM      4  C   LIG    1        0.706   2.159  -0.025  0.00  0.00    -0.240 C 
ATOM      5  O   LIG    1       -2.619   1.277   0.425  0.00  0.00    -0.490 OA
ATOM      6  C   LIG    1        0.006   3.495   0.062  0.00  0.00    +0.350 C 
ENDROOT
BRANCH   6   7
ATOM      7  C   LIG    1        0.202   4.266  -1.218  0.00  0.00    -0.140 A 
ATOM      8  C   LIG    1        0.587   3.608  -2.370  0.00  0.00    +0.070 A 
ATOM      9  C   LIG    1        0.762   4.314  -3.545  0.00  0.00    +0.000 A 
ATOM     10  C   LIG    1        0.562   5.682  -3.567  0.00  0.00    +0.060 A 
ATOM     11  C   LIG    1        0.182   6.344  -2.415  0.00  0.00    -0.010 A 
ATOM     12  C   LIG    1        0.002   5.636  -1.238  0.00  0.00    +0.110 A 
ATOM     13  F   LIG    1       -0.370   6.282  -0.112  0.00  0.00    -0.140 F 
ENDBRANCH   6   7
BRANCH   4  14
ATOM     14  C   LIG    1        2.141   1.935  -0.220  0.00  0.00    +0.480 C 
ATOM     15  O   LIG    1        2.539   1.388  -1.232  0.00  0.00    -0.430 OA
BRANCH  14  16
ATOM     16  C   LIG    1        3.105   2.372   0.812  0.00  0.00    -0.170 A 
ATOM     17  C   LIG    1        2.648   2.957   1.996  0.00  0.00    +0.060 A 
ATOM     18  C   LIG    1        3.552   3.357   2.957  0.00  0.00    +0.000 A 
ATOM     19  C   LIG    1        4.910   3.192   2.746  0.00  0.00    -0.050 A 
ATOM     20  C   LIG    1        5.370   2.619   1.573  0.00  0.00    +0.000 A 
ATOM     21  C   LIG    1        5.892   3.638   3.799  0.00  0.00    +0.100 C 
ATOM     22  C   LIG    1        4.476   2.209   0.606  0.00  0.00    +0.090 A 
ENDBRANCH  14  16
ENDBRANCH   4  14
BRANCH   3  23
ATOM     23  O   LIG    1       -0.034  -0.127   0.093  0.00  0.00    -0.430 OA
ATOM     24  H   LIG    1       -0.835  -0.656   0.207  0.00  0.00    +0.410 HD
ENDBRANCH   3  23
BRANCH   1  25
ATOM     25  C   LIG    1       -2.492   4.185   0.400  0.00  0.00    +0.350 C 
BRANCH  25  26
ATOM     26  C   LIG    1       -3.161   4.408  -0.959  0.00  0.00    +0.150 C 
BRANCH  26  28
ATOM     27  C   LIG    1       -4.434   3.293  -2.656  0.00  0.00    +0.200 C 
ATOM     28  O   LIG    1       -3.777   3.194  -1.391  0.00  0.00    -0.370 OA
ENDBRANCH  26  28
ENDBRANCH  25  26
ENDBRANCH   1  25
TORSDOF 7
