REMARK  Name = ZINCtV000002PSAM.1
REMARK                            x       y       z     vdW  Elec       q    Type
REMARK                         _______ _______ _______ _____ _____    ______ ____
ROOT
ATOM      1  C   LIG    1        3.682   2.172  -0.022  0.00  0.00    +0.240 C 
ENDROOT
BRANCH   1   7
ATOM      2  C   LIG    1        1.176   2.086   0.002  0.00  0.00    +0.130 A 
ATOM      3  C   LIG    1       -0.017   1.377   0.010  0.00  0.00    -0.080 A 
ATOM      4  C   LIG    1        0.002  -0.004   0.002  0.00  0.00    +0.040 A 
ATOM      5  C   LIG    1        1.208  -0.680  -0.013  0.00  0.00    -0.040 A 
ATOM      6  C   LIG    1        2.398   0.024  -0.020  0.00  0.00    +0.070 A 
ATOM      7  C   LIG    1        2.385   1.405  -0.014  0.00  0.00    -0.110 A 
BRANCH   2   8
ATOM      8  O   LIG    1        1.160   3.445   0.009  0.00  0.00    -0.310 OA
BRANCH   8   9
ATOM      9  C   LIG    1       -0.121   4.079   0.024  0.00  0.00    +0.240 C 
BRANCH   9  13
ATOM     10  C   LIG    1        0.389   8.320   0.041  0.00  0.00    +0.010 A 
ATOM     11  C   LIG    1        0.295   7.640  -1.159  0.00  0.00    +0.000 A 
ATOM     12  C   LIG    1        0.131   6.267  -1.164  0.00  0.00    +0.030 A 
ATOM     13  C   LIG    1        0.059   5.575   0.030  0.00  0.00    -0.090 A 
ATOM     14  C   LIG    1        0.147   6.256   1.230  0.00  0.00    +0.030 A 
ATOM     15  C   LIG    1        0.318   7.628   1.235  0.00  0.00    +0.000 A 
ENDBRANCH   9  13
ENDBRANCH   8   9
ENDBRANCH   2   8
ENDBRANCH   1   7
BRANCH   1  16
ATOM     16  N   LIG    1        3.994   2.622   1.341  0.00  0.00    -0.670 NA
ATOM     17  H   LIG    1        3.237   3.169   1.724  0.00  0.00    +0.350 HD
BRANCH  16  18
ATOM     18  C   LIG    1        5.255   3.375   1.372  0.00  0.00    +0.260 C 
BRANCH  18  19
ATOM     19  C   LIG    1        5.856   3.292   2.751  0.00  0.00    -0.060 A 
ATOM     20  C   LIG    1        5.043   3.377   3.866  0.00  0.00    +0.030 A 
ATOM     21  C   LIG    1        5.594   3.296   5.131  0.00  0.00    +0.000 A 
ATOM     22  C   LIG    1        6.959   3.140   5.282  0.00  0.00    +0.000 A 
ATOM     23  C   LIG    1        7.773   3.059   4.167  0.00  0.00    +0.000 A 
ATOM     24  C   LIG    1        7.221   3.135   2.902  0.00  0.00    +0.010 A 
ENDBRANCH  18  19
BRANCH  18  25
ATOM     25  C   LIG    1        4.987   4.817   1.027  0.00  0.00    -0.110 A 
ATOM     26  C   LIG    1        3.857   5.446   1.514  0.00  0.00    +0.010 A 
ATOM     27  C   LIG    1        3.614   6.771   1.201  0.00  0.00    +0.010 A 
ATOM     28  C   LIG    1        4.496   7.463   0.393  0.00  0.00    +0.000 A 
ATOM     29  C   LIG    1        5.623   6.832  -0.099  0.00  0.00    +0.000 A 
ATOM     30  C   LIG    1        5.869   5.509   0.218  0.00  0.00    +0.010 A 
ENDBRANCH  18  25
ENDBRANCH  16  18
ENDBRANCH   1  16
TORSDOF 8
