REMARK  Name = ZINCpk00000eb5Ug.0
REMARK                            x       y       z     vdW  Elec       q    Type
REMARK                         _______ _______ _______ _____ _____    ______ ____
ROOT
ATOM      1  C   LIG    1       -1.488   4.044   4.902  0.00  0.00    +0.170 C 
ATOM      2  C   LIG    1       -1.401   4.407   6.387  0.00  0.00    +0.170 C 
ATOM      3  N   LIG    1       -1.876   5.785   6.578  0.00  0.00    -0.520 NA
ATOM      4  C   LIG    1       -1.076   6.727   5.781  0.00  0.00    +0.150 C 
ATOM      5  C   LIG    1       -1.166   6.341   4.302  0.00  0.00    +0.230 C 
ATOM      6  O   LIG    1       -0.730   4.988   4.141  0.00  0.00    -0.380 OA
ENDROOT
BRANCH   1   7
ATOM      7  C   LIG    1       -0.920   2.640   4.686  0.00  0.00    +0.340 C 
BRANCH   7  11
ATOM      8  C   LIG    1       -0.013   1.086   0.008  0.00  0.00    +0.110 C 
ATOM      9  C   LIG    1       -0.718   1.572   1.248  0.00  0.00    -0.240 A 
ATOM     10  C   LIG    1       -0.138   1.839   2.441  0.00  0.00    +0.230 A 
ATOM     11  N   LIG    1       -1.107   2.248   3.287  0.00  0.00    -0.370 N 
ATOM     12  N   LIG    1       -2.322   2.232   2.591  0.00  0.00    -0.290 NA
ATOM     13  C   LIG    1       -2.087   1.833   1.367  0.00  0.00    +0.230 A 
ENDBRANCH   7  11
ENDBRANCH   1   7
BRANCH   3  14
ATOM     14  C   LIG    1       -1.863   6.155   7.999  0.00  0.00    +0.170 C 
BRANCH  14  15
ATOM     15  C   LIG    1       -2.583   7.492   8.185  0.00  0.00    +0.220 C 
BRANCH  15  16
ATOM     16  O   LIG    1       -3.963   7.341   7.847  0.00  0.00    -0.540 OA
ATOM     17  H   LIG    1       -4.431   6.688   8.385  0.00  0.00    +0.370 HD
ENDBRANCH  15  16
BRANCH  15  18
ATOM     18  C   LIG    1       -2.462   7.938   9.644  0.00  0.00    +0.170 C 
BRANCH  18  19
ATOM     19  O   LIG    1       -3.032   9.240   9.793  0.00  0.00    -0.300 OA
BRANCH  19  20
ATOM     20  C   LIG    1       -3.005   9.787  11.037  0.00  0.00    +0.120 A 
ATOM     21  C   LIG    1       -2.447   9.082  12.094  0.00  0.00    -0.040 A 
ATOM     22  C   LIG    1       -2.416   9.640  13.357  0.00  0.00    +0.030 A 
ATOM     23  C   LIG    1       -2.951  10.899  13.571  0.00  0.00    +0.060 A 
ATOM     24  C   LIG    1       -3.514  11.601  12.519  0.00  0.00    +0.030 A 
ATOM     25  F   LIG    1       -2.925  11.442  14.807  0.00  0.00    -0.140 F 
ATOM     26  C   LIG    1       -3.542  11.047  11.253  0.00  0.00    +0.020 A 
ENDBRANCH  19  20
ENDBRANCH  18  19
ENDBRANCH  15  18
ENDBRANCH  14  15
ENDBRANCH   3  14
TORSDOF 8
