REMARK  Name = ZINCqH0000051u7g.0
REMARK                            x       y       z     vdW  Elec       q    Type
REMARK                         _______ _______ _______ _____ _____    ______ ____
ROOT
ATOM      1  N   LIG    1        7.475   0.356   0.578  0.00  0.00    -0.660 N 
ATOM      2  C   LIG    1        7.332   1.317  -0.525  0.00  0.00    +0.280 C 
ATOM      3  C   LIG    1        6.007   2.067  -0.357  0.00  0.00    +0.040 C 
ATOM      4  C   LIG    1        4.863   1.056  -0.252  0.00  0.00    +0.000 C 
ATOM      5  C   LIG    1        5.075   0.170   0.977  0.00  0.00    +0.030 C 
ATOM      6  C   LIG    1        6.389  -0.602   0.825  0.00  0.00    +0.280 C 
ENDROOT
BRANCH   1  10
ATOM      7  O   LIG    1       10.304   2.370   3.672  0.00  0.00    -0.540 OA
ATOM      8  C   LIG    1       10.058   1.407   2.964  0.00  0.00    +0.540 A 
ATOM      9  C   LIG    1        8.907   1.426   2.165  0.00  0.00    -0.110 A 
ATOM     10  C   LIG    1        8.606   0.355   1.367  0.00  0.00    +0.280 A 
ATOM     11  C   LIG    1        9.524  -0.795   1.367  0.00  0.00    -0.140 A 
ATOM     12  C   LIG    1        9.278  -1.915   0.572  0.00  0.00    +0.080 A 
ATOM     13  C   LIG    1       10.159  -2.973   0.596  0.00  0.00    -0.020 A 
ATOM     14  C   LIG    1       11.285  -2.931   1.406  0.00  0.00    +0.070 A 
ATOM     15  C   LIG    1       11.541  -1.831   2.197  0.00  0.00    -0.040 A 
ATOM     16  C   LIG    1       10.665  -0.752   2.187  0.00  0.00    +0.190 A 
ATOM     17  N   LIG    1       10.900   0.360   2.970  0.00  0.00    -0.640 N 
ATOM     18  H   LIG    1       11.689   0.387   3.534  0.00  0.00    +0.410 HD
ENDBRANCH   1  10
BRANCH   4  19
ATOM     19  C   LIG    1        3.554   1.791  -0.121  0.00  0.00    +0.520 C 
ATOM     20  N   LIG    1        2.401   1.101  -0.013  0.00  0.00    -0.670 N 
ATOM     21  H   LIG    1        2.420   0.133   0.047  0.00  0.00    +0.410 HD
ATOM     22  O   LIG    1        3.538   3.004  -0.113  0.00  0.00    -0.510 OA
BRANCH  20  23
ATOM     23  C   LIG    1        1.179   1.781   0.012  0.00  0.00    +0.140 A 
ATOM     24  C   LIG    1        0.058   1.218  -0.584  0.00  0.00    -0.030 A 
ATOM     25  C   LIG    1       -1.147   1.894  -0.562  0.00  0.00    +0.030 A 
ATOM     26  C   LIG    1       -1.239   3.125   0.062  0.00  0.00    -0.010 A 
ATOM     27  C   LIG    1       -0.124   3.688   0.655  0.00  0.00    +0.030 A 
ATOM     28  C   LIG    1        1.084   3.020   0.632  0.00  0.00    +0.020 A 
ENDBRANCH  20  23
ENDBRANCH   4  19
TORSDOF 3
