REMARK  Name = ZINCpk00000ebC9M.0
REMARK                            x       y       z     vdW  Elec       q    Type
REMARK                         _______ _______ _______ _____ _____    ______ ____
ROOT
ATOM      1  C   LIG    1       -1.156  -0.694   0.009  0.00  0.00    +0.570 C 
ATOM      2  N   LIG    1        0.002  -0.004   0.002  0.00  0.00    -0.710 N 
ATOM      3  H   LIG    1        0.849  -0.478  -0.009  0.00  0.00    +0.400 HD
ATOM      4  O   LIG    1       -2.216  -0.101   0.023  0.00  0.00    -0.490 OA
ENDROOT
BRANCH   1   8
ATOM      5  O   LIG    1        1.074  -4.915  -0.034  0.00  0.00    -0.520 OA
ATOM      6  C   LIG    1        0.038  -4.273  -0.021  0.00  0.00    +0.530 A 
ATOM      7  C   LIG    1        0.066  -2.857  -0.014  0.00  0.00    -0.100 A 
ATOM      8  C   LIG    1       -1.136  -2.179   0.001  0.00  0.00    +0.160 A 
ATOM      9  N   LIG    1       -2.287  -2.871   0.014  0.00  0.00    -0.500 NA
ATOM     10  C   LIG    1       -2.298  -4.175   0.002  0.00  0.00    +0.440 A 
ATOM     11  N   LIG    1       -1.159  -4.896  -0.013  0.00  0.00    -0.620 N 
ATOM     12  H   LIG    1       -1.200  -5.865  -0.018  0.00  0.00    +0.420 HD
BRANCH  10  13
ATOM     13  C   LIG    1       -3.621  -4.896   0.010  0.00  0.00    -0.010 C 
ATOM     14  C   LIG    1       -4.720  -4.369  -0.915  0.00  0.00    +0.080 C 
ATOM     15  C   LIG    1       -4.825  -4.157   0.597  0.00  0.00    +0.090 C 
ENDBRANCH  10  13
ENDBRANCH   1   8
BRANCH   2  16
ATOM     16  C   LIG    1       -0.018   1.461   0.010  0.00  0.00    +0.370 C 
BRANCH  16  17
ATOM     17  C   LIG    1        1.396   1.982  -0.001  0.00  0.00    +0.140 A 
ATOM     18  C   LIG    1        1.984   2.322  -1.206  0.00  0.00    -0.020 A 
ATOM     19  C   LIG    1        3.283   2.799  -1.209  0.00  0.00    +0.130 A 
ATOM     20  C   LIG    1        3.945   2.917   0.018  0.00  0.00    -0.210 A 
ATOM     21  C   LIG    1        5.332   3.416   0.062  0.00  0.00    +0.400 C 
ATOM     22  C   LIG    1        5.910   3.765   1.418  0.00  0.00    +0.040 C 
ATOM     23  C   LIG    1        5.480   2.664   2.396  0.00  0.00    +0.050 C 
ATOM     24  C   LIG    1        3.960   2.676   2.537  0.00  0.00    +0.120 C 
ATOM     25  O   LIG    1        5.987   3.542  -0.951  0.00  0.00    -0.440 OA
ATOM     26  C   LIG    1        3.288   2.558   1.196  0.00  0.00    +0.190 A 
ATOM     27  N   LIG    1        2.045   2.111   1.139  0.00  0.00    -0.480 NA
ENDBRANCH  16  17
ENDBRANCH   2  16
TORSDOF 4
