REMARK  Name = ZINCrH000004tPjK.0
REMARK                            x       y       z     vdW  Elec       q    Type
REMARK                         _______ _______ _______ _____ _____    ______ ____
ROOT
ATOM      1  O   LIG    1       -1.801  -5.787  -1.130  0.00  0.00    -0.480 OA
ATOM      2  C   LIG    1       -1.598  -4.719  -0.594  0.00  0.00    +0.520 C 
ATOM      3  N   LIG    1       -2.611  -4.061   0.004  0.00  0.00    -0.670 N 
ATOM      4  H   LIG    1       -2.436  -3.240   0.491  0.00  0.00    +0.420 HD
ENDROOT
BRANCH   3   5
ATOM      5  C   LIG    1       -3.915  -4.562  -0.077  0.00  0.00    +0.200 A 
ATOM      6  C   LIG    1       -4.992  -3.689  -0.152  0.00  0.00    -0.020 A 
ATOM      7  C   LIG    1       -6.278  -4.187  -0.237  0.00  0.00    +0.150 A 
ATOM      8  C   LIG    1       -6.493  -5.553  -0.237  0.00  0.00    -0.690 A 
ATOM      9  C   LIG    1       -5.423  -6.425  -0.156  0.00  0.00    +0.140 A 
ATOM     10  C   LIG    1       -4.135  -5.934  -0.076  0.00  0.00    +0.010 A 
BRANCH   8  11
ATOM     11  S   LIG    1       -8.135  -6.184  -0.338  0.00  0.00    +2.710 S 
ATOM     12  O   LIG    1       -8.027  -7.501  -0.862  0.00  0.00    -0.950 OA
ATOM     13  O   LIG    1       -8.919  -5.168  -0.947  0.00  0.00    -0.950 OA
BRANCH  11  14
ATOM     14  N   LIG    1       -8.696  -6.342   1.212  0.00  0.00    -1.010 NA
ATOM     15  C   LIG    1       -8.566  -7.541   2.052  0.00  0.00    +0.270 C 
ATOM     16  C   LIG    1       -9.255  -7.234   3.399  0.00  0.00    +0.030 C 
ATOM     17  C   LIG    1      -10.234  -6.088   3.032  0.00  0.00    +0.030 C 
ATOM     18  C   LIG    1       -9.415  -5.306   1.975  0.00  0.00    +0.270 C 
ENDBRANCH  11  14
ENDBRANCH   8  11
ENDBRANCH   3   5
BRANCH   2  19
ATOM     19  C   LIG    1       -0.212  -4.127  -0.596  0.00  0.00    +0.240 C 
BRANCH  19  20
ATOM     20  O   LIG    1        0.680  -5.004  -1.286  0.00  0.00    -0.270 OA
BRANCH  20  21
ATOM     21  C   LIG    1        1.979  -4.615  -1.379  0.00  0.00    +0.150 A 
ATOM     22  C   LIG    1        2.386  -3.415  -0.817  0.00  0.00    -0.040 A 
ATOM     23  C   LIG    1        3.709  -3.022  -0.913  0.00  0.00    +0.010 A 
ATOM     24  C   LIG    1        4.625  -3.825  -1.568  0.00  0.00    +0.020 A 
ATOM     25  C   LIG    1        4.221  -5.023  -2.128  0.00  0.00    +0.090 A 
ATOM     26 CL   LIG    1        4.220  -1.518  -0.210  0.00  0.00    -0.050 Cl
ATOM     27  C   LIG    1        2.901  -5.420  -2.035  0.00  0.00    -0.060 A 
ATOM     28 CL   LIG    1        2.396  -6.928  -2.733  0.00  0.00    -0.040 Cl
ENDBRANCH  20  21
ENDBRANCH  19  20
ENDBRANCH   2  19
TORSDOF 6
