REMARK  Name = ZINCkj00000FY0sr.0
REMARK                            x       y       z     vdW  Elec       q    Type
REMARK                         _______ _______ _______ _____ _____    ______ ____
ROOT
ATOM      1  N   LIG    1       -2.636   5.985   1.496  0.00  0.00    -0.490 N 
ATOM      2  H   LIG    1       -3.555   5.717   1.178  0.00  0.00    +0.440 HD
ATOM      3  H   LIG    1       -2.263   6.696   0.885  0.00  0.00    +0.430 HD
ENDROOT
BRANCH   1   4
ATOM      4  C   LIG    1       -1.751   4.813   1.482  0.00  0.00    +0.160 C 
ATOM      5  C   LIG    1       -2.379   3.690   2.309  0.00  0.00    +0.110 C 
BRANCH   4   6
ATOM      6  C   LIG    1       -1.558   4.338   0.040  0.00  0.00    +0.280 C 
ATOM      7  C   LIG    1       -0.930   5.461  -0.787  0.00  0.00    +0.080 C 
BRANCH   6   8
ATOM      8  N   LIG    1       -0.675   3.169   0.025  0.00  0.00    -0.390 N 
ATOM      9  C   LIG    1        0.674   3.192   0.013  0.00  0.00    +0.230 A 
ATOM     10  C   LIG    1        1.109   1.911   0.002  0.00  0.00    -0.090 A 
ATOM     11  C   LIG    1       -0.013   1.076   0.008  0.00  0.00    +0.260 A 
ATOM     12  N   LIG    1       -1.083   1.829   0.017  0.00  0.00    -0.290 NA
ENDBRANCH   6   8
ENDBRANCH   4   6
ENDBRANCH   1   4
BRANCH   1  13
ATOM     13  C   LIG    1       -2.726   6.514   2.864  0.00  0.00    +0.320 C 
BRANCH  13  16
ATOM     14  N   LIG    1       -3.867   8.370   4.035  0.00  0.00    -0.610 N 
ATOM     15  H   LIG    1       -3.450   8.067   4.856  0.00  0.00    +0.430 HD
ATOM     16  C   LIG    1       -3.634   7.717   2.879  0.00  0.00    +0.510 C 
ATOM     17  O   LIG    1       -4.154   8.096   1.852  0.00  0.00    -0.500 OA
BRANCH  14  21
ATOM     18  C   LIG    1       -6.957  12.060   2.734  0.00  0.00    +0.210 C 
ATOM     19  C   LIG    1       -6.062  11.098   3.471  0.00  0.00    +0.000 A 
ATOM     20  C   LIG    1       -5.389  10.051   2.939  0.00  0.00    -0.040 A 
ATOM     21  C   LIG    1       -4.707   9.484   4.049  0.00  0.00    +0.220 A 
ATOM     22  N   LIG    1       -5.030  10.210   5.086  0.00  0.00    -0.370 NA
ATOM     23  O   LIG    1       -5.776  11.112   4.781  0.00  0.00    +0.110 OA
ENDBRANCH  14  21
ENDBRANCH  13  16
ENDBRANCH   1  13
TORSDOF 6
