REMARK  Name = ZINCrg000000qFXY.0
REMARK                            x       y       z     vdW  Elec       q    Type
REMARK                         _______ _______ _______ _____ _____    ______ ____
ROOT
ATOM      1  N   LIG    1       -0.011   0.966   0.007  0.00  0.00    -0.500 N 
ATOM      2  H   LIG    1        0.002  -0.004   0.002  0.00  0.00    +0.440 HD
ATOM      3  C   LIG    1       -1.187   1.624   0.017  0.00  0.00    +0.600 C 
ATOM      4  O   LIG    1       -1.204   2.840   0.023  0.00  0.00    -0.520 OA
ENDROOT
BRANCH   3   5
ATOM      5  C   LIG    1       -2.456   0.868   0.018  0.00  0.00    +0.070 A 
ATOM      6  N   LIG    1       -2.447  -0.443   0.011  0.00  0.00    -0.190 NA
ATOM      7  N   LIG    1       -3.499  -1.170   0.013  0.00  0.00    -0.460 N 
ATOM      8  H   LIG    1       -3.391  -2.134   0.007  0.00  0.00    +0.450 HD
ATOM      9  C   LIG    1       -4.752  -0.668   0.022  0.00  0.00    +0.520 A 
ATOM     10  C   LIG    1       -4.921   0.791   0.031  0.00  0.00    -0.140 A 
ATOM     11  C   LIG    1       -6.168   1.408   0.041  0.00  0.00    +0.090 A 
ATOM     12  C   LIG    1       -6.241   2.785   0.049  0.00  0.00    +0.030 A 
ATOM     13  C   LIG    1       -5.087   3.557   0.048  0.00  0.00    +0.060 A 
ATOM     14  C   LIG    1       -3.841   2.965   0.037  0.00  0.00    +0.080 A 
ATOM     15  O   LIG    1       -5.719  -1.407   0.023  0.00  0.00    -0.490 OA
ATOM     16  C   LIG    1       -3.745   1.578   0.035  0.00  0.00    -0.030 A 
ENDBRANCH   3   5
BRANCH   1  18
ATOM     17  C   LIG    1        2.369   1.025  -0.015  0.00  0.00    +0.570 C 
ATOM     18  N   LIG    1        1.193   1.683  -0.000  0.00  0.00    -0.510 N 
ATOM     19  H   LIG    1        1.179   2.653   0.005  0.00  0.00    +0.440 HD
ATOM     20  O   LIG    1        2.385  -0.191  -0.022  0.00  0.00    -0.520 OA
BRANCH  17  25
ATOM     21  C   LIG    1        4.815   3.881  -0.024  0.00  0.00    +0.170 A 
ATOM     22  C   LIG    1        6.024   3.202  -0.039  0.00  0.00    -0.130 A 
ATOM     23  C   LIG    1        6.045   1.815  -0.046  0.00  0.00    +0.160 A 
ATOM     24  C   LIG    1        4.858   1.103  -0.038  0.00  0.00    +0.030 A 
ATOM     25  C   LIG    1        3.639   1.782  -0.023  0.00  0.00    -0.050 A 
ATOM     26  C   LIG    1        3.622   3.177  -0.021  0.00  0.00    -0.020 A 
BRANCH  21  28
ATOM     27  C   LIG    1        6.066   5.903  -0.025  0.00  0.00    +0.250 C 
ATOM     28  O   LIG    1        4.800   5.240  -0.017  0.00  0.00    -0.310 OA
ENDBRANCH  21  28
BRANCH  23  29
ATOM     29  O   LIG    1        7.233   1.155  -0.061  0.00  0.00    -0.310 OA
ATOM     30  C   LIG    1        8.419   1.952  -0.068  0.00  0.00    +0.250 C 
ENDBRANCH  23  29
ENDBRANCH  17  25
ENDBRANCH   1  18
TORSDOF 5
