REMARK  Name = ZINCvU0000000IwD.0
REMARK                            x       y       z     vdW  Elec       q    Type
REMARK                         _______ _______ _______ _____ _____    ______ ____
ROOT
ATOM      1  C   LIG    1        0.051  -0.009   5.210  0.00  0.00    +0.160 A 
ATOM      2  N   LIG    1        0.032   1.296   4.994  0.00  0.00    -0.460 NA
ATOM      3  C   LIG    1        0.029   2.169   5.997  0.00  0.00    +0.270 A 
ATOM      4  C   LIG    1        0.047   1.736   7.327  0.00  0.00    +0.030 A 
ATOM      5  C   LIG    1        0.068   0.385   7.599  0.00  0.00    -0.060 A 
ATOM      6  C   LIG    1        0.065  -0.515   6.524  0.00  0.00    -0.020 A 
ENDROOT
BRANCH   3   7
ATOM      7  C   LIG    1        0.006   3.614   5.704  0.00  0.00    -0.190 A 
ATOM      8  C   LIG    1       -0.008   4.158   4.468  0.00  0.00    +0.080 A 
ATOM      9  C   LIG    1       -0.033   5.535   4.446  0.00  0.00    +0.000 A 
ATOM     10  C   LIG    1       -0.029   6.122   5.648  0.00  0.00    -0.020 A 
ATOM     11  S   LIG    1       -0.000   4.895   6.908  0.00  0.00    +0.160 S 
ENDBRANCH   3   7
BRANCH   5  12
ATOM     12  C   LIG    1        0.088  -0.115   9.021  0.00  0.00    +0.510 C 
ATOM     13  F   LIG    1        1.242  -0.876   9.232  0.00  0.00    -0.160 F 
ATOM     14  F   LIG    1       -1.042  -0.907   9.253  0.00  0.00    -0.160 F 
ATOM     15  F   LIG    1        0.081   0.975   9.898  0.00  0.00    -0.160 F 
ENDBRANCH   5  12
BRANCH   6  16
ATOM     16  C   LIG    1        0.081  -1.927   6.758  0.00  0.00    +0.230 C 
ATOM     17  N   LIG    1        0.093  -3.048   6.943  0.00  0.00    -0.350 NA
ENDBRANCH   6  16
BRANCH   1  18
ATOM     18  S   LIG    1        0.054  -1.121   3.844  0.00  0.00    +0.070 S 
BRANCH  18  19
ATOM     19  C   LIG    1        0.025   0.062   2.475  0.00  0.00    +0.110 C 
BRANCH  19  22
ATOM     20  C   LIG    1       -0.018   1.461   0.010  0.00  0.00    +0.290 C 
ATOM     21  N   LIG    1        0.002  -0.004   0.002  0.00  0.00    -0.610 N 
ATOM     22  C   LIG    1        0.022  -0.684   1.165  0.00  0.00    +0.530 C 
ATOM     23  O   LIG    1        0.039  -1.897   1.159  0.00  0.00    -0.520 OA
BRANCH  21  24
ATOM     24  C   LIG    1       -0.000  -0.730  -1.271  0.00  0.00    +0.350 C 
BRANCH  24  25
ATOM     25  C   LIG    1        1.420  -0.959  -1.720  0.00  0.00    -0.130 A 
ATOM     26  C   LIG    1        2.049  -0.027  -2.524  0.00  0.00    +0.050 A 
ATOM     27  C   LIG    1        3.353  -0.233  -2.933  0.00  0.00    -0.020 A 
ATOM     28  C   LIG    1        4.025  -1.380  -2.546  0.00  0.00    +0.100 A 
ATOM     29  C   LIG    1        3.392  -2.316  -1.746  0.00  0.00    -0.020 A 
ATOM     30  F   LIG    1        5.298  -1.587  -2.950  0.00  0.00    -0.140 F 
ATOM     31  C   LIG    1        2.090  -2.104  -1.334  0.00  0.00    +0.070 A 
ENDBRANCH  24  25
ENDBRANCH  21  24
ENDBRANCH  19  22
ENDBRANCH  18  19
ENDBRANCH   1  18
TORSDOF 8
