REMARK  Name = ZINCvU0000000Fvd.0
REMARK                            x       y       z     vdW  Elec       q    Type
REMARK                         _______ _______ _______ _____ _____    ______ ____
ROOT
ATOM      1  O   LIG    1        0.591   1.328   2.075  0.00  0.00    -0.570 OA
ATOM      2  C   LIG    1        0.319   1.950   1.066  0.00  0.00    +0.720 C 
ATOM      3  N   LIG    1       -0.810   2.684   1.011  0.00  0.00    -0.610 N 
ATOM      4  N   LIG    1        1.143   1.901   0.001  0.00  0.00    -0.700 N 
ATOM      5  H   LIG    1        0.891   2.337  -0.828  0.00  0.00    +0.400 HD
ENDROOT
BRANCH   4   6
ATOM      6  C   LIG    1        2.363   1.222   0.092  0.00  0.00    +0.180 A 
ATOM      7  C   LIG    1        3.507   1.903   0.493  0.00  0.00    -0.090 A 
ATOM      8  C   LIG    1        3.699   3.350   0.892  0.00  0.00    +0.080 C 
ATOM      9  C   LIG    1        5.046   3.386   1.646  0.00  0.00    +0.030 C 
ATOM     10  C   LIG    1        5.794   2.178   1.045  0.00  0.00    +0.080 C 
ATOM     11  C   LIG    1        4.708   1.228   0.586  0.00  0.00    -0.090 A 
ATOM     12  C   LIG    1        4.768  -0.118   0.270  0.00  0.00    +0.030 A 
ATOM     13  C   LIG    1        3.633  -0.798  -0.135  0.00  0.00    -0.090 A 
ATOM     14  C   LIG    1        3.445  -2.248  -0.529  0.00  0.00    +0.080 C 
ATOM     15  C   LIG    1        2.100  -2.290  -1.285  0.00  0.00    +0.030 C 
ATOM     16  C   LIG    1        1.346  -1.084  -0.687  0.00  0.00    +0.080 C 
ATOM     17  C   LIG    1        2.427  -0.130  -0.225  0.00  0.00    -0.080 A 
ENDBRANCH   4   6
BRANCH   3  18
ATOM     18  C   LIG    1       -1.710   2.732   2.166  0.00  0.00    +0.290 C 
BRANCH  18  19
ATOM     19  C   LIG    1       -1.306   3.891   3.079  0.00  0.00    +0.300 C 
BRANCH  19  20
ATOM     20  C   LIG    1       -2.231   3.941   4.268  0.00  0.00    -0.050 A 
ATOM     21  C   LIG    1       -3.333   4.705   4.375  0.00  0.00    -0.050 A 
ATOM     22  C   LIG    1       -3.894   4.438   5.646  0.00  0.00    -0.070 A 
ATOM     23  C   LIG    1       -3.101   3.528   6.238  0.00  0.00    +0.170 A 
ATOM     24  O   LIG    1       -2.098   3.226   5.397  0.00  0.00    -0.170 OA
ENDBRANCH  19  20
BRANCH  19  25
ATOM     25  O   LIG    1        0.037   3.698   3.529  0.00  0.00    -0.540 OA
ATOM     26  H   LIG    1        0.171   2.881   4.029  0.00  0.00    +0.390 HD
ENDBRANCH  19  25
ENDBRANCH  18  19
ENDBRANCH   3  18
BRANCH   3  27
ATOM     27  C   LIG    1       -1.139   3.433  -0.204  0.00  0.00    +0.320 C 
BRANCH  27  28
ATOM     28  C   LIG    1       -1.957   2.564  -1.124  0.00  0.00    -0.110 A 
ATOM     29  C   LIG    1       -1.330   1.771  -2.067  0.00  0.00    +0.010 A 
ATOM     30  C   LIG    1       -2.081   0.971  -2.907  0.00  0.00    +0.000 A 
ATOM     31  C   LIG    1       -3.460   0.972  -2.812  0.00  0.00    +0.010 A 
ATOM     32  C   LIG    1       -4.088   1.769  -1.873  0.00  0.00    +0.000 A 
ATOM     33  C   LIG    1       -3.337   2.565  -1.030  0.00  0.00    +0.020 A 
ENDBRANCH  27  28
ENDBRANCH   3  27
TORSDOF 7
