REMARK  Name = ZINCpe00000gMAGp.0
REMARK                            x       y       z     vdW  Elec       q    Type
REMARK                         _______ _______ _______ _____ _____    ______ ____
ROOT
ATOM      1  N   LIG    1       -1.127   1.964   0.018  0.00  0.00    -0.560 N 
ATOM      2  C   LIG    1       -0.800   3.394   0.002  0.00  0.00    +0.310 C 
ATOM      3  C   LIG    1        0.683   3.485   0.424  0.00  0.00    +0.010 C 
ATOM      4  C   LIG    1        1.214   2.092   0.011  0.00  0.00    +0.100 C 
ATOM      5  C   LIG    1       -0.014   1.209   0.023  0.00  0.00    +0.520 C 
ATOM      6  O   LIG    1        0.002  -0.004   0.031  0.00  0.00    -0.500 OA
ENDROOT
BRANCH   1  11
ATOM      7  C   LIG    1       -3.929  -0.421  -0.063  0.00  0.00    +0.160 A 
ATOM      8  C   LIG    1       -5.009   0.443   0.051  0.00  0.00    -0.100 A 
ATOM      9  C   LIG    1       -4.799   1.805   0.153  0.00  0.00    +0.080 A 
ATOM     10  C   LIG    1       -3.514   2.311   0.142  0.00  0.00    -0.060 A 
ATOM     11  C   LIG    1       -2.429   1.451   0.029  0.00  0.00    +0.200 A 
ATOM     12  C   LIG    1       -2.638   0.084  -0.079  0.00  0.00    -0.030 A 
BRANCH   7  14
ATOM     13  C   LIG    1       -5.493  -2.209  -0.144  0.00  0.00    +0.250 C 
ATOM     14  O   LIG    1       -4.137  -1.760  -0.163  0.00  0.00    -0.310 OA
ENDBRANCH   7  14
ENDBRANCH   1  11
BRANCH   3  15
ATOM     15  C   LIG    1        1.393   4.578  -0.332  0.00  0.00    +0.530 C 
ATOM     16  N   LIG    1        2.725   4.735  -0.198  0.00  0.00    -0.730 N 
ATOM     17  H   LIG    1        3.227   4.144   0.386  0.00  0.00    +0.410 HD
ATOM     18  O   LIG    1        0.766   5.316  -1.062  0.00  0.00    -0.530 OA
BRANCH  16  19
ATOM     19  C   LIG    1        3.415   5.798  -0.933  0.00  0.00    +0.280 C 
BRANCH  19  20
ATOM     20  C   LIG    1        4.909   5.758  -0.605  0.00  0.00    +0.020 C 
BRANCH  20  21
ATOM     21  C   LIG    1        5.630   6.868  -1.372  0.00  0.00    +0.340 C 
BRANCH  21  22
ATOM     22  N   LIG    1        7.060   6.829  -1.058  0.00  0.00    -0.380 N 
ATOM     23  C   LIG    1        8.075   6.731  -1.934  0.00  0.00    +0.480 A 
ATOM     24  N   LIG    1        9.196   6.731  -1.259  0.00  0.00    -0.550 NA
ATOM     25  C   LIG    1        8.938   6.819   0.045  0.00  0.00    +0.420 A 
ATOM     26  N   LIG    1        7.644   6.881   0.218  0.00  0.00    -0.320 NA
ENDBRANCH  21  22
ENDBRANCH  20  21
ENDBRANCH  19  20
ENDBRANCH  16  19
ENDBRANCH   3  15
TORSDOF 7
