REMARK  Name = ZINCtV000002Mn2A.0
REMARK                            x       y       z     vdW  Elec       q    Type
REMARK                         _______ _______ _______ _____ _____    ______ ____
ROOT
ATOM      1  C   LIG    1       -2.756   5.950   0.047  0.00  0.00    +0.160 A 
ATOM      2  N   LIG    1       -1.591   6.557   0.045  0.00  0.00    -0.280 NA
ATOM      3  N   LIG    1       -1.756   7.831   0.052  0.00  0.00    -0.260 NA
ATOM      4  C   LIG    1       -3.037   8.118   0.059  0.00  0.00    +0.240 A 
ATOM      5  N   LIG    1       -3.719   6.921   0.052  0.00  0.00    -0.420 N 
ENDROOT
BRANCH   4   6
ATOM      6  C   LIG    1       -3.635   9.470   0.069  0.00  0.00    -0.020 A 
ATOM      7  C   LIG    1       -4.985   9.637   0.383  0.00  0.00    +0.050 A 
ATOM      8  C   LIG    1       -5.536  10.902   0.394  0.00  0.00    +0.030 A 
ATOM      9  C   LIG    1       -4.755  12.003   0.086  0.00  0.00    -0.020 A 
ATOM     10  C   LIG    1       -3.416  11.843  -0.231  0.00  0.00    +0.030 A 
ATOM     11 CL   LIG    1       -5.457  13.591   0.095  0.00  0.00    -0.060 Cl
ATOM     12  C   LIG    1       -2.853  10.584  -0.241  0.00  0.00    +0.090 A 
ENDBRANCH   4   6
BRANCH   5  13
ATOM     13  C   LIG    1       -5.109   6.738   0.051  0.00  0.00    +0.100 A 
ATOM     14  C   LIG    1       -5.866   7.159  -1.034  0.00  0.00    +0.060 A 
ATOM     15  C   LIG    1       -7.234   6.973  -1.035  0.00  0.00    +0.050 A 
ATOM     16  C   LIG    1       -7.853   6.375   0.049  0.00  0.00    -0.020 A 
ATOM     17  C   LIG    1       -7.101   5.959   1.134  0.00  0.00    +0.060 A 
ATOM     18 CL   LIG    1       -9.574   6.148   0.049  0.00  0.00    -0.050 Cl
ATOM     19  C   LIG    1       -5.732   6.139   1.137  0.00  0.00    +0.060 A 
ENDBRANCH   5  13
BRANCH   1  20
ATOM     20  S   LIG    1       -3.028   4.209   0.039  0.00  0.00    +0.080 S 
BRANCH  20  21
ATOM     21  C   LIG    1       -1.315   3.623   0.028  0.00  0.00    +0.110 C 
BRANCH  21  23
ATOM     22  O   LIG    1       -2.343   1.499   0.021  0.00  0.00    -0.430 OA
ATOM     23  C   LIG    1       -1.299   2.117   0.020  0.00  0.00    +0.420 C 
BRANCH  23  24
ATOM     24  C   LIG    1       -0.017   1.394   0.010  0.00  0.00    -0.170 A 
ATOM     25  C   LIG    1        1.189   2.103   0.002  0.00  0.00    +0.070 A 
ATOM     26  C   LIG    1        2.386   1.419  -0.014  0.00  0.00    +0.000 A 
ATOM     27  C   LIG    1        2.397   0.035  -0.021  0.00  0.00    +0.050 A 
ATOM     28  C   LIG    1        1.208  -0.673  -0.013  0.00  0.00    +0.000 A 
ATOM     29  C   LIG    1        0.002  -0.004   0.002  0.00  0.00    +0.080 A 
ENDBRANCH  23  24
ENDBRANCH  21  23
ENDBRANCH  20  21
ENDBRANCH   1  20
TORSDOF 6
