REMARK  Name = ZINCtj0000003FII.1
REMARK                            x       y       z     vdW  Elec       q    Type
REMARK                         _______ _______ _______ _____ _____    ______ ____
ROOT
ATOM      1  C   LIG    1        4.428   4.957  -1.245  0.00  0.00    +0.520 C 
ATOM      2  N   LIG    1        4.817   5.385  -2.462  0.00  0.00    -0.720 N 
ATOM      3  H   LIG    1        4.330   5.104  -3.253  0.00  0.00    +0.410 HD
ATOM      4  O   LIG    1        5.037   5.309  -0.256  0.00  0.00    -0.490 OA
ENDROOT
BRANCH   1   5
ATOM      5  C   LIG    1        3.239   4.042  -1.112  0.00  0.00    +0.280 C 
BRANCH   5  11
ATOM      6  C   LIG    1        1.518   2.957  -3.472  0.00  0.00    +0.220 C 
ATOM      7  C   LIG    1        2.752   2.327  -2.879  0.00  0.00    +0.190 A 
ATOM      8  N   LIG    1        3.319   1.208  -3.258  0.00  0.00    -0.290 NA
ATOM      9  N   LIG    1        4.345   1.006  -2.504  0.00  0.00    -0.060 NA
ATOM     10  N   LIG    1        4.449   1.970  -1.657  0.00  0.00    -0.090 NA
ATOM     11  N   LIG    1        3.487   2.806  -1.858  0.00  0.00    -0.310 N 
ENDBRANCH   5  11
BRANCH   5  12
ATOM     12  C   LIG    1        3.014   3.709   0.365  0.00  0.00    +0.150 C 
BRANCH  12  13
ATOM     13  C   LIG    1        1.754   2.896   0.510  0.00  0.00    -0.080 A 
ATOM     14  C   LIG    1        1.811   1.516   0.447  0.00  0.00    +0.000 A 
ATOM     15  C   LIG    1        0.656   0.768   0.580  0.00  0.00    +0.060 A 
ATOM     16  C   LIG    1       -0.558   1.399   0.771  0.00  0.00    +0.000 A 
ATOM     17  C   LIG    1       -0.616   2.781   0.839  0.00  0.00    +0.110 A 
ATOM     18  F   LIG    1       -1.802   3.399   1.032  0.00  0.00    -0.130 F 
ATOM     19  C   LIG    1        0.541   3.529   0.706  0.00  0.00    -0.010 A 
ENDBRANCH  12  13
ENDBRANCH   5  12
ENDBRANCH   1   5
BRANCH   2  20
ATOM     20  C   LIG    1        5.973   6.275  -2.592  0.00  0.00    +0.240 C 
BRANCH  20  21
ATOM     21  C   LIG    1        6.198   6.607  -4.068  0.00  0.00    +0.220 C 
ATOM     22  C   LIG    1        7.475   7.439  -4.216  0.00  0.00    +0.270 C 
ATOM     23  N   LIG    1        7.316   8.708  -3.494  0.00  0.00    -0.390 N 
ATOM     24  C   LIG    1        6.179   9.451  -4.054  0.00  0.00    +0.240 C 
ATOM     25  C   LIG    1        4.905   8.616  -3.906  0.00  0.00    +0.260 C 
ATOM     26  H   LIG    1        7.147   8.521  -2.517  0.00  0.00    +0.420 HD
ATOM     27  O   LIG    1        5.086   7.358  -4.564  0.00  0.00    -0.340 OA
BRANCH  23  28
ATOM     28  C   LIG    1        8.540   9.508  -3.634  0.00  0.00    +0.260 C 
BRANCH  28  29
ATOM     29  C   LIG    1        8.434  10.761  -2.762  0.00  0.00    -0.030 C 
ATOM     30  C   LIG    1        9.662  11.645  -2.987  0.00  0.00    +0.070 C 
ATOM     31  C   LIG    1        8.361  10.353  -1.289  0.00  0.00    +0.050 C 
ENDBRANCH  28  29
ENDBRANCH  23  28
ENDBRANCH  20  21
ENDBRANCH   2  20
TORSDOF 8
