REMARK  Name = ZINCpk00000jimmp.0
REMARK                            x       y       z     vdW  Elec       q    Type
REMARK                         _______ _______ _______ _____ _____    ______ ____
ROOT
ATOM      1  C   LIG    1        3.796   1.423   0.543  0.00  0.00    +0.250 C 
ENDROOT
BRANCH   1   2
ATOM      2  C   LIG    1        2.433   0.836   0.803  0.00  0.00    +0.520 C 
ATOM      3  N   LIG    1        1.403   1.138  -0.013  0.00  0.00    -0.720 N 
ATOM      4  H   LIG    1        1.520   1.789  -0.722  0.00  0.00    +0.400 HD
ATOM      5  O   LIG    1        2.262   0.093   1.746  0.00  0.00    -0.500 OA
BRANCH   3   6
ATOM      6  C   LIG    1        0.106   0.482   0.173  0.00  0.00    +0.350 C 
ATOM      7  C   LIG    1       -0.708   0.511  -1.141  0.00  0.00    +0.080 C 
ATOM      8  C   LIG    1       -1.556   1.791  -0.955  0.00  0.00    +0.290 C 
ATOM      9  N   LIG    1       -1.671   1.981   0.498  0.00  0.00    -0.480 N 
ATOM     10  C   LIG    1       -2.409   2.653   1.439  0.00  0.00    +0.140 A 
ATOM     11  C   LIG    1       -1.904   2.320   2.641  0.00  0.00    +0.160 A 
ATOM     12  N   LIG    1       -0.888   1.469   2.443  0.00  0.00    -0.460 NA
ATOM     13  C   LIG    1       -0.744   1.258   1.159  0.00  0.00    +0.170 A 
ENDBRANCH   3   6
ENDBRANCH   1   2
BRANCH   1  15
ATOM     14  C   LIG    1        2.919   3.762   0.587  0.00  0.00    +0.030 C 
ATOM     15  C   LIG    1        3.905   2.785   1.231  0.00  0.00    -0.020 C 
ATOM     16  C   LIG    1        3.575   2.634   2.717  0.00  0.00    +0.040 C 
ENDBRANCH   1  15
BRANCH   1  17
ATOM     17  N   LIG    1        4.824   0.525   1.074  0.00  0.00    -1.100 NA
ATOM     18  H   LIG    1        4.657   0.023   1.887  0.00  0.00    +0.430 HD
BRANCH  17  19
ATOM     19  S   LIG    1        6.272   0.365   0.286  0.00  0.00    +2.700 S 
ATOM     20  O   LIG    1        5.961   0.148  -1.084  0.00  0.00    -0.950 OA
ATOM     21  O   LIG    1        7.052  -0.537   1.058  0.00  0.00    -0.950 OA
BRANCH  19  22
ATOM     22  C   LIG    1        7.086   1.925   0.370  0.00  0.00    -0.680 A 
ATOM     23  C   LIG    1        6.888   2.863  -0.626  0.00  0.00    +0.120 A 
ATOM     24  C   LIG    1        7.524   4.089  -0.558  0.00  0.00    -0.010 A 
ATOM     25  C   LIG    1        8.365   4.373   0.501  0.00  0.00    +0.070 A 
ATOM     26  C   LIG    1        8.567   3.433   1.495  0.00  0.00    -0.010 A 
ATOM     27  C   LIG    1        7.928   2.209   1.429  0.00  0.00    +0.120 A 
ENDBRANCH  19  22
ENDBRANCH  17  19
ENDBRANCH   1  17
TORSDOF 6
