REMARK  Name = ZINCrg00000IZZ53.0
REMARK                            x       y       z     vdW  Elec       q    Type
REMARK                         _______ _______ _______ _____ _____    ______ ____
ROOT
ATOM      1  C   LIG    1        3.128   2.382   4.198  0.00  0.00    +0.580 C 
ATOM      2  N   LIG    1        1.862   2.261   3.751  0.00  0.00    -0.620 N 
ATOM      3  C   LIG    1        0.654   2.256   4.589  0.00  0.00    +0.250 C 
ATOM      4  C   LIG    1       -0.555   2.067   3.649  0.00  0.00    +0.040 C 
ATOM      5  C   LIG    1        0.080   1.410   2.395  0.00  0.00    +0.130 C 
ATOM      6  C   LIG    1        1.460   2.111   2.341  0.00  0.00    +0.270 C 
ATOM      7  O   LIG    1        4.059   2.270   3.425  0.00  0.00    -0.540 OA
ENDROOT
BRANCH   1  11
ATOM      8  C   LIG    1        3.863   3.156   8.309  0.00  0.00    +0.160 A 
ATOM      9  C   LIG    1        4.915   3.178   7.400  0.00  0.00    -0.020 A 
ATOM     10  C   LIG    1        4.681   2.928   6.066  0.00  0.00    +0.120 A 
ATOM     11  C   LIG    1        3.383   2.651   5.627  0.00  0.00    -0.180 A 
ATOM     12  C   LIG    1        2.328   2.635   6.542  0.00  0.00    +0.080 A 
ATOM     13  C   LIG    1        2.571   2.881   7.875  0.00  0.00    -0.090 A 
BRANCH   8  14
ATOM     14  O   LIG    1        4.098   3.403   9.622  0.00  0.00    -0.310 OA
BRANCH  14  16
ATOM     15  C   LIG    1        3.429   3.666  11.930  0.00  0.00    +0.070 C 
ATOM     16  C   LIG    1        2.972   3.365  10.501  0.00  0.00    +0.170 C 
ENDBRANCH  14  16
ENDBRANCH   8  14
ENDBRANCH   1  11
BRANCH   5  17
ATOM     17  N   LIG    1       -0.708   1.705   1.190  0.00  0.00    -0.520 NA
ATOM     18  C   LIG    1       -2.063   1.147   1.298  0.00  0.00    +0.210 C 
BRANCH  17  19
ATOM     19  C   LIG    1       -0.030   1.212  -0.016  0.00  0.00    +0.260 C 
BRANCH  19  20
ATOM     20  C   LIG    1       -0.734   1.741  -1.239  0.00  0.00    +0.240 A 
ATOM     21  C   LIG    1       -0.090   2.607  -2.075  0.00  0.00    -0.180 A 
ATOM     22  C   LIG    1       -0.765   3.083  -3.212  0.00  0.00    +0.540 A 
ATOM     23  N   LIG    1       -2.033   2.674  -3.432  0.00  0.00    -0.650 N 
ATOM     24  H   LIG    1       -2.519   2.993  -4.209  0.00  0.00    +0.410 HD
ATOM     25  C   LIG    1       -2.627   1.814  -2.561  0.00  0.00    +0.640 A 
ATOM     26  O   LIG    1       -0.218   3.854  -3.983  0.00  0.00    -0.540 OA
ATOM     27  N   LIG    1       -1.985   1.368  -1.500  0.00  0.00    -0.590 NA
BRANCH  25  28
ATOM     28  N   LIG    1       -3.912   1.404  -2.791  0.00  0.00    -0.820 N 
ATOM     29  H   LIG    1       -4.392   1.727  -3.570  0.00  0.00    +0.420 HD
ATOM     30  H   LIG    1       -4.343   0.791  -2.176  0.00  0.00    +0.430 HD
ENDBRANCH  25  28
ENDBRANCH  19  20
ENDBRANCH  17  19
ENDBRANCH   5  17
TORSDOF 7
