REMARK  Name = ZINCrH00000No4Aw.0
REMARK                            x       y       z     vdW  Elec       q    Type
REMARK                         _______ _______ _______ _____ _____    ______ ____
ROOT
ATOM      1  N   LIG    1       -1.790  -1.604  -2.671  0.00  0.00    -0.540 N 
ATOM      2  C   LIG    1       -3.150  -1.788  -2.853  0.00  0.00    +0.160 A 
ATOM      3  C   LIG    1       -4.048  -0.946  -3.525  0.00  0.00    -0.010 A 
ATOM      4  C   LIG    1       -5.382  -1.271  -3.620  0.00  0.00    +0.050 A 
ATOM      5  C   LIG    1       -5.869  -2.436  -3.055  0.00  0.00    +0.010 A 
ATOM      6  C   LIG    1       -5.002  -3.281  -2.389  0.00  0.00    +0.100 A 
ATOM      7  C   LIG    1       -3.660  -2.958  -2.291  0.00  0.00    -0.170 A 
ATOM      8  S   LIG    1       -2.294  -3.790  -1.535  0.00  0.00    +0.110 S 
ATOM      9  C   LIG    1       -1.103  -2.557  -1.980  0.00  0.00    +0.360 A 
ATOM     10  N   LIG    1        0.175  -2.563  -1.708  0.00  0.00    -0.520 NA
ENDROOT
BRANCH   1  11
ATOM     11  C   LIG    1       -1.110  -0.421  -3.205  0.00  0.00    +0.310 C 
BRANCH  11  14
ATOM     12  N   LIG    1        0.075   0.227  -5.277  0.00  0.00    -0.670 N 
ATOM     13  H   LIG    1        0.161   1.121  -4.912  0.00  0.00    +0.410 HD
ATOM     14  C   LIG    1       -0.589  -0.721  -4.586  0.00  0.00    +0.490 C 
ATOM     15  O   LIG    1       -0.768  -1.816  -5.077  0.00  0.00    -0.490 OA
BRANCH  12  20
ATOM     16  C   LIG    1        2.370  -1.017 -10.314  0.00  0.00    +0.090 C 
ATOM     17  C   LIG    1        1.761  -0.686  -8.976  0.00  0.00    -0.100 A 
ATOM     18  C   LIG    1        0.567  -1.272  -8.598  0.00  0.00    +0.030 A 
ATOM     19  C   LIG    1        0.005  -0.972  -7.373  0.00  0.00    +0.030 A 
ATOM     20  C   LIG    1        0.642  -0.081  -6.519  0.00  0.00    +0.130 A 
ATOM     21  C   LIG    1        1.838   0.510  -6.903  0.00  0.00    -0.010 A 
ATOM     22  C   LIG    1        2.397   0.202  -8.128  0.00  0.00    +0.030 A 
ENDBRANCH  12  20
ENDBRANCH  11  14
ENDBRANCH   1  11
BRANCH  10  23
ATOM     23  C   LIG    1        1.053  -1.542  -2.286  0.00  0.00    +0.170 C 
BRANCH  23  24
ATOM     24  C   LIG    1        2.510  -1.992  -2.160  0.00  0.00    +0.180 C 
ATOM     25  C   LIG    1        3.443  -0.917  -2.759  0.00  0.00    +0.000 C 
ATOM     26  C   LIG    1        4.635  -0.924  -1.763  0.00  0.00    +0.010 C 
ATOM     27  C   LIG    1        3.904  -1.226  -0.431  0.00  0.00    +0.190 C 
ATOM     28  O   LIG    1        2.854  -2.143  -0.778  0.00  0.00    -0.360 OA
ENDBRANCH  23  24
ENDBRANCH  10  23
TORSDOF 5
