REMARK  Name = ZINCkj000005lyND.2
REMARK                            x       y       z     vdW  Elec       q    Type
REMARK                         _______ _______ _______ _____ _____    ______ ____
ROOT
ATOM      1  N   LIG    1        2.444   1.031   0.146  0.00  0.00    -0.370 N 
ATOM      2  H   LIG    1        2.291   0.464   0.966  0.00  0.00    +0.430 HD
ENDROOT
BRANCH   1   3
ATOM      3  C   LIG    1        2.608   0.162  -1.027  0.00  0.00    +0.140 C 
ATOM      4  C   LIG    1        1.584  -0.985  -1.092  0.00  0.00    +0.070 C 
ATOM      5  C   LIG    1        2.736  -1.880  -1.578  0.00  0.00    +0.070 C 
ATOM      6  C   LIG    1        3.688  -0.918  -0.847  0.00  0.00    +0.070 C 
ENDBRANCH   1   3
BRANCH   1   7
ATOM      7  C   LIG    1        1.290   1.917  -0.058  0.00  0.00    +0.330 C 
BRANCH   7   9
ATOM      8  O   LIG    1        0.073   0.056   0.731  0.00  0.00    -0.480 OA
ATOM      9  C   LIG    1        0.020   1.165   0.244  0.00  0.00    +0.540 C 
ATOM     10  N   LIG    1       -1.176   1.723  -0.032  0.00  0.00    -0.570 N 
ATOM     11  C   LIG    1       -2.484   1.094   0.202  0.00  0.00    +0.300 C 
ATOM     12  C   LIG    1       -3.494   2.152  -0.281  0.00  0.00    +0.290 C 
ATOM     13  N   LIG    1       -2.648   3.261  -0.745  0.00  0.00    -0.710 N 
ATOM     14  H   LIG    1       -2.970   4.096  -1.119  0.00  0.00    +0.450 HD
ATOM     15  C   LIG    1       -1.361   2.936  -0.568  0.00  0.00    +0.700 C 
ATOM     16  O   LIG    1       -0.443   3.675  -0.868  0.00  0.00    -0.560 OA
ENDBRANCH   7   9
ENDBRANCH   1   7
BRANCH   1  17
ATOM     17  C   LIG    1        3.656   1.840   0.329  0.00  0.00    +0.290 C 
BRANCH  17  18
ATOM     18  C   LIG    1        4.813   0.936   0.757  0.00  0.00    +0.060 C 
BRANCH  18  19
ATOM     19  C   LIG    1        6.035   1.794   1.092  0.00  0.00    +0.470 C 
ATOM     20  F   LIG    1        6.411   2.529  -0.037  0.00  0.00    -0.170 F 
ATOM     21  F   LIG    1        7.093   0.967   1.484  0.00  0.00    -0.170 F 
ATOM     22  F   LIG    1        5.718   2.671   2.135  0.00  0.00    -0.180 F 
ENDBRANCH  18  19
ENDBRANCH  17  18
ENDBRANCH   1  17
TORSDOF 6
