REMARK  Name = ZINCkj000005lyND.1
REMARK                            x       y       z     vdW  Elec       q    Type
REMARK                         _______ _______ _______ _____ _____    ______ ____
ROOT
ATOM      1  N   LIG    1       -0.053   1.118  -2.407  0.00  0.00    -0.370 N 
ATOM      2  H   LIG    1        0.856   1.457  -2.129  0.00  0.00    +0.430 HD
ENDROOT
BRANCH   1   3
ATOM      3  C   LIG    1       -0.004  -0.341  -2.570  0.00  0.00    +0.150 C 
ATOM      4  C   LIG    1        0.978  -1.035  -1.610  0.00  0.00    +0.070 C 
ATOM      5  C   LIG    1        1.364  -1.944  -2.791  0.00  0.00    +0.070 C 
ATOM      6  C   LIG    1        0.911  -0.802  -3.717  0.00  0.00    +0.060 C 
ENDBRANCH   1   3
BRANCH   1   7
ATOM      7  C   LIG    1       -0.437   1.740  -3.682  0.00  0.00    +0.340 C 
BRANCH   7   9
ATOM      8  O   LIG    1        0.069   3.739  -2.535  0.00  0.00    -0.490 OA
ATOM      9  C   LIG    1       -0.365   3.240  -3.551  0.00  0.00    +0.540 C 
ATOM     10  N   LIG    1       -0.782   4.025  -4.563  0.00  0.00    -0.570 N 
ATOM     11  C   LIG    1       -0.770   5.496  -4.561  0.00  0.00    +0.300 C 
ATOM     12  C   LIG    1       -1.341   5.871  -5.943  0.00  0.00    +0.290 C 
ATOM     13  N   LIG    1       -1.622   4.573  -6.573  0.00  0.00    -0.710 N 
ATOM     14  H   LIG    1       -1.997   4.447  -7.458  0.00  0.00    +0.450 HD
ATOM     15  C   LIG    1       -1.278   3.591  -5.729  0.00  0.00    +0.700 C 
ATOM     16  O   LIG    1       -1.406   2.412  -5.997  0.00  0.00    -0.550 OA
ENDBRANCH   7   9
ENDBRANCH   1   7
BRANCH   1  17
ATOM     17  C   LIG    1       -1.041   1.463  -1.376  0.00  0.00    +0.270 C 
BRANCH  17  18
ATOM     18  C   LIG    1       -0.576   0.921  -0.023  0.00  0.00    +0.080 C 
BRANCH  18  19
ATOM     19  C   LIG    1       -1.605   1.280   1.050  0.00  0.00    +0.470 C 
ATOM     20  F   LIG    1       -1.735   2.671   1.125  0.00  0.00    -0.170 F 
ATOM     21  F   LIG    1       -1.181   0.784   2.288  0.00  0.00    -0.170 F 
ATOM     22  F   LIG    1       -2.841   0.714   0.720  0.00  0.00    -0.180 F 
ENDBRANCH  18  19
ENDBRANCH  17  18
ENDBRANCH   1  17
TORSDOF 6
