REMARK  Name = ZINCrg000000oQrb.0
REMARK                            x       y       z     vdW  Elec       q    Type
REMARK                         _______ _______ _______ _____ _____    ______ ____
ROOT
ATOM      1  C   LIG    1       -0.473   3.259   3.589  0.00  0.00    +0.230 C 
ENDROOT
BRANCH   1   2
ATOM      2  O   LIG    1       -0.232   1.851   3.628  0.00  0.00    -0.530 OA
ATOM      3  H   LIG    1       -1.028   1.320   3.766  0.00  0.00    +0.370 HD
ENDBRANCH   1   2
BRANCH   1   4
ATOM      4  C   LIG    1       -1.434   3.580   2.443  0.00  0.00    +0.160 C 
BRANCH   4   8
ATOM      5  N   LIG    1       -0.033   3.351  -1.507  0.00  0.00    -1.010 NA
ATOM      6  C   LIG    1       -1.165   2.484  -1.148  0.00  0.00    +0.300 C 
ATOM      7  C   LIG    1       -1.829   3.041   0.116  0.00  0.00    +0.170 C 
ATOM      8  N   LIG    1       -0.813   3.208   1.164  0.00  0.00    -0.520 NA
ATOM      9  C   LIG    1        0.209   4.187   0.771  0.00  0.00    +0.170 C 
ATOM     10  C   LIG    1        0.955   3.672  -0.465  0.00  0.00    +0.300 C 
BRANCH   5  11
ATOM     11  S   LIG    1        0.126   3.950  -3.042  0.00  0.00    +2.780 S 
ATOM     12  O   LIG    1       -0.593   3.068  -3.893  0.00  0.00    -0.970 OA
ATOM     13  O   LIG    1        1.505   4.245  -3.217  0.00  0.00    -0.970 OA
BRANCH  11  15
ATOM     14  C   LIG    1        0.040   6.639  -2.765  0.00  0.00    +0.300 C 
ATOM     15  N   LIG    1       -0.672   5.400  -3.089  0.00  0.00    -1.010 NA
ATOM     16  C   LIG    1       -2.091   5.444  -3.452  0.00  0.00    +0.290 C 
ENDBRANCH  11  15
ENDBRANCH   5  11
ENDBRANCH   4   8
ENDBRANCH   1   4
BRANCH   1  17
ATOM     17  C   LIG    1       -1.092   3.708   4.914  0.00  0.00    +0.170 C 
BRANCH  17  18
ATOM     18  O   LIG    1       -0.148   3.515   5.970  0.00  0.00    -0.300 OA
BRANCH  18  19
ATOM     19  C   LIG    1       -0.543   3.866   7.222  0.00  0.00    +0.130 A 
ATOM     20  C   LIG    1        0.316   3.699   8.271  0.00  0.00    -0.010 A 
ATOM     21  C   LIG    1       -0.090   4.066   9.565  0.00  0.00    -0.010 A 
ATOM     22  C   LIG    1        0.768   3.913  10.668  0.00  0.00    +0.010 A 
ATOM     23  C   LIG    1        0.340   4.273  11.909  0.00  0.00    +0.020 A 
ATOM     24  C   LIG    1       -0.938   4.793  12.104  0.00  0.00    -0.010 A 
ATOM     25  C   LIG    1       -1.796   4.956  11.059  0.00  0.00    +0.040 A 
ATOM     26  C   LIG    1       -1.390   4.595   9.763  0.00  0.00    -0.080 A 
ATOM     27  C   LIG    1       -2.249   4.748   8.661  0.00  0.00    +0.070 A 
ATOM     28  C   LIG    1       -1.825   4.389   7.420  0.00  0.00    -0.060 A 
ENDBRANCH  18  19
ENDBRANCH  17  18
ENDBRANCH   1  17
TORSDOF 8
