REMARK  Name = ZINCqH000000664S.0
REMARK                            x       y       z     vdW  Elec       q    Type
REMARK                         _______ _______ _______ _____ _____    ______ ____
ROOT
ATOM      1  C   LIG    1        0.122   3.719  -1.170  0.00  0.00    -0.130 A 
ATOM      2  C   LIG    1        1.354   3.128  -1.381  0.00  0.00    +0.060 A 
ATOM      3  C   LIG    1        1.430   1.796  -1.739  0.00  0.00    -0.010 A 
ATOM      4  C   LIG    1        0.269   1.051  -1.886  0.00  0.00    +0.130 A 
ATOM      5  C   LIG    1       -0.966   1.648  -1.679  0.00  0.00    -0.070 A 
ATOM      6  C   LIG    1       -1.037   2.979  -1.316  0.00  0.00    +0.050 A 
ENDROOT
BRANCH   1   7
ATOM      7  C   LIG    1        0.042   5.172  -0.779  0.00  0.00    +0.290 C 
ATOM      8  C   LIG    1       -0.175   5.283   0.731  0.00  0.00    +0.030 C 
BRANCH   7  10
ATOM      9  C   LIG    1       -1.065   7.135  -1.708  0.00  0.00    +0.510 C 
ATOM     10  N   LIG    1       -1.077   5.806  -1.482  0.00  0.00    -0.730 N 
ATOM     11  H   LIG    1       -1.826   5.269  -1.784  0.00  0.00    +0.400 HD
ATOM     12  O   LIG    1       -0.128   7.806  -1.330  0.00  0.00    -0.510 OA
BRANCH   9  13
ATOM     13  C   LIG    1       -2.216   7.786  -2.430  0.00  0.00    +0.040 C 
BRANCH  13  14
ATOM     14  C   LIG    1       -1.892   9.261  -2.679  0.00  0.00    +0.110 C 
ATOM     15  C   LIG    1       -2.053  10.146  -1.432  0.00  0.00    +0.050 C 
ATOM     16  C   LIG    1       -2.663  11.209  -2.362  0.00  0.00    +0.010 C 
ATOM     17  C   LIG    1       -3.058  10.052  -3.295  0.00  0.00    -0.010 C 
BRANCH  14  19
ATOM     18  C   LIG    1       -0.580   8.796  -4.630  0.00  0.00    +0.200 C 
ATOM     19  O   LIG    1       -0.650   9.449  -3.361  0.00  0.00    -0.340 OA
ENDBRANCH  14  19
ENDBRANCH  13  14
ENDBRANCH   9  13
ENDBRANCH   7  10
ENDBRANCH   1   7
BRANCH   4  20
ATOM     20  O   LIG    1        0.341  -0.260  -2.239  0.00  0.00    -0.310 OA
BRANCH  20  21
ATOM     21  C   LIG    1       -0.895  -0.965  -2.372  0.00  0.00    +0.260 C 
BRANCH  21  22
ATOM     22  C   LIG    1       -0.619  -2.393  -2.765  0.00  0.00    -0.150 A 
ATOM     23  C   LIG    1       -0.547  -2.752  -4.102  0.00  0.00    +0.090 A 
ATOM     24  C   LIG    1       -0.284  -4.077  -4.416  0.00  0.00    -0.030 A 
ATOM     25  C   LIG    1       -0.118  -4.991  -3.394  0.00  0.00    +0.270 A 
ATOM     26  N   LIG    1       -0.199  -4.615  -2.132  0.00  0.00    -0.490 NA
ATOM     27  C   LIG    1       -0.440  -3.363  -1.796  0.00  0.00    +0.290 A 
ENDBRANCH  21  22
ENDBRANCH  20  21
ENDBRANCH   4  20
TORSDOF 8
