REMARK  Name = ZINCpe00000yRlzb.0
REMARK                            x       y       z     vdW  Elec       q    Type
REMARK                         _______ _______ _______ _____ _____    ______ ____
ROOT
ATOM      1  C   LIG    1       -0.014   1.114  -2.694  0.00  0.00    +0.500 C 
ATOM      2  N   LIG    1       -0.397   1.487  -1.456  0.00  0.00    -0.610 N 
ATOM      3  C   LIG    1        0.060   0.742  -0.275  0.00  0.00    +0.270 C 
ATOM      4  C   LIG    1       -1.165   0.296   0.532  0.00  0.00    +0.270 C 
ATOM      5  N   LIG    1       -2.049   1.456   0.721  0.00  0.00    -0.620 N 
ATOM      6  C   LIG    1       -2.507   2.202  -0.460  0.00  0.00    +0.290 C 
ATOM      7  C   LIG    1       -2.432   1.830   1.958  0.00  0.00    +0.510 C 
ATOM      8  O   LIG    1       -3.159   2.789   2.104  0.00  0.00    -0.510 OA
ATOM      9  C   LIG    1       -1.279   2.647  -1.264  0.00  0.00    +0.270 C 
ATOM     10  O   LIG    1       -0.465   1.683  -3.665  0.00  0.00    -0.480 OA
ENDROOT
BRANCH   9  11
ATOM     11  C   LIG    1       -1.718   3.177  -2.605  0.00  0.00    -0.050 A 
ATOM     12  C   LIG    1       -2.700   2.519  -3.320  0.00  0.00    +0.030 A 
ATOM     13  C   LIG    1       -3.106   3.007  -4.548  0.00  0.00    +0.010 A 
ATOM     14  C   LIG    1       -2.522   4.148  -5.066  0.00  0.00    +0.000 A 
ATOM     15  C   LIG    1       -1.535   4.803  -4.353  0.00  0.00    +0.010 A 
ATOM     16  C   LIG    1       -1.133   4.317  -3.123  0.00  0.00    +0.000 A 
ENDBRANCH   9  11
BRANCH   1  18
ATOM     17  C   LIG    1        2.387   0.505  -2.594  0.00  0.00    +0.090 C 
ATOM     18  C   LIG    1        0.973  -0.011  -2.870  0.00  0.00    +0.260 C 
BRANCH  18  19
ATOM     19  N   LIG    1        0.897  -0.517  -4.242  0.00  0.00    -0.360 N 
ATOM     20  C   LIG    1        1.543  -0.010  -5.313  0.00  0.00    +0.250 A 
ATOM     21  C   LIG    1        1.211  -0.760  -6.389  0.00  0.00    -0.120 A 
ATOM     22  C   LIG    1        0.325  -1.755  -5.963  0.00  0.00    +0.230 A 
ATOM     23  N   LIG    1        0.135  -1.610  -4.676  0.00  0.00    -0.300 NA
ENDBRANCH  18  19
ENDBRANCH   1  18
BRANCH   7  24
ATOM     24  C   LIG    1       -1.954   1.056   3.160  0.00  0.00    +0.220 C 
BRANCH  24  25
ATOM     25  O   LIG    1       -2.491   1.642   4.348  0.00  0.00    -0.550 OA
ATOM     26  H   LIG    1       -2.225   1.194   5.162  0.00  0.00    +0.390 HD
ENDBRANCH  24  25
ENDBRANCH   7  24
TORSDOF 5
