REMARK  Name = ZINCqH00000040wD.0
REMARK                            x       y       z     vdW  Elec       q    Type
REMARK                         _______ _______ _______ _____ _____    ______ ____
ROOT
ATOM      1  N   LIG    1       -0.124   1.607   0.454  0.00  0.00    -0.670 N 
ATOM      2  H   LIG    1       -0.922   2.154   0.387  0.00  0.00    +0.400 HD
ATOM      3  C   LIG    1        1.085   2.146   0.202  0.00  0.00    +0.710 C 
ATOM      4  N   LIG    1        1.186   3.446  -0.139  0.00  0.00    -0.610 N 
ATOM      5  O   LIG    1        2.086   1.459   0.281  0.00  0.00    -0.530 OA
ENDROOT
BRANCH   4   6
ATOM      6  C   LIG    1        2.501   4.032  -0.413  0.00  0.00    +0.330 C 
ATOM      7  C   LIG    1        3.064   3.426  -1.697  0.00  0.00    +0.010 C 
ATOM      8  C   LIG    1        4.519   3.885  -1.851  0.00  0.00    +0.030 C 
ATOM      9  C   LIG    1        5.357   3.195  -0.777  0.00  0.00    +0.070 C 
ATOM     10  C   LIG    1        4.733   3.380   0.582  0.00  0.00    -0.060 A 
ATOM     11  C   LIG    1        5.529   3.150   1.696  0.00  0.00    -0.010 A 
ATOM     12  C   LIG    1        5.013   3.289   2.968  0.00  0.00    +0.000 A 
ATOM     13  C   LIG    1        3.693   3.663   3.135  0.00  0.00    -0.020 A 
ATOM     14  C   LIG    1        2.901   3.896   2.030  0.00  0.00    +0.020 A 
ATOM     15  C   LIG    1        3.419   3.757   0.749  0.00  0.00    -0.070 A 
ENDBRANCH   4   6
BRANCH   1  20
ATOM     16  N   LIG    1       -1.371  -0.404   1.091  0.00  0.00    -0.380 N 
ATOM     17  N   LIG    1       -1.034  -1.730   1.390  0.00  0.00    -0.290 NA
ATOM     18  C   LIG    1        0.265  -1.856   1.299  0.00  0.00    +0.240 A 
ATOM     19  C   LIG    1        0.802  -0.619   0.933  0.00  0.00    -0.110 A 
ATOM     20  C   LIG    1       -0.228   0.262   0.807  0.00  0.00    +0.320 A 
BRANCH  16  21
ATOM     21  C   LIG    1       -2.722   0.161   1.083  0.00  0.00    +0.250 C 
ATOM     22  C   LIG    1       -3.341   0.023   2.475  0.00  0.00    +0.050 C 
BRANCH  21  24
ATOM     23  C   LIG    1       -4.956   0.079  -0.034  0.00  0.00    +0.030 C 
ATOM     24  C   LIG    1       -3.583  -0.590   0.065  0.00  0.00    +0.020 C 
ENDBRANCH  21  24
ENDBRANCH  16  21
ENDBRANCH   1  20
BRANCH   4  25
ATOM     25  C   LIG    1       -0.019   4.274  -0.235  0.00  0.00    +0.290 C 
BRANCH  25  26
ATOM     26  C   LIG    1       -0.237   5.013   1.087  0.00  0.00    +0.160 C 
BRANCH  26  27
ATOM     27  O   LIG    1        0.817   5.958   1.284  0.00  0.00    -0.560 OA
ATOM     28  H   LIG    1        0.743   6.464   2.104  0.00  0.00    +0.380 HD
ENDBRANCH  26  27
ENDBRANCH  25  26
ENDBRANCH   4  25
TORSDOF 7
