REMARK  Name = ZINCpe00000gLKTQ.0
REMARK                            x       y       z     vdW  Elec       q    Type
REMARK                         _______ _______ _______ _____ _____    ______ ____
ROOT
ATOM      1  C   LIG    1        0.117   1.000   2.802  0.00  0.00    +0.150 A 
ATOM      2  C   LIG    1       -0.235   1.243   4.126  0.00  0.00    -0.020 A 
ATOM      3  C   LIG    1        0.543   0.710   5.138  0.00  0.00    +0.200 A 
ATOM      4  C   LIG    1        1.651  -0.051   4.792  0.00  0.00    -0.750 A 
ATOM      5  C   LIG    1        1.942  -0.253   3.457  0.00  0.00    +0.390 A 
ATOM      6  N   LIG    1        1.180   0.263   2.512  0.00  0.00    -0.510 NA
ENDROOT
BRANCH   4   7
ATOM      7  S   LIG    1        2.675  -0.753   6.042  0.00  0.00    +2.700 S 
ATOM      8  O   LIG    1        2.486   0.039   7.207  0.00  0.00    -0.950 OA
ATOM      9  O   LIG    1        3.947  -0.967   5.445  0.00  0.00    -0.950 OA
BRANCH   7  10
ATOM     10  N   LIG    1        2.065  -2.252   6.392  0.00  0.00    -1.000 NA
ATOM     11  C   LIG    1        1.053  -2.428   7.445  0.00  0.00    +0.300 C 
ATOM     12  C   LIG    1       -0.121  -3.227   6.857  0.00  0.00    +0.170 C 
ATOM     13  N   LIG    1        0.387  -4.473   6.270  0.00  0.00    -0.540 NA
ATOM     14  C   LIG    1        1.297  -4.203   5.148  0.00  0.00    +0.170 C 
ATOM     15  C   LIG    1       -0.717  -5.348   5.853  0.00  0.00    +0.190 C 
ATOM     16  C   LIG    1        2.524  -3.443   5.662  0.00  0.00    +0.300 C 
ENDBRANCH   7  10
ENDBRANCH   4   7
BRANCH   1  17
ATOM     17  S   LIG    1       -0.862   1.671   1.500  0.00  0.00    +0.040 S 
BRANCH  17  18
ATOM     18  C   LIG    1       -0.013   1.086   0.008  0.00  0.00    +0.100 C 
BRANCH  18  21
ATOM     19  N   LIG    1       -0.288   1.272  -2.443  0.00  0.00    -0.720 N 
ATOM     20  H   LIG    1        0.507   0.726  -2.543  0.00  0.00    +0.400 HD
ATOM     21  C   LIG    1       -0.742   1.585  -1.213  0.00  0.00    +0.530 C 
ATOM     22  O   LIG    1       -1.736   2.268  -1.088  0.00  0.00    -0.520 OA
BRANCH  19  23
ATOM     23  C   LIG    1       -0.997   1.758  -3.630  0.00  0.00    +0.260 C 
BRANCH  23  25
ATOM     24  C   LIG    1       -1.088   1.665  -6.125  0.00  0.00    +0.030 C 
ATOM     25  C   LIG    1       -0.281   1.264  -4.889  0.00  0.00    -0.030 C 
ATOM     26  C   LIG    1        1.112   1.894  -4.963  0.00  0.00    +0.020 C 
ENDBRANCH  23  25
ENDBRANCH  19  23
ENDBRANCH  18  21
ENDBRANCH  17  18
ENDBRANCH   1  17
TORSDOF 7
