REMARK  Name = ZINCrH000004m69W.0
REMARK                            x       y       z     vdW  Elec       q    Type
REMARK                         _______ _______ _______ _____ _____    ______ ____
ROOT
ATOM      1  N   LIG    1       -1.191   1.867   0.018  0.00  0.00    -0.730 N 
ATOM      2  H   LIG    1       -1.204   2.837   0.023  0.00  0.00    +0.400 HD
ATOM      3  C   LIG    1       -0.014   1.209   0.009  0.00  0.00    +0.510 C 
ATOM      4  O   LIG    1        0.002  -0.004   0.002  0.00  0.00    -0.530 OA
ENDROOT
BRANCH   1   5
ATOM      5  C   LIG    1       -2.449   1.117   0.020  0.00  0.00    +0.320 C 
BRANCH   5   8
ATOM      6  C   LIG    1       -5.210   3.414  -1.157  0.00  0.00    +0.150 A 
ATOM      7  C   LIG    1       -4.144   2.528  -1.163  0.00  0.00    -0.080 A 
ATOM      8  C   LIG    1       -3.608   2.080   0.030  0.00  0.00    -0.040 A 
ATOM      9  C   LIG    1       -4.136   2.510   1.234  0.00  0.00    -0.080 A 
ATOM     10  C   LIG    1       -5.198   3.401   1.248  0.00  0.00    +0.150 A 
ATOM     11  C   LIG    1       -5.740   3.853   0.050  0.00  0.00    +0.040 A 
BRANCH   6  13
ATOM     12  C   LIG    1       -5.142   3.360  -3.534  0.00  0.00    +0.240 C 
ATOM     13  O   LIG    1       -5.737   3.853  -2.332  0.00  0.00    -0.300 OA
ENDBRANCH   6  13
BRANCH  10  14
ATOM     14  O   LIG    1       -5.713   3.828   2.432  0.00  0.00    -0.300 OA
ATOM     15  C   LIG    1       -5.107   3.322   3.623  0.00  0.00    +0.240 C 
ENDBRANCH  10  14
BRANCH  11  16
ATOM     16  O   LIG    1       -6.787   4.723   0.060  0.00  0.00    -0.310 OA
ATOM     17  C   LIG    1       -8.099   4.158   0.064  0.00  0.00    +0.230 C 
ENDBRANCH  11  16
ENDBRANCH   5   8
ENDBRANCH   1   5
BRANCH   3  18
ATOM     18  C   LIG    1        1.280   1.980   0.001  0.00  0.00    +0.120 C 
BRANCH  18  19
ATOM     19  C   LIG    1        2.439   1.016  -0.016  0.00  0.00    -0.060 A 
ATOM     20  C   LIG    1        2.943   0.594  -1.207  0.00  0.00    +0.030 A 
ATOM     21  C   LIG    1        4.023  -0.305  -1.226  0.00  0.00    -0.050 A 
ATOM     22  C   LIG    1        4.571  -0.762  -2.437  0.00  0.00    +0.020 A 
ATOM     23  C   LIG    1        5.618  -1.632  -2.416  0.00  0.00    +0.000 A 
ATOM     24  C   LIG    1        6.157  -2.078  -1.210  0.00  0.00    +0.000 A 
ATOM     25  C   LIG    1        5.652  -1.656  -0.019  0.00  0.00    +0.020 A 
ATOM     26  C   LIG    1        4.572  -0.758  -0.000  0.00  0.00    -0.050 A 
ATOM     27  C   LIG    1        4.024  -0.299   1.211  0.00  0.00    +0.030 A 
ATOM     28  C   LIG    1        2.982   0.575   1.190  0.00  0.00    +0.020 A 
ENDBRANCH  18  19
ENDBRANCH   3  18
TORSDOF 7
