REMARK  Name = ZINCkj00000APQu5.0
REMARK                            x       y       z     vdW  Elec       q    Type
REMARK                         _______ _______ _______ _____ _____    ______ ____
ROOT
ATOM      1  C   LIG    1       -5.490   0.478   7.492  0.00  0.00    -0.150 A 
ATOM      2  C   LIG    1       -4.515   0.793   6.599  0.00  0.00    +0.150 A 
ATOM      3  C   LIG    1       -4.790   0.715   5.217  0.00  0.00    +0.200 A 
ATOM      4  N   LIG    1       -4.046   0.952   4.150  0.00  0.00    -0.440 NA
ATOM      5  C   LIG    1       -4.780   0.732   3.045  0.00  0.00    +0.020 A 
ATOM      6  C   LIG    1       -6.027   0.334   3.434  0.00  0.00    +0.220 A 
ATOM      7  N   LIG    1       -6.036   0.322   4.796  0.00  0.00    -0.370 N 
ATOM      8  C   LIG    1       -7.006   0.008   5.707  0.00  0.00    +0.270 A 
ATOM      9  C   LIG    1       -6.756   0.080   7.030  0.00  0.00    +0.010 A 
ENDROOT
BRANCH   5  10
ATOM     10  C   LIG    1       -4.317   0.889   1.652  0.00  0.00    +0.600 C 
ATOM     11  N   LIG    1       -3.055   1.291   1.403  0.00  0.00    -0.710 N 
ATOM     12  H   LIG    1       -2.452   1.478   2.139  0.00  0.00    +0.410 HD
ATOM     13  O   LIG    1       -5.074   0.655   0.730  0.00  0.00    -0.520 OA
BRANCH  11  14
ATOM     14  C   LIG    1       -2.595   1.447   0.021  0.00  0.00    +0.350 C 
BRANCH  14  15
ATOM     15  C   LIG    1       -1.159   1.903   0.017  0.00  0.00    -0.210 A 
ATOM     16  C   LIG    1       -0.722   3.175   0.026  0.00  0.00    +0.190 A 
ATOM     17  O   LIG    1        0.621   3.162   0.013  0.00  0.00    -0.170 OA
ATOM     18  C   LIG    1        1.057   1.892   0.002  0.00  0.00    +0.180 A 
ATOM     19  C   LIG    1       -0.013   1.076   0.008  0.00  0.00    -0.050 A 
ENDBRANCH  14  15
ENDBRANCH  11  14
ENDBRANCH   5  10
BRANCH   1  20
ATOM     20  C   LIG    1       -5.215   0.557   8.972  0.00  0.00    +0.350 C 
BRANCH  20  21
ATOM     21  N   LIG    1       -5.656   1.862   9.483  0.00  0.00    -0.640 N 
ATOM     22  H   LIG    1       -5.472   1.914  10.474  0.00  0.00    +0.440 HD
ATOM     23  H   LIG    1       -6.646   1.970   9.319  0.00  0.00    +0.440 HD
ATOM     24  H   LIG    1       -5.154   2.596   9.008  0.00  0.00    +0.440 HD
ENDBRANCH  20  21
ENDBRANCH   1  20
TORSDOF 5
