REMARK  Name = ZINCpk00000kQuwp.0
REMARK                            x       y       z     vdW  Elec       q    Type
REMARK                         _______ _______ _______ _____ _____    ______ ____
ROOT
ATOM      1  C   LIG    1        3.208  -5.524  -4.589  0.00  0.00    +0.600 C 
ATOM      2  N   LIG    1        2.753  -4.879  -3.497  0.00  0.00    -0.610 N 
ATOM      3  C   LIG    1        3.688  -4.225  -2.570  0.00  0.00    +0.290 C 
ATOM      4  C   LIG    1        3.420  -4.742  -1.153  0.00  0.00    +0.010 C 
ATOM      5  C   LIG    1        1.944  -4.531  -0.809  0.00  0.00    +0.240 C 
ATOM      6  C   LIG    1        1.072  -5.325  -1.785  0.00  0.00    +0.010 C 
ATOM      7  C   LIG    1        1.314  -4.815  -3.209  0.00  0.00    +0.270 C 
ATOM      8  O   LIG    1        4.393  -5.502  -4.859  0.00  0.00    -0.530 OA
ENDROOT
BRANCH   1  15
ATOM      9  C   LIG    1        3.534  -8.527  -5.564  0.00  0.00    +0.170 C 
ATOM     10  C   LIG    1        2.400  -7.592  -5.898  0.00  0.00    +0.120 A 
ATOM     11  N   LIG    1        1.369  -7.874  -6.646  0.00  0.00    -0.300 NA
ATOM     12  N   LIG    1        0.539  -6.749  -6.717  0.00  0.00    -0.360 N 
ATOM     13  C   LIG    1        1.090  -5.767  -5.986  0.00  0.00    +0.270 A 
ATOM     14  C   LIG    1       -0.721  -6.660  -7.459  0.00  0.00    +0.360 C 
ATOM     15  C   LIG    1        2.268  -6.256  -5.457  0.00  0.00    -0.280 A 
ENDBRANCH   1  15
BRANCH   5  16
ATOM     16  N   LIG    1        1.691  -4.994   0.558  0.00  0.00    -0.620 N 
ATOM     17  C   LIG    1        1.227  -4.133   1.486  0.00  0.00    +0.520 C 
ATOM     18  O   LIG    1        1.018  -2.975   1.189  0.00  0.00    -0.520 OA
ATOM     19  C   LIG    1        1.942  -6.391   0.917  0.00  0.00    +0.280 C 
BRANCH  17  20
ATOM     20  C   LIG    1        0.966  -4.609   2.892  0.00  0.00    +0.160 C 
BRANCH  20  21
ATOM     21  C   LIG    1        0.456  -3.461   3.724  0.00  0.00    +0.080 A 
ATOM     22  C   LIG    1       -0.696  -3.513   4.398  0.00  0.00    -0.070 A 
ATOM     23  S   LIG    1       -0.908  -1.974   5.230  0.00  0.00    +0.120 S 
ATOM     24  C   LIG    1        0.571  -1.411   4.582  0.00  0.00    +0.230 A 
ATOM     25  N   LIG    1        1.107  -2.321   3.842  0.00  0.00    -0.450 NA
ENDBRANCH  20  21
ENDBRANCH  17  20
ENDBRANCH   5  16
TORSDOF 4
