REMARK  Name = ZINCrH00000No4GH.0
REMARK                            x       y       z     vdW  Elec       q    Type
REMARK                         _______ _______ _______ _____ _____    ______ ____
ROOT
ATOM      1  C   LIG    1        1.353  -4.065  -2.300  0.00  0.00    +0.360 C 
ATOM      2  C   LIG    1        2.742  -4.566  -2.010  0.00  0.00    -0.170 A 
ATOM      3  C   LIG    1        3.165  -5.240  -3.138  0.00  0.00    -0.060 A 
ATOM      4  C   LIG    1        2.096  -5.189  -4.142  0.00  0.00    +0.600 C 
ATOM      5  O   LIG    1        2.158  -5.690  -5.248  0.00  0.00    -0.520 OA
ATOM      6  N   LIG    1        4.425  -5.690  -2.861  0.00  0.00    -0.330 N 
ATOM      7  H   LIG    1        4.981  -6.201  -3.470  0.00  0.00    +0.450 HD
ATOM      8  N   LIG    1        4.765  -5.335  -1.674  0.00  0.00    -0.220 NA
ATOM      9  C   LIG    1        3.798  -4.651  -1.096  0.00  0.00    +0.120 A 
ATOM     10  N   LIG    1        1.039  -4.508  -3.665  0.00  0.00    -0.600 N 
ATOM     11  C   LIG    1       -0.212  -4.251  -4.383  0.00  0.00    +0.340 C 
ENDROOT
BRANCH   1  16
ATOM     12  C   LIG    1        0.602  -0.553  -1.125  0.00  0.00    +0.140 A 
ATOM     13  C   LIG    1        1.252   0.204  -2.088  0.00  0.00    -0.070 A 
ATOM     14  C   LIG    1        1.940  -0.423  -3.109  0.00  0.00    +0.050 A 
ATOM     15  C   LIG    1        1.970  -1.803  -3.178  0.00  0.00    -0.010 A 
ATOM     16  C   LIG    1        1.318  -2.560  -2.222  0.00  0.00    -0.060 A 
ATOM     17  C   LIG    1        0.634  -1.938  -1.196  0.00  0.00    -0.010 A 
BRANCH  12  18
ATOM     18  O   LIG    1       -0.070   0.061  -0.116  0.00  0.00    -0.310 OA
BRANCH  18  19
ATOM     19  C   LIG    1       -0.061   1.490  -0.105  0.00  0.00    +0.180 C 
BRANCH  19  21
ATOM     20  C   LIG    1       -0.853   3.526   1.106  0.00  0.00    +0.040 C 
ATOM     21  C   LIG    1       -0.863   1.996   1.095  0.00  0.00    +0.020 C 
ENDBRANCH  19  21
ENDBRANCH  18  19
ENDBRANCH  12  18
ENDBRANCH   1  16
BRANCH   9  22
ATOM     22  C   LIG    1        3.824  -4.076   0.272  0.00  0.00    -0.040 A 
ATOM     23  C   LIG    1        2.682  -3.482   0.803  0.00  0.00    +0.050 A 
ATOM     24  C   LIG    1        2.711  -2.949   2.077  0.00  0.00    +0.000 A 
ATOM     25  C   LIG    1        3.872  -3.003   2.828  0.00  0.00    +0.040 A 
ATOM     26  C   LIG    1        5.011  -3.590   2.310  0.00  0.00    -0.020 A 
ATOM     27  C   LIG    1        4.994  -4.133   1.036  0.00  0.00    +0.130 A 
BRANCH  27  28
ATOM     28  O   LIG    1        6.111  -4.715   0.527  0.00  0.00    -0.480 OA
ATOM     29  H   LIG    1        6.689  -4.106   0.049  0.00  0.00    +0.390 HD
ENDBRANCH  27  28
ENDBRANCH   9  22
TORSDOF 6
