REMARK  Name = ZINCrH00000No4GH.1
REMARK                            x       y       z     vdW  Elec       q    Type
REMARK                         _______ _______ _______ _____ _____    ______ ____
ROOT
ATOM      1  C   LIG    1        0.088   1.008  -7.283  0.00  0.00    +0.370 C 
ATOM      2  C   LIG    1        0.894   2.133  -7.874  0.00  0.00    -0.180 A 
ATOM      3  C   LIG    1        1.924   3.006  -7.729  0.00  0.00    +0.110 A 
ATOM      4  N   LIG    1        1.964   3.757  -8.868  0.00  0.00    -0.380 N 
ATOM      5  H   LIG    1        2.603   4.465  -9.046  0.00  0.00    +0.450 HD
ATOM      6  N   LIG    1        1.030   3.387  -9.671  0.00  0.00    -0.200 NA
ATOM      7  C   LIG    1        0.331   2.402  -9.142  0.00  0.00    -0.040 A 
ATOM      8  C   LIG    1       -0.796   1.474  -9.344  0.00  0.00    +0.610 C 
ATOM      9  O   LIG    1       -1.498   1.440 -10.336  0.00  0.00    -0.510 OA
ATOM     10  N   LIG    1       -0.939   0.670  -8.276  0.00  0.00    -0.600 N 
ATOM     11  C   LIG    1       -1.956  -0.374  -8.127  0.00  0.00    +0.330 C 
ENDROOT
BRANCH   1  16
ATOM     12  C   LIG    1       -0.617   1.496  -3.603  0.00  0.00    +0.130 A 
ATOM     13  C   LIG    1       -1.763   2.277  -3.644  0.00  0.00    -0.070 A 
ATOM     14  C   LIG    1       -2.299   2.651  -4.861  0.00  0.00    +0.050 A 
ATOM     15  C   LIG    1       -1.701   2.239  -6.037  0.00  0.00    -0.020 A 
ATOM     16  C   LIG    1       -0.562   1.456  -5.999  0.00  0.00    -0.050 A 
ATOM     17  C   LIG    1       -0.018   1.084  -4.785  0.00  0.00    +0.000 A 
BRANCH  12  18
ATOM     18  O   LIG    1       -0.084   1.132  -2.407  0.00  0.00    -0.310 OA
BRANCH  18  19
ATOM     19  C   LIG    1       -0.753   1.593  -1.232  0.00  0.00    +0.180 C 
BRANCH  19  21
ATOM     20  C   LIG    1       -0.729   1.579   1.267  0.00  0.00    +0.040 C 
ATOM     21  C   LIG    1       -0.013   1.086   0.008  0.00  0.00    +0.020 C 
ENDBRANCH  19  21
ENDBRANCH  18  19
ENDBRANCH  12  18
ENDBRANCH   1  16
BRANCH   3  22
ATOM     22  C   LIG    1        2.828   3.120  -6.563  0.00  0.00    -0.060 A 
ATOM     23  C   LIG    1        2.831   4.281  -5.791  0.00  0.00    +0.050 A 
ATOM     24  C   LIG    1        3.672   4.380  -4.701  0.00  0.00    +0.000 A 
ATOM     25  C   LIG    1        4.521   3.337  -4.378  0.00  0.00    +0.040 A 
ATOM     26  C   LIG    1        4.530   2.183  -5.140  0.00  0.00    +0.000 A 
ATOM     27  C   LIG    1        3.687   2.066  -6.233  0.00  0.00    +0.140 A 
BRANCH  27  28
ATOM     28  O   LIG    1        3.696   0.933  -6.982  0.00  0.00    -0.490 OA
ATOM     29  H   LIG    1        4.323   0.952  -7.718  0.00  0.00    +0.390 HD
ENDBRANCH  27  28
ENDBRANCH   3  22
TORSDOF 6
