REMARK  Name = ZINCpe00000y9sLT.0
REMARK                            x       y       z     vdW  Elec       q    Type
REMARK                         _______ _______ _______ _____ _____    ______ ____
ROOT
ATOM      1  C   LIG    1       -1.508  11.997  -0.804  0.00  0.00    +0.240 C 
ATOM      2  C   LIG    1        0.003  12.217  -0.709  0.00  0.00    +0.050 C 
ATOM      3  C   LIG    1        0.729  10.889  -0.937  0.00  0.00    +0.170 C 
ATOM      4  C   LIG    1        0.316   9.892   0.150  0.00  0.00    +0.250 C 
ATOM      5  N   LIG    1       -1.149   9.785   0.162  0.00  0.00    -0.600 N 
ATOM      6  C   LIG    1       -1.751   8.583   0.060  0.00  0.00    +0.610 C 
ATOM      7  O   LIG    1       -2.959   8.516  -0.057  0.00  0.00    -0.490 OA
ATOM      8  C   LIG    1       -1.947  11.013   0.280  0.00  0.00    +0.290 C 
ENDROOT
BRANCH   6   9
ATOM      9  C   LIG    1       -0.943   7.349   0.092  0.00  0.00    -0.090 A 
ATOM     10  C   LIG    1       -1.383   6.076  -0.136  0.00  0.00    +0.090 A 
ATOM     11  C   LIG    1       -0.215   5.280   0.019  0.00  0.00    +0.060 A 
ATOM     12  N   LIG    1        0.759   6.109   0.299  0.00  0.00    -0.330 NA
ATOM     13  O   LIG    1        0.376   7.254   0.344  0.00  0.00    +0.120 OA
BRANCH  11  14
ATOM     14  C   LIG    1       -0.118   3.805  -0.118  0.00  0.00    +0.190 A 
ATOM     15  C   LIG    1        1.111   3.175   0.060  0.00  0.00    +0.000 A 
ATOM     16  C   LIG    1        1.186   1.798  -0.070  0.00  0.00    +0.070 A 
ATOM     17  C   LIG    1        0.028   1.098  -0.374  0.00  0.00    -0.020 A 
ATOM     18  C   LIG    1       -1.159   1.789  -0.542  0.00  0.00    +0.280 A 
ATOM     19  N   LIG    1       -1.203   3.099  -0.407  0.00  0.00    -0.470 NA
ENDBRANCH  11  14
ENDBRANCH   6   9
BRANCH   1  21
ATOM     20  C   LIG    1       -3.432  13.455  -1.134  0.00  0.00    +0.510 C 
ATOM     21  N   LIG    1       -2.201  13.274  -0.616  0.00  0.00    -0.730 N 
ATOM     22  H   LIG    1       -1.774  13.989  -0.120  0.00  0.00    +0.400 HD
ATOM     23  O   LIG    1       -3.967  12.561  -1.755  0.00  0.00    -0.530 OA
BRANCH  20  25
ATOM     24  C   LIG    1       -5.514  14.712  -1.622  0.00  0.00    +0.040 C 
ATOM     25  C   LIG    1       -4.145  14.769  -0.941  0.00  0.00    +0.050 C 
ENDBRANCH  20  25
ENDBRANCH   1  21
BRANCH   3  26
ATOM     26  O   LIG    1        2.141  11.100  -0.879  0.00  0.00    -0.560 OA
ATOM     27  H   LIG    1        2.664  10.298  -1.014  0.00  0.00    +0.390 HD
ENDBRANCH   3  26
TORSDOF 5
