REMARK  Name = ZINCpe000000SuVP.0
REMARK                            x       y       z     vdW  Elec       q    Type
REMARK                         _______ _______ _______ _____ _____    ______ ____
ROOT
ATOM      1  N   LIG    1        3.502   3.291  -0.942  0.00  0.00    -0.520 NA
ATOM      2  C   LIG    1        2.231   4.026  -0.994  0.00  0.00    +0.170 C 
ATOM      3  C   LIG    1        1.313   3.531   0.129  0.00  0.00    +0.300 C 
ATOM      4  N   LIG    1        1.192   2.069   0.023  0.00  0.00    -0.610 N 
ATOM      5  C   LIG    1        2.425   1.272  -0.063  0.00  0.00    +0.280 C 
ATOM      6  C   LIG    1       -0.018   1.474   0.010  0.00  0.00    +0.560 C 
ATOM      7  O   LIG    1       -1.027   2.151  -0.022  0.00  0.00    -0.530 OA
ATOM      8  C   LIG    1        3.299   1.857  -1.184  0.00  0.00    +0.180 C 
ENDROOT
BRANCH   6   9
ATOM      9  C   LIG    1       -0.117  -0.001   0.030  0.00  0.00    -0.130 A 
ATOM     10  C   LIG    1        0.528  -0.730   1.028  0.00  0.00    +0.050 A 
ATOM     11  C   LIG    1        0.432  -2.106   1.040  0.00  0.00    +0.010 A 
ATOM     12  C   LIG    1       -0.299  -2.757   0.065  0.00  0.00    +0.040 A 
ATOM     13  C   LIG    1       -0.944  -2.039  -0.933  0.00  0.00    -0.130 A 
ATOM     14  C   LIG    1       -1.724  -2.794  -1.977  0.00  0.00    +0.280 C 
ATOM     15  O   LIG    1       -2.600  -1.911  -2.675  0.00  0.00    -0.370 OA
ATOM     16  C   LIG    1       -1.937  -0.750  -3.189  0.00  0.00    +0.220 C 
ATOM     17  C   LIG    1       -1.554   0.150  -2.013  0.00  0.00    +0.060 C 
ATOM     18  C   LIG    1       -0.863  -0.665  -0.950  0.00  0.00    -0.030 A 
ENDBRANCH   6   9
BRANCH   1  19
ATOM     19  C   LIG    1        4.473   3.853  -1.891  0.00  0.00    +0.220 C 
BRANCH  19  22
ATOM     20  N   LIG    1        6.882   3.612  -2.397  0.00  0.00    -0.730 N 
ATOM     21  H   LIG    1        6.768   4.268  -3.102  0.00  0.00    +0.400 HD
ATOM     22  C   LIG    1        5.829   3.244  -1.641  0.00  0.00    +0.510 C 
ATOM     23  O   LIG    1        5.972   2.424  -0.759  0.00  0.00    -0.520 OA
BRANCH  20  24
ATOM     24  C   LIG    1        8.200   3.020  -2.154  0.00  0.00    +0.300 C 
BRANCH  24  26
ATOM     25  C   LIG    1       10.293   4.160  -2.685  0.00  0.00    +0.040 C 
ATOM     26  C   LIG    1        9.197   3.596  -3.127  0.00  0.00    -0.060 C 
ENDBRANCH  24  26
ENDBRANCH  20  24
ENDBRANCH  19  22
ENDBRANCH   1  19
TORSDOF 5
