REMARK  Name = ZINCtV000002D0pS.0
REMARK                            x       y       z     vdW  Elec       q    Type
REMARK                         _______ _______ _______ _____ _____    ______ ____
ROOT
ATOM      1  C   LIG    1       -1.651   5.301   0.045  0.00  0.00    +0.300 A 
ATOM      2  N   LIG    1       -0.357   5.170   0.032  0.00  0.00    -0.470 NA
ATOM      3  C   LIG    1       -0.032   3.851   0.022  0.00  0.00    +0.060 A 
ATOM      4  C   LIG    1        1.182   3.159   0.007  0.00  0.00    +0.090 A 
ATOM      5  C   LIG    1        1.183   1.782   0.000  0.00  0.00    -0.040 A 
ATOM      6  C   LIG    1       -0.013   1.076   0.008  0.00  0.00    +0.050 A 
ATOM      7  C   LIG    1       -1.218   1.744   0.017  0.00  0.00    +0.030 A 
ATOM      8 CL   LIG    1        2.691   0.922  -0.019  0.00  0.00    -0.060 Cl
ATOM      9  C   LIG    1       -1.239   3.132   0.030  0.00  0.00    +0.060 A 
ATOM     10  N   LIG    1       -2.245   4.077   0.044  0.00  0.00    -0.470 N 
ENDROOT
BRANCH   1  12
ATOM     11  C   LIG    1       -2.294   7.237   1.455  0.00  0.00    +0.090 C 
ATOM     12  C   LIG    1       -2.385   6.617   0.059  0.00  0.00    +0.110 C 
BRANCH  12  13
ATOM     13  S   LIG    1       -1.638   7.738  -1.149  0.00  0.00    +0.130 S 
BRANCH  13  14
ATOM     14  C   LIG    1       -2.752   9.099  -1.034  0.00  0.00    +0.210 A 
ATOM     15  N   LIG    1       -3.799   9.147  -0.249  0.00  0.00    -0.480 NA
ATOM     16  C   LIG    1       -4.419  10.346  -0.423  0.00  0.00    +0.030 A 
ATOM     17  C   LIG    1       -5.554  10.933   0.137  0.00  0.00    +0.080 A 
ATOM     18  C   LIG    1       -5.939  12.195  -0.263  0.00  0.00    +0.030 A 
ATOM     19  C   LIG    1       -5.205  12.882  -1.218  0.00  0.00    +0.050 A 
ATOM     20  C   LIG    1       -4.081  12.312  -1.780  0.00  0.00    +0.050 A 
ATOM     21  C   LIG    1       -3.680  11.045  -1.390  0.00  0.00    +0.010 A 
ATOM     22  O   LIG    1       -2.654  10.237  -1.744  0.00  0.00    -0.190 OA
ENDBRANCH  13  14
ENDBRANCH  12  13
ENDBRANCH   1  12
BRANCH  10  23
ATOM     23  C   LIG    1       -3.686   3.811   0.056  0.00  0.00    +0.360 C 
BRANCH  23  24
ATOM     24  C   LIG    1       -4.167   3.714   1.481  0.00  0.00    -0.120 A 
ATOM     25  C   LIG    1       -4.176   2.491   2.125  0.00  0.00    +0.020 A 
ATOM     26  C   LIG    1       -4.612   2.402   3.434  0.00  0.00    +0.010 A 
ATOM     27  C   LIG    1       -5.050   3.534   4.095  0.00  0.00    +0.020 A 
ATOM     28  C   LIG    1       -5.046   4.757   3.449  0.00  0.00    +0.010 A 
ATOM     29  C   LIG    1       -4.605   4.846   2.142  0.00  0.00    +0.030 A 
ENDBRANCH  23  24
ENDBRANCH  10  23
TORSDOF 5
