REMARK  Name = ZINCpk000000n26g.0
REMARK                            x       y       z     vdW  Elec       q    Type
REMARK                         _______ _______ _______ _____ _____    ______ ____
ROOT
ATOM      1  C   LIG    1       -3.920  -1.158  -1.751  0.00  0.00    +0.210 C 
ENDROOT
BRANCH   1   2
ATOM      2  O   LIG    1       -3.524  -0.047  -2.558  0.00  0.00    -0.540 OA
ATOM      3  H   LIG    1       -3.156  -0.296  -3.417  0.00  0.00    +0.380 HD
ENDBRANCH   1   2
BRANCH   1   4
ATOM      4  C   LIG    1       -4.993  -1.965  -2.484  0.00  0.00    +0.180 C 
BRANCH   4   5
ATOM      5  O   LIG    1       -6.169  -1.168  -2.633  0.00  0.00    -0.300 OA
BRANCH   5  10
ATOM      6  C   LIG    1       -9.480  -1.616  -4.101  0.00  0.00    -0.130 A 
ATOM      7  C   LIG    1       -9.372  -2.929  -4.572  0.00  0.00    +0.030 A 
ATOM      8  C   LIG    1       -8.200  -3.632  -4.388  0.00  0.00    +0.040 A 
ATOM      9  C   LIG    1       -7.128  -3.041  -3.744  0.00  0.00    -0.050 A 
ATOM     10  C   LIG    1       -7.226  -1.740  -3.269  0.00  0.00    +0.120 A 
ATOM     11  C   LIG    1       -8.396  -1.023  -3.446  0.00  0.00    +0.050 A 
BRANCH   6  13
ATOM     12  C   LIG    1      -11.895  -1.504  -5.001  0.00  0.00    +0.090 C 
ATOM     13  C   LIG    1      -10.729  -0.862  -4.295  0.00  0.00    +0.390 C 
ATOM     14  O   LIG    1      -10.820   0.276  -3.885  0.00  0.00    -0.450 OA
ENDBRANCH   6  13
ENDBRANCH   5  10
ENDBRANCH   4   5
ENDBRANCH   1   4
BRANCH   1  15
ATOM     15  C   LIG    1       -2.706  -2.050  -1.481  0.00  0.00    +0.300 C 
BRANCH  15  16
ATOM     16  N   LIG    1       -1.729  -1.314  -0.675  0.00  0.00    -0.570 N 
ATOM     17  C   LIG    1       -1.707  -1.311   0.664  0.00  0.00    +0.700 C 
ATOM     18  N   LIG    1       -0.706  -0.554   1.159  0.00  0.00    -0.710 N 
ATOM     19  H   LIG    1       -0.498  -0.405   2.095  0.00  0.00    +0.440 HD
ATOM     20  C   LIG    1        0.002  -0.004   0.002  0.00  0.00    +0.120 C 
ATOM     21  C   LIG    1       -0.019   1.526   0.010  0.00  0.00    +0.050 C 
ATOM     22  C   LIG    1        1.458   1.979  -0.001  0.00  0.00    +0.040 C 
ATOM     23  C   LIG    1        2.232   0.770   0.584  0.00  0.00    +0.030 C 
ATOM     24  C   LIG    1        1.472  -0.445  -0.009  0.00  0.00    +0.050 C 
ATOM     25  O   LIG    1       -2.499  -1.920   1.355  0.00  0.00    -0.540 OA
ATOM     26  C   LIG    1       -0.738  -0.555  -1.190  0.00  0.00    +0.540 C 
ATOM     27  O   LIG    1       -0.494  -0.359  -2.362  0.00  0.00    -0.450 OA
ENDBRANCH  15  16
ENDBRANCH   1  15
TORSDOF 7
