REMARK  Name = ZINCrD00000l02QW.0
REMARK                            x       y       z     vdW  Elec       q    Type
REMARK                         _______ _______ _______ _____ _____    ______ ____
ROOT
ATOM      1  N   LIG    1       -1.752   2.343   1.404  0.00  0.00    -0.610 N 
ATOM      2  C   LIG    1       -2.514   1.430   2.038  0.00  0.00    +0.520 C 
ATOM      3  O   LIG    1       -2.853   0.417   1.463  0.00  0.00    -0.530 OA
ENDROOT
BRANCH   1   5
ATOM      4  C   LIG    1       -2.392   4.657   1.870  0.00  0.00    +0.020 C 
ATOM      5  C   LIG    1       -1.344   3.566   2.100  0.00  0.00    +0.260 C 
ENDBRANCH   1   5
BRANCH   2   6
ATOM      6  C   LIG    1       -2.946   1.667   3.462  0.00  0.00    +0.080 C 
BRANCH   6   7
ATOM      7  C   LIG    1       -3.796   0.487   3.941  0.00  0.00    +0.170 C 
BRANCH   7   8
ATOM      8  C   LIG    1       -4.227   0.725   5.365  0.00  0.00    +0.290 A 
ATOM      9  N   LIG    1       -3.422   0.974   6.356  0.00  0.00    -0.490 NA
ATOM     10  C   LIG    1       -4.140   1.135   7.498  0.00  0.00    +0.050 A 
ATOM     11  C   LIG    1       -3.794   1.413   8.822  0.00  0.00    +0.070 A 
ATOM     12  C   LIG    1       -4.769   1.519   9.773  0.00  0.00    +0.000 A 
ATOM     13  C   LIG    1       -6.105   1.355   9.438  0.00  0.00    +0.030 A 
ATOM     14  C   LIG    1       -6.471   1.080   8.136  0.00  0.00    +0.010 A 
ATOM     15  C   LIG    1       -5.493   0.968   7.157  0.00  0.00    +0.050 A 
ATOM     16  N   LIG    1       -5.516   0.715   5.800  0.00  0.00    -0.600 N 
ATOM     17  H   LIG    1       -6.305   0.558   5.258  0.00  0.00    +0.420 HD
ENDBRANCH   7   8
ENDBRANCH   6   7
ENDBRANCH   2   6
BRANCH   1  18
ATOM     18  C   LIG    1       -1.333   2.113   0.020  0.00  0.00    +0.340 C 
BRANCH  18  19
ATOM     19  C   LIG    1       -0.017   1.378   0.010  0.00  0.00    -0.110 A 
ATOM     20  C   LIG    1        1.169   2.088   0.002  0.00  0.00    +0.030 A 
ATOM     21  C   LIG    1        2.378   1.418  -0.014  0.00  0.00    +0.020 A 
ATOM     22  C   LIG    1        2.404   0.031  -0.024  0.00  0.00    +0.050 A 
ATOM     23  O   LIG    1        3.602  -0.614  -0.044  0.00  0.00    -0.310 OA
ATOM     24  C   LIG    1        3.594  -1.998   0.325  0.00  0.00    +0.220 C 
ATOM     25  C   LIG    1        2.433  -2.684  -0.409  0.00  0.00    +0.220 C 
ATOM     26  O   LIG    1        1.214  -2.043  -0.018  0.00  0.00    -0.310 OA
ATOM     27  C   LIG    1        1.211  -0.682  -0.014  0.00  0.00    +0.050 A 
ATOM     28  C   LIG    1        0.002  -0.004   0.002  0.00  0.00    +0.050 A 
ENDBRANCH  18  19
ENDBRANCH   1  18
TORSDOF 6
