REMARK  Name = ZINCtV00000L6l8O.0
REMARK                            x       y       z     vdW  Elec       q    Type
REMARK                         _______ _______ _______ _____ _____    ______ ____
ROOT
ATOM      1  C   LIG    1       -0.036  -0.028   0.043  0.00  0.00    +0.080 A 
ATOM      2  C   LIG    1        1.157  -0.723  -0.075  0.00  0.00    +0.050 A 
ATOM      3  C   LIG    1        1.157  -2.105  -0.048  0.00  0.00    +0.070 A 
ATOM      4  C   LIG    1       -0.031  -2.798   0.086  0.00  0.00    -0.160 A 
ATOM      5  C   LIG    1       -1.226  -2.113   0.199  0.00  0.00    +0.100 A 
ATOM      6  C   LIG    1       -1.235  -0.726   0.178  0.00  0.00    +0.150 A 
ENDROOT
BRANCH   4   7
ATOM      7  C   LIG    1       -0.024  -4.305   0.110  0.00  0.00    +0.510 C 
ATOM      8  F   LIG    1       -1.090  -4.764   0.890  0.00  0.00    -0.170 F 
ATOM      9  F   LIG    1        1.182  -4.757   0.655  0.00  0.00    -0.170 F 
ATOM     10  F   LIG    1       -0.158  -4.793  -1.195  0.00  0.00    -0.170 F 
ENDBRANCH   4   7
BRANCH   6  11
ATOM     11  N   LIG    1       -2.444  -0.029   0.291  0.00  0.00    -0.660 N 
ATOM     12  H   LIG    1       -2.450   0.879   0.632  0.00  0.00    +0.410 HD
ATOM     13  C   LIG    1       -3.599  -0.621  -0.073  0.00  0.00    +0.560 C 
ATOM     14  O   LIG    1       -3.582  -1.719  -0.594  0.00  0.00    -0.490 OA
BRANCH  13  15
ATOM     15  C   LIG    1       -4.886   0.066   0.161  0.00  0.00    -0.140 A 
ATOM     16  C   LIG    1       -4.910   1.327   0.758  0.00  0.00    +0.060 A 
ATOM     17  C   LIG    1       -6.115   1.963   0.973  0.00  0.00    +0.020 A 
ATOM     18  C   LIG    1       -7.299   1.354   0.598  0.00  0.00    +0.070 A 
ATOM     19  C   LIG    1       -7.285   0.104   0.006  0.00  0.00    +0.020 A 
ATOM     20  C   LIG    1       -6.085  -0.542  -0.221  0.00  0.00    +0.020 A 
ATOM     21 CL   LIG    1       -6.068  -2.107  -0.971  0.00  0.00    -0.020 Cl
ENDBRANCH  13  15
ENDBRANCH   6  11
BRANCH   1  22
ATOM     22  O   LIG    1       -0.038   1.332   0.022  0.00  0.00    -0.250 OA
BRANCH  22  27
ATOM     23  C   LIG    1       -0.306   4.036   2.445  0.00  0.00    +0.170 A 
ATOM     24  C   LIG    1       -0.275   3.320   3.632  0.00  0.00    -0.100 A 
ATOM     25  C   LIG    1       -0.164   1.942   3.607  0.00  0.00    +0.090 A 
ATOM     26  C   LIG    1       -0.090   1.275   2.400  0.00  0.00    -0.100 A 
ATOM     27  C   LIG    1       -0.115   1.988   1.209  0.00  0.00    +0.140 A 
ATOM     28  C   LIG    1       -0.227   3.370   1.232  0.00  0.00    -0.040 A 
BRANCH  23  30
ATOM     29  C   LIG    1       -0.493   6.011   3.756  0.00  0.00    +0.250 C 
ATOM     30  O   LIG    1       -0.415   5.391   2.470  0.00  0.00    -0.310 OA
ENDBRANCH  23  30
ENDBRANCH  22  27
ENDBRANCH   1  22
TORSDOF 6
