REMARK  Name = ZINCpe000000YTWP.0
REMARK                            x       y       z     vdW  Elec       q    Type
REMARK                         _______ _______ _______ _____ _____    ______ ____
ROOT
ATOM      1  O   LIG    1        2.612  -2.630   0.064  0.00  0.00    -0.470 OA
ATOM      2  C   LIG    1        3.643  -1.992   0.057  0.00  0.00    +0.520 C 
ATOM      3  N   LIG    1        3.604  -0.648  -0.036  0.00  0.00    -0.680 N 
ATOM      4  H   LIG    1        4.429  -0.143  -0.111  0.00  0.00    +0.420 HD
ENDROOT
BRANCH   3   5
ATOM      5  C   LIG    1        2.387   0.011  -0.026  0.00  0.00    +0.430 A 
ATOM      6  C   LIG    1        2.122   0.963   0.918  0.00  0.00    -0.070 A 
ATOM      7  C   LIG    1        0.886   1.612   0.907  0.00  0.00    +0.380 A 
ATOM      8  N   LIG    1       -0.015   1.312  -0.003  0.00  0.00    -0.470 NA
ATOM      9  C   LIG    1        0.230   0.381  -0.935  0.00  0.00    +0.260 A 
ATOM     10  C   LIG    1       -0.527  -0.117  -1.987  0.00  0.00    -0.100 A 
ATOM     11  C   LIG    1        0.234  -1.079  -2.635  0.00  0.00    +0.290 A 
ATOM     12  N   LIG    1        1.396  -1.181  -2.032  0.00  0.00    -0.290 NA
ATOM     13  N   LIG    1        1.430  -0.281  -0.961  0.00  0.00    -0.310 N 
ENDBRANCH   3   5
BRANCH   2  14
ATOM     14  C   LIG    1        4.969  -2.703   0.154  0.00  0.00    +0.220 C 
BRANCH  14  15
ATOM     15  N   LIG    1        4.743  -4.151   0.245  0.00  0.00    -0.520 NA
ATOM     16  C   LIG    1        4.070  -4.501   1.504  0.00  0.00    +0.190 C 
ATOM     17  C   LIG    1        3.783  -6.004   1.525  0.00  0.00    +0.220 C 
ATOM     18  N   LIG    1        5.044  -6.744   1.382  0.00  0.00    -0.480 N 
ATOM     19  C   LIG    1        5.717  -6.394   0.124  0.00  0.00    +0.220 C 
ATOM     20  C   LIG    1        6.005  -4.891   0.103  0.00  0.00    +0.200 C 
BRANCH  18  21
ATOM     21  C   LIG    1        4.830  -8.115   1.469  0.00  0.00    +0.310 A 
ATOM     22  C   LIG    1        4.203  -8.645   2.591  0.00  0.00    -0.060 A 
ATOM     23  C   LIG    1        3.997 -10.011   2.664  0.00  0.00    +0.090 A 
ATOM     24  C   LIG    1        4.426 -10.803   1.608  0.00  0.00    -0.070 A 
ATOM     25  C   LIG    1        5.041 -10.210   0.524  0.00  0.00    +0.290 A 
ATOM     26  N   LIG    1        5.221  -8.903   0.479  0.00  0.00    -0.520 NA
ENDBRANCH  18  21
ENDBRANCH  14  15
ENDBRANCH   2  14
TORSDOF 4
