REMARK  Name = ZINCqH00000034ey.0
REMARK                            x       y       z     vdW  Elec       q    Type
REMARK                         _______ _______ _______ _____ _____    ______ ____
ROOT
ATOM      1  N   LIG    1        0.002  -0.004   0.002  0.00  0.00    -0.660 N 
ATOM      2  H   LIG    1       -0.758  -0.497  -0.345  0.00  0.00    +0.410 HD
ATOM      3  C   LIG    1        1.074  -0.666   0.481  0.00  0.00    +0.550 C 
ATOM      4  O   LIG    1        1.984  -0.052   1.003  0.00  0.00    -0.510 OA
ENDROOT
BRANCH   1   8
ATOM      5  C   LIG    1       -0.047   4.166   0.007  0.00  0.00    +0.210 A 
ATOM      6  C   LIG    1        1.149   3.486  -0.182  0.00  0.00    -0.050 A 
ATOM      7  C   LIG    1        1.165   2.105  -0.183  0.00  0.00    +0.060 A 
ATOM      8  C   LIG    1       -0.014   1.397   0.004  0.00  0.00    +0.080 A 
ATOM      9  C   LIG    1       -1.211   2.076   0.188  0.00  0.00    +0.030 A 
ATOM     10  C   LIG    1       -1.227   3.457   0.195  0.00  0.00    -0.050 A 
BRANCH   5  11
ATOM     11  N   LIG    1       -0.064   5.565   0.008  0.00  0.00    -0.630 N 
BRANCH  11  13
ATOM     12  C   LIG    1       -1.538   6.534   1.702  0.00  0.00    +0.010 C 
ATOM     13  C   LIG    1       -1.326   6.282   0.208  0.00  0.00    +0.270 C 
ENDBRANCH  11  13
BRANCH  11  14
ATOM     14  C   LIG    1        1.180   6.312  -0.191  0.00  0.00    +0.270 C 
ATOM     15  C   LIG    1        1.387   6.571  -1.685  0.00  0.00    +0.010 C 
ENDBRANCH  11  14
ENDBRANCH   5  11
ENDBRANCH   1   8
BRANCH   3  16
ATOM     16  C   LIG    1        1.142  -2.139   0.373  0.00  0.00    -0.070 A 
ATOM     17  C   LIG    1        0.096  -2.847  -0.221  0.00  0.00    +0.030 A 
ATOM     18  C   LIG    1        0.169  -4.221  -0.324  0.00  0.00    +0.130 A 
ATOM     19  C   LIG    1        1.270  -4.897   0.169  0.00  0.00    -0.640 A 
ATOM     20  C   LIG    1        2.308  -4.202   0.764  0.00  0.00    +0.130 A 
ATOM     21  C   LIG    1        2.250  -2.828   0.869  0.00  0.00    +0.070 A 
BRANCH  19  22
ATOM     22  S   LIG    1        1.352  -6.653   0.039  0.00  0.00    +2.480 S 
ATOM     23  O   LIG    1        2.744  -6.939   0.036  0.00  0.00    -0.880 OA
ATOM     24  O   LIG    1        0.539  -6.959  -1.086  0.00  0.00    -0.880 OA
BRANCH  22  25
ATOM     25  C   LIG    1        0.581  -7.256   1.566  0.00  0.00    -0.050 C 
ATOM     26  F   LIG    1       -0.740  -6.798   1.633  0.00  0.00    -0.160 F 
ATOM     27  F   LIG    1        1.296  -6.780   2.669  0.00  0.00    -0.160 F 
ENDBRANCH  22  25
ENDBRANCH  19  22
ENDBRANCH   3  16
TORSDOF 7
