REMARK  Name = ZINCtV00000L6k24.0
REMARK                            x       y       z     vdW  Elec       q    Type
REMARK                         _______ _______ _______ _____ _____    ______ ____
ROOT
ATOM      1  C   LIG    1        2.401   5.377   0.153  0.00  0.00    +0.210 C 
ENDROOT
BRANCH   1   2
ATOM      2  C   LIG    1        2.205   3.884   0.111  0.00  0.00    +0.020 A 
ATOM      3  N   LIG    1        1.081   3.300   0.287  0.00  0.00    -0.400 NA
ATOM      4  C   LIG    1        1.053   1.955   0.222  0.00  0.00    +0.070 A 
ATOM      5  C   LIG    1       -0.032   1.069   0.375  0.00  0.00    +0.090 A 
ATOM      6  C   LIG    1        0.156  -0.276   0.270  0.00  0.00    +0.030 A 
ATOM      7  C   LIG    1        1.415  -0.799   0.012  0.00  0.00    +0.050 A 
ATOM      8  C   LIG    1        2.493   0.043  -0.142  0.00  0.00    +0.060 A 
ATOM      9  C   LIG    1        2.320   1.421  -0.038  0.00  0.00    -0.170 A 
ATOM     10  S   LIG    1        3.456   2.759  -0.177  0.00  0.00    +0.140 S 
ENDBRANCH   1   2
BRANCH   1  11
ATOM     11  C   LIG    1        1.784   6.008  -1.097  0.00  0.00    +0.470 C 
ATOM     12  F   LIG    1        2.499   5.598  -2.228  0.00  0.00    -0.180 F 
ATOM     13  F   LIG    1        1.838   7.402  -0.991  0.00  0.00    -0.140 F 
ATOM     14  F   LIG    1        0.451   5.600  -1.215  0.00  0.00    -0.160 F 
ENDBRANCH   1  11
BRANCH   1  15
ATOM     15  O   LIG    1        1.766   5.908   1.317  0.00  0.00    -0.570 OA
BRANCH  15  17
ATOM     16  C   LIG    1        4.052   6.295   2.985  0.00  0.00    -0.290 C 
ATOM     17 SI   LIG    1        2.433   5.412   2.721  0.00  0.00    +1.230 Si
ATOM     18  C   LIG    1        2.731   3.575   2.652  0.00  0.00    -0.300 C 
ATOM     19  C   LIG    1        1.277   5.801   4.129  0.00  0.00    -0.210 C 
ENDBRANCH  15  17
ENDBRANCH   1  15
BRANCH   1  20
ATOM     20  C   LIG    1        3.897   5.694   0.198  0.00  0.00    +0.030 C 
BRANCH  20  21
ATOM     21  C   LIG    1        4.091   7.178   0.376  0.00  0.00    +0.380 C 
ATOM     22  O   LIG    1        3.135   7.894   0.586  0.00  0.00    -0.370 OA
BRANCH  21  23
ATOM     23  C   LIG    1        5.440   7.759   0.294  0.00  0.00    -0.140 A 
ATOM     24  C   LIG    1        6.546   6.937   0.052  0.00  0.00    +0.070 A 
ATOM     25  C   LIG    1        7.807   7.489  -0.023  0.00  0.00    +0.020 A 
ATOM     26  C   LIG    1        7.982   8.852   0.140  0.00  0.00    +0.060 A 
ATOM     27  C   LIG    1        6.894   9.673   0.380  0.00  0.00    +0.040 A 
ATOM     28  C   LIG    1        5.624   9.137   0.453  0.00  0.00    -0.040 A 
ATOM     29 BR   LIG    1        4.138  10.262   0.773  0.00  0.00    -0.010 Br
ENDBRANCH  21  23
ENDBRANCH  20  21
ENDBRANCH   1  20
TORSDOF 7
