REMARK  Name = ZINCpe000000Uvrw.1
REMARK                            x       y       z     vdW  Elec       q    Type
REMARK                         _______ _______ _______ _____ _____    ______ ____
ROOT
ATOM      1  C   LIG    1        2.789  -0.730  -3.893  0.00  0.00    +0.340 C 
ATOM      2  N   LIG    1        1.473  -0.388  -4.438  0.00  0.00    -0.510 N 
ATOM      3  C   LIG    1        1.218  -0.591  -5.744  0.00  0.00    +0.710 A 
ATOM      4  N   LIG    1        0.024  -0.290  -6.285  0.00  0.00    -0.660 N 
ATOM      5  H   LIG    1       -0.129  -0.447  -7.229  0.00  0.00    +0.440 HD
ATOM      6  C   LIG    1       -0.984   0.239  -5.507  0.00  0.00    +0.600 A 
ATOM      7  C   LIG    1       -0.744   0.460  -4.139  0.00  0.00    -0.180 A 
ATOM      8  N   LIG    1       -1.503   0.962  -3.090  0.00  0.00    -0.550 N 
ATOM      9  C   LIG    1       -0.712   0.930  -1.986  0.00  0.00    +0.560 C 
ATOM     10  N   LIG    1        0.471   0.447  -2.308  0.00  0.00    -0.530 NA
ATOM     11  H   LIG    1       -2.420   1.276  -3.137  0.00  0.00    +0.430 HD
ATOM     12  O   LIG    1       -2.066   0.510  -5.998  0.00  0.00    -0.520 OA
ATOM     13  O   LIG    1        2.090  -1.056  -6.453  0.00  0.00    -0.540 OA
ATOM     14  C   LIG    1        0.500   0.140  -3.607  0.00  0.00    +0.360 A 
ENDROOT
BRANCH   9  15
ATOM     15  N   LIG    1       -1.086   1.344  -0.728  0.00  0.00    -0.700 NA
ATOM     16  H   LIG    1       -1.978   1.693  -0.577  0.00  0.00    +0.410 HD
BRANCH  15  17
ATOM     17  C   LIG    1       -0.136   1.257   0.384  0.00  0.00    +0.280 C 
BRANCH  17  18
ATOM     18  C   LIG    1       -0.725   1.954   1.613  0.00  0.00    +0.210 C 
BRANCH  18  19
ATOM     19  C   LIG    1        0.212   1.787   2.782  0.00  0.00    -0.050 A 
ATOM     20  C   LIG    1        1.231   2.698   2.986  0.00  0.00    +0.030 A 
ATOM     21  C   LIG    1        2.088   2.549   4.061  0.00  0.00    +0.040 A 
ATOM     22  C   LIG    1        1.933   1.482   4.926  0.00  0.00    -0.010 A 
ATOM     23  C   LIG    1        0.916   0.566   4.719  0.00  0.00    +0.100 A 
ATOM     24  F   LIG    1        0.764  -0.477   5.564  0.00  0.00    -0.140 F 
ATOM     25  C   LIG    1        0.056   0.719   3.645  0.00  0.00    -0.020 A 
ENDBRANCH  18  19
BRANCH  18  26
ATOM     26  N   LIG    1       -0.901   3.384   1.327  0.00  0.00    -0.530 NA
ATOM     27  C   LIG    1       -2.272   3.666   0.882  0.00  0.00    +0.200 C 
ATOM     28  C   LIG    1        0.080   3.848   0.338  0.00  0.00    +0.200 C 
ENDBRANCH  18  26
ENDBRANCH  17  18
ENDBRANCH  15  17
ENDBRANCH   9  15
TORSDOF 5
