REMARK  Name = ZINCtV000002LJf3.0
REMARK                            x       y       z     vdW  Elec       q    Type
REMARK                         _______ _______ _______ _____ _____    ______ ____
ROOT
ATOM      1  C   LIG    1       -0.215   1.251   0.037  0.00  0.00    -0.090 A 
ATOM      2  C   LIG    1        1.096   1.645   0.234  0.00  0.00    +0.070 A 
ATOM      3  C   LIG    1        2.103   0.701   0.287  0.00  0.00    +0.010 A 
ATOM      4  C   LIG    1        1.798  -0.646   0.143  0.00  0.00    +0.170 A 
ATOM      5  C   LIG    1        0.481  -1.041  -0.054  0.00  0.00    +0.040 A 
ATOM      6  C   LIG    1       -0.522  -0.091  -0.107  0.00  0.00    +0.000 A 
ATOM      7 CL   LIG    1       -2.169  -0.582  -0.353  0.00  0.00    -0.050 Cl
ENDROOT
BRANCH   4   8
ATOM      8  N   LIG    1        2.815  -1.604   0.197  0.00  0.00    -0.660 N 
ATOM      9  H   LIG    1        3.589  -1.459   0.764  0.00  0.00    +0.410 HD
ATOM     10  C   LIG    1        2.722  -2.729  -0.539  0.00  0.00    +0.550 C 
ATOM     11  O   LIG    1        1.787  -2.880  -1.302  0.00  0.00    -0.490 OA
BRANCH  10  12
ATOM     12  C   LIG    1        3.755  -3.779  -0.419  0.00  0.00    -0.090 A 
ATOM     13  C   LIG    1        4.832  -3.607   0.451  0.00  0.00    +0.050 A 
ATOM     14  C   LIG    1        5.790  -4.593   0.562  0.00  0.00    +0.050 A 
ATOM     15  C   LIG    1        5.691  -5.746  -0.195  0.00  0.00    +0.050 A 
ATOM     16  C   LIG    1        4.629  -5.922  -1.064  0.00  0.00    +0.070 A 
ATOM     17  C   LIG    1        3.661  -4.946  -1.181  0.00  0.00    -0.130 A 
BRANCH  17  18
ATOM     18  C   LIG    1        2.504  -5.138  -2.128  0.00  0.00    +0.510 C 
ATOM     19  F   LIG    1        2.506  -4.114  -3.080  0.00  0.00    -0.160 F 
ATOM     20  F   LIG    1        1.304  -5.106  -1.410  0.00  0.00    -0.160 F 
ATOM     21  F   LIG    1        2.630  -6.374  -2.772  0.00  0.00    -0.180 F 
ENDBRANCH  17  18
ENDBRANCH  10  12
ENDBRANCH   4   8
BRANCH   1  22
ATOM     22  C   LIG    1       -1.310   2.284  -0.026  0.00  0.00    +0.220 C 
BRANCH  22  23
ATOM     23  C   LIG    1       -1.449   2.952   1.317  0.00  0.00    -0.080 A 
ATOM     24  C   LIG    1       -0.447   3.784   1.783  0.00  0.00    +0.010 A 
ATOM     25  C   LIG    1       -0.577   4.400   3.013  0.00  0.00    +0.010 A 
ATOM     26  C   LIG    1       -1.703   4.177   3.783  0.00  0.00    +0.020 A 
ATOM     27  C   LIG    1       -2.702   3.341   3.320  0.00  0.00    +0.010 A 
ATOM     28  C   LIG    1       -2.575   2.729   2.087  0.00  0.00    +0.030 A 
ENDBRANCH  22  23
BRANCH  22  30
ATOM     29  N   LIG    1       -0.714   4.072  -1.829  0.00  0.00    -0.410 NA
ATOM     30  C   LIG    1       -0.973   3.293  -1.044  0.00  0.00    +0.210 C 
ENDBRANCH  22  30
ENDBRANCH   1  22
TORSDOF 6
