REMARK  Name = ZINCpe000000Z72m.0
REMARK                            x       y       z     vdW  Elec       q    Type
REMARK                         _______ _______ _______ _____ _____    ______ ____
ROOT
ATOM      1  O   LIG    1        1.164  10.135  -0.593  0.00  0.00    -0.590 OA
ATOM      2  C   LIG    1        1.283   9.267  -1.437  0.00  0.00    +0.710 C 
ATOM      3  N   LIG    1        1.921   9.534  -2.593  0.00  0.00    -0.740 N 
ATOM      4  H   LIG    1        2.016   8.842  -3.266  0.00  0.00    +0.400 HD
ATOM      5  N   LIG    1        0.776   8.038  -1.215  0.00  0.00    -0.740 N 
ATOM      6  H   LIG    1        0.871   7.346  -1.888  0.00  0.00    +0.400 HD
ENDROOT
BRANCH   3   7
ATOM      7  C   LIG    1        2.472  10.870  -2.834  0.00  0.00    +0.430 C 
BRANCH   7   8
ATOM      8  C   LIG    1        3.130  10.905  -4.190  0.00  0.00    +0.170 A 
ATOM      9  N   LIG    1        2.558  11.221  -5.320  0.00  0.00    -0.260 NA
ATOM     10  N   LIG    1        3.415  11.144  -6.275  0.00  0.00    -0.280 NA
ATOM     11  C   LIG    1        4.573  10.773  -5.797  0.00  0.00    +0.170 A 
ATOM     12  C   LIG    1        5.999  10.463  -6.200  0.00  0.00    +0.180 C 
ATOM     13  C   LIG    1        6.577   9.693  -4.991  0.00  0.00    +0.070 C 
ATOM     14  C   LIG    1        5.688  10.203  -3.836  0.00  0.00    +0.300 C 
ATOM     15  N   LIG    1        4.428  10.621  -4.462  0.00  0.00    -0.490 N 
ENDBRANCH   7   8
ENDBRANCH   3   7
BRANCH   5  16
ATOM     16  C   LIG    1        0.082   7.748   0.042  0.00  0.00    +0.310 C 
BRANCH  16  17
ATOM     17  C   LIG    1       -0.391   6.293   0.039  0.00  0.00    +0.210 C 
BRANCH  17  18
ATOM     18  O   LIG    1        0.743   5.423   0.024  0.00  0.00    -0.310 OA
BRANCH  18  19
ATOM     19  C   LIG    1        0.495   4.086   0.019  0.00  0.00    +0.140 A 
ATOM     20  C   LIG    1       -0.812   3.624   0.029  0.00  0.00    -0.060 A 
ATOM     21  C   LIG    1       -1.067   2.265   0.019  0.00  0.00    +0.080 A 
ATOM     22  C   LIG    1       -0.016   1.362   0.009  0.00  0.00    -0.010 A 
ATOM     23  O   LIG    1        0.002  -0.004   0.002  0.00  0.00    -0.310 OA
ATOM     24  C   LIG    1        1.336  -0.372   0.400  0.00  0.00    +0.430 C 
ATOM     25  O   LIG    1        2.138   0.749  -0.015  0.00  0.00    -0.310 OA
ATOM     26  C   LIG    1        1.298   1.824  -0.001  0.00  0.00    +0.070 A 
ATOM     27  C   LIG    1        1.550   3.186   0.004  0.00  0.00    +0.000 A 
ENDBRANCH  18  19
ENDBRANCH  17  18
ENDBRANCH  16  17
ENDBRANCH   5  16
TORSDOF 6
