REMARK  Name = ZINCqH0000001iAV.0
REMARK                            x       y       z     vdW  Elec       q    Type
REMARK                         _______ _______ _______ _____ _____    ______ ____
ROOT
ATOM      1  C   LIG    1        3.784  -0.592   0.453  0.00  0.00    +0.310 C 
ENDROOT
BRANCH   1   7
ATOM      2  C   LIG    1        1.309  -0.600   0.854  0.00  0.00    +0.150 A 
ATOM      3  C   LIG    1        0.121   0.058   1.137  0.00  0.00    -0.080 A 
ATOM      4  C   LIG    1        0.118   1.427   1.325  0.00  0.00    +0.040 A 
ATOM      5  C   LIG    1        1.298   2.141   1.232  0.00  0.00    -0.040 A 
ATOM      6  C   LIG    1        2.484   1.488   0.949  0.00  0.00    +0.050 A 
ATOM      7  C   LIG    1        2.492   0.119   0.760  0.00  0.00    -0.130 A 
BRANCH   2   8
ATOM      8  O   LIG    1        1.314  -1.946   0.669  0.00  0.00    -0.310 OA
BRANCH   8   9
ATOM      9  C   LIG    1        0.060  -2.621   0.780  0.00  0.00    +0.180 C 
BRANCH   9  11
ATOM     10  C   LIG    1        1.136  -4.698   1.658  0.00  0.00    +0.020 C 
ATOM     11  C   LIG    1        0.263  -4.119   0.542  0.00  0.00    -0.010 C 
ATOM     12  C   LIG    1       -1.095  -4.824   0.538  0.00  0.00    +0.040 C 
ENDBRANCH   9  11
ENDBRANCH   8   9
ENDBRANCH   2   8
ENDBRANCH   1   7
BRANCH   1  13
ATOM     13  N   LIG    1        4.719   0.344  -0.177  0.00  0.00    -0.680 N 
ATOM     14  H   LIG    1        5.399   0.784   0.356  0.00  0.00    +0.420 HD
BRANCH  13  15
ATOM     15  C   LIG    1        4.631   0.601  -1.541  0.00  0.00    +0.400 A 
ATOM     16  N   LIG    1        3.650   0.075  -2.240  0.00  0.00    -0.280 NA
ATOM     17  N   LIG    1        3.544   0.327  -3.608  0.00  0.00    -0.170 N 
ATOM     18  N   LIG    1        2.646  -0.066  -4.609  0.00  0.00    -0.050 NA
ATOM     19  N   LIG    1        3.050   0.472  -5.710  0.00  0.00    -0.030 NA
ATOM     20  N   LIG    1        4.114   1.167  -5.515  0.00  0.00    -0.290 NA
ATOM     21  C   LIG    1        4.467   1.115  -4.238  0.00  0.00    +0.170 A 
ATOM     22  C   LIG    1        5.520   1.674  -3.492  0.00  0.00    +0.180 A 
ATOM     23  C   LIG    1        5.597   1.416  -2.159  0.00  0.00    +0.020 A 
ENDBRANCH  13  15
ENDBRANCH   1  13
BRANCH   1  24
ATOM     24  C   LIG    1        4.394  -1.125   1.751  0.00  0.00    +0.040 C 
BRANCH  24  25
ATOM     25  C   LIG    1        5.631  -1.964   1.427  0.00  0.00    -0.030 C 
ATOM     26  C   LIG    1        6.158  -2.614   2.708  0.00  0.00    +0.020 C 
ATOM     27  C   LIG    1        6.715  -1.065   0.829  0.00  0.00    +0.010 C 
ENDBRANCH  24  25
ENDBRANCH   1  24
TORSDOF 8
