REMARK  Name = ZINCpk000000obi1.0
REMARK                            x       y       z     vdW  Elec       q    Type
REMARK                         _______ _______ _______ _____ _____    ______ ____
ROOT
ATOM      1  S   LIG    1        4.149  -0.721  -0.157  0.00  0.00    +2.690 S 
ATOM      2  O   LIG    1        4.392  -0.439   1.215  0.00  0.00    -0.940 OA
ATOM      3  O   LIG    1        5.156  -1.187  -1.045  0.00  0.00    -0.950 OA
ENDROOT
BRANCH   1   4
ATOM      4  C   LIG    1        2.858  -1.919  -0.197  0.00  0.00    -0.700 A 
ATOM      5  C   LIG    1        2.717  -2.747  -1.295  0.00  0.00    +0.190 A 
ATOM      6  C   LIG    1        1.704  -3.688  -1.326  0.00  0.00    -0.010 A 
ATOM      7  C   LIG    1        0.832  -3.800  -0.260  0.00  0.00    +0.180 A 
ATOM      8  C   LIG    1        0.973  -2.971   0.839  0.00  0.00    -0.700 A 
ATOM      9  C   LIG    1        1.989  -2.035   0.872  0.00  0.00    +0.240 A 
BRANCH   8  10
ATOM     10  S   LIG    1       -0.140  -3.114   2.198  0.00  0.00    +2.700 S 
ATOM     11  O   LIG    1       -1.326  -3.704   1.685  0.00  0.00    -0.950 OA
ATOM     12  O   LIG    1       -0.121  -1.859   2.864  0.00  0.00    -0.950 OA
BRANCH  10  13
ATOM     13  N   LIG    1        0.512  -4.213   3.251  0.00  0.00    -1.250 NA
ATOM     14  H   LIG    1        1.070  -4.933   2.918  0.00  0.00    +0.420 HD
ATOM     15  H   LIG    1        0.336  -4.136   4.202  0.00  0.00    +0.420 HD
ENDBRANCH  10  13
ENDBRANCH   8  10
ENDBRANCH   1   4
BRANCH   1  16
ATOM     16  N   LIG    1        3.547   0.671  -0.821  0.00  0.00    -1.100 NA
ATOM     17  H   LIG    1        3.916   1.011  -1.651  0.00  0.00    +0.420 HD
BRANCH  16  19
ATOM     18  C   LIG    1        2.510   2.913  -0.356  0.00  0.00    -0.070 C 
ATOM     19  C   LIG    1        2.457   1.389  -0.155  0.00  0.00    +0.240 C 
ATOM     20  C   LIG    1        1.148   1.406  -0.960  0.00  0.00    -0.060 C 
ATOM     21  C   LIG    1       -0.099   1.614  -0.099  0.00  0.00    +0.070 C 
ATOM     22  C   LIG    1        1.664   2.695  -1.622  0.00  0.00    +0.160 C 
BRANCH  18  24
ATOM     23  C   LIG    1        2.284   3.244   2.110  0.00  0.00    +0.020 C 
ATOM     24  C   LIG    1        1.785   3.700   0.737  0.00  0.00    +0.050 C 
ENDBRANCH  18  24
BRANCH  18  25
ATOM     25  C   LIG    1        3.915   3.445  -0.640  0.00  0.00    +0.020 C 
ATOM     26  C   LIG    1        3.834   4.929  -1.005  0.00  0.00    +0.020 C 
ENDBRANCH  18  25
BRANCH  22  27
ATOM     27  O   LIG    1        0.652   3.686  -1.811  0.00  0.00    -0.360 OA
ATOM     28  C   LIG    1        0.283   3.887  -3.177  0.00  0.00    +0.200 C 
ENDBRANCH  22  27
ENDBRANCH  16  19
ENDBRANCH   1  16
TORSDOF 8
