REMARK  Name = ZINCkj00000y7FIA.0
REMARK                            x       y       z     vdW  Elec       q    Type
REMARK                         _______ _______ _______ _____ _____    ______ ____
ROOT
ATOM      1  N   LIG    1        3.395   1.882   1.511  0.00  0.00    -0.390 N 
ATOM      2  C   LIG    1        4.561   1.947   0.619  0.00  0.00    +0.280 C 
ATOM      3  C   LIG    1        4.226   1.263  -0.708  0.00  0.00    +0.230 C 
ATOM      4  N   LIG    1        3.077   1.937  -1.327  0.00  0.00    -0.510 NA
ATOM      5  C   LIG    1        1.909   1.902  -0.436  0.00  0.00    +0.330 C 
ATOM      6  C   LIG    1        2.760   1.344  -2.634  0.00  0.00    +0.240 C 
ATOM      7  C   LIG    1        2.261   2.581   0.889  0.00  0.00    +0.310 C 
ATOM      8  H   LIG    1        3.148   0.917   1.671  0.00  0.00    +0.420 HD
ENDROOT
BRANCH   5   9
ATOM      9  C   LIG    1        1.515   0.470  -0.178  0.00  0.00    +0.090 A 
ATOM     10  N   LIG    1        0.300  -0.022  -0.201  0.00  0.00    -0.440 NA
ATOM     11  C   LIG    1        0.434  -1.330   0.084  0.00  0.00    +0.190 A 
ATOM     12  N   LIG    1        1.700  -1.562   0.263  0.00  0.00    -0.360 NA
ATOM     13  C   LIG    1       -0.680  -2.340   0.179  0.00  0.00    +0.220 C 
ATOM     14  O   LIG    1        2.338  -0.541   0.116  0.00  0.00    +0.060 OA
ENDBRANCH   5   9
BRANCH   1  15
ATOM     15  C   LIG    1        3.722   2.523   2.791  0.00  0.00    +0.270 C 
BRANCH  15  16
ATOM     16  C   LIG    1        4.817   1.721   3.498  0.00  0.00    +0.150 C 
BRANCH  16  17
ATOM     17  C   LIG    1        5.158   2.389   4.832  0.00  0.00    -0.010 C 
ATOM     18  C   LIG    1        5.776   3.764   4.571  0.00  0.00    +0.030 C 
ATOM     19  C   LIG    1        6.156   1.518   5.597  0.00  0.00    +0.050 C 
ENDBRANCH  16  17
BRANCH  16  21
ATOM     20  C   LIG    1        5.264  -0.626   3.308  0.00  0.00    +0.220 C 
ATOM     21  O   LIG    1        4.354   0.390   3.736  0.00  0.00    -0.380 OA
ENDBRANCH  16  21
ENDBRANCH  15  16
ENDBRANCH   1  15
TORSDOF 5
