REMARK  Name = ZINCkj00000y7FIA.1
REMARK                            x       y       z     vdW  Elec       q    Type
REMARK                         _______ _______ _______ _____ _____    ______ ____
ROOT
ATOM      1  N   LIG    1       -0.365   0.484   2.646  0.00  0.00    -0.380 N 
ATOM      2  C   LIG    1        1.024   0.797   3.009  0.00  0.00    +0.280 C 
ATOM      3  C   LIG    1        1.468  -0.109   4.158  0.00  0.00    +0.240 C 
ATOM      4  N   LIG    1        0.583   0.100   5.313  0.00  0.00    -0.530 NA
ATOM      5  C   LIG    1       -0.814  -0.186   4.959  0.00  0.00    +0.280 C 
ATOM      6  C   LIG    1        1.012  -0.713   6.459  0.00  0.00    +0.250 C 
ATOM      7  C   LIG    1       -1.240   0.722   3.802  0.00  0.00    +0.280 C 
ATOM      8  H   LIG    1       -0.430  -0.483   2.369  0.00  0.00    +0.430 HD
ENDROOT
BRANCH   5   9
ATOM      9  C   LIG    1       -1.698   0.072   6.152  0.00  0.00    +0.160 A 
ATOM     10  N   LIG    1       -2.669  -0.696   6.584  0.00  0.00    -0.450 NA
ATOM     11  C   LIG    1       -3.171  -0.071   7.664  0.00  0.00    +0.180 A 
ATOM     12  N   LIG    1       -2.498   1.028   7.825  0.00  0.00    -0.360 NA
ATOM     13  C   LIG    1       -4.309  -0.554   8.526  0.00  0.00    +0.220 C 
ATOM     14  O   LIG    1       -1.647   1.129   6.967  0.00  0.00    +0.110 OA
ENDBRANCH   5   9
BRANCH   1  15
ATOM     15  C   LIG    1       -0.785   1.343   1.531  0.00  0.00    +0.290 C 
BRANCH  15  16
ATOM     16  C   LIG    1       -2.187   0.935   1.073  0.00  0.00    +0.150 C 
BRANCH  16  17
ATOM     17  C   LIG    1       -2.621   1.823  -0.095  0.00  0.00    -0.020 C 
ATOM     18  C   LIG    1       -2.581   3.290   0.337  0.00  0.00    +0.040 C 
ATOM     19  C   LIG    1       -4.045   1.454  -0.515  0.00  0.00    +0.040 C 
ENDBRANCH  16  17
BRANCH  16  21
ATOM     20  C   LIG    1       -3.292  -1.192   1.113  0.00  0.00    +0.220 C 
ATOM     21  O   LIG    1       -2.173  -0.431   0.654  0.00  0.00    -0.380 OA
ENDBRANCH  16  21
ENDBRANCH  15  16
ENDBRANCH   1  15
TORSDOF 5
