REMARK  Name = ZINCqH0000002iUK.0
REMARK                            x       y       z     vdW  Elec       q    Type
REMARK                         _______ _______ _______ _____ _____    ______ ____
ROOT
ATOM      1  C   LIG    1       -0.630   6.198   1.127  0.00  0.00    +0.540 C 
ATOM      2  N   LIG    1        0.560   6.827   1.194  0.00  0.00    -0.670 N 
ATOM      3  H   LIG    1        1.041   6.865   2.035  0.00  0.00    +0.410 HD
ATOM      4  O   LIG    1       -1.192   6.076   0.059  0.00  0.00    -0.490 OA
ENDROOT
BRANCH   1  11
ATOM      5  C   LIG    1       -0.727   3.526   1.279  0.00  0.00    +0.510 C 
ATOM      6  N   LIG    1       -1.319   4.181   2.298  0.00  0.00    -0.610 N 
ATOM      7  C   LIG    1       -2.028   3.442   3.351  0.00  0.00    +0.270 C 
ATOM      8  C   LIG    1       -3.448   4.003   3.478  0.00  0.00    +0.010 C 
ATOM      9  C   LIG    1       -3.376   5.514   3.710  0.00  0.00    +0.020 C 
ATOM     10  C   LIG    1       -2.696   6.184   2.513  0.00  0.00    +0.040 C 
ATOM     11  C   LIG    1       -1.263   5.647   2.379  0.00  0.00    +0.220 C 
ATOM     12  O   LIG    1       -0.205   4.150   0.380  0.00  0.00    -0.500 OA
BRANCH   5  13
ATOM     13  C   LIG    1       -0.714   2.019   1.258  0.00  0.00    +0.040 C 
BRANCH  13  15
ATOM     14  C   LIG    1        0.028   0.003  -0.017  0.00  0.00    +0.010 C 
ATOM     15  C   LIG    1        0.015   1.533   0.004  0.00  0.00    +0.030 C 
ENDBRANCH  13  15
ENDBRANCH   5  13
ENDBRANCH   1  11
BRANCH   2  16
ATOM     16  C   LIG    1        1.101   7.424   0.051  0.00  0.00    +0.160 A 
ATOM     17  C   LIG    1        0.910   6.837  -1.194  0.00  0.00    +0.050 A 
ATOM     18  C   LIG    1        1.438   7.426  -2.323  0.00  0.00    +0.050 A 
ATOM     19  C   LIG    1        2.172   8.608  -2.214  0.00  0.00    -0.040 A 
ATOM     20  C   LIG    1        2.366   9.192  -0.961  0.00  0.00    +0.050 A 
ATOM     21  C   LIG    1        1.832   8.601   0.164  0.00  0.00    -0.020 A 
BRANCH  19  22
ATOM     22  C   LIG    1        2.743   9.239  -3.422  0.00  0.00    +0.000 A 
ATOM     23  C   LIG    1        2.637   8.788  -4.698  0.00  0.00    +0.170 A 
ATOM     24  N   LIG    1        3.295   9.651  -5.488  0.00  0.00    -0.480 NA
ATOM     25  C   LIG    1        3.793  10.602  -4.750  0.00  0.00    +0.190 A 
ATOM     26  C   LIG    1        4.602  11.769  -5.256  0.00  0.00    +0.220 C 
ATOM     27  O   LIG    1        3.466  10.380  -3.469  0.00  0.00    -0.200 OA
ENDBRANCH  19  22
ENDBRANCH   2  16
TORSDOF 5
