REMARK  Name = ZINCvU0000000Jiz.0
REMARK                            x       y       z     vdW  Elec       q    Type
REMARK                         _______ _______ _______ _____ _____    ______ ____
ROOT
ATOM      1  O   LIG    1       -1.020  -0.612  -0.254  0.00  0.00    -0.500 OA
ATOM      2  C   LIG    1        0.002  -0.004   0.002  0.00  0.00    +0.660 C 
ATOM      3  N   LIG    1       -0.016   1.339   0.009  0.00  0.00    -0.520 NA
ATOM      4  C   LIG    1        1.086   2.037   0.003  0.00  0.00    +0.310 C 
ATOM      5  C   LIG    1        2.427   1.351  -0.056  0.00  0.00    +0.110 C 
ATOM      6  C   LIG    1        2.342   0.014   0.686  0.00  0.00    +0.310 C 
ATOM      7  N   LIG    1        1.126  -0.691   0.271  0.00  0.00    -0.740 N 
ATOM      8  H   LIG    1        1.132  -1.657   0.191  0.00  0.00    +0.420 HD
ENDROOT
BRANCH   5   9
ATOM      9  C   LIG    1        2.804   1.105  -1.494  0.00  0.00    +0.070 A 
ATOM     10  N   LIG    1        3.854   1.574  -2.053  0.00  0.00    -0.440 NA
ATOM     11  C   LIG    1        4.065   1.273  -3.349  0.00  0.00    +0.080 A 
ATOM     12  C   LIG    1        5.124   1.649  -4.199  0.00  0.00    +0.080 A 
ATOM     13  C   LIG    1        5.150   1.231  -5.495  0.00  0.00    +0.030 A 
ATOM     14  C   LIG    1        4.138   0.429  -6.003  0.00  0.00    +0.050 A 
ATOM     15  C   LIG    1        3.091   0.045  -5.195  0.00  0.00    +0.060 A 
ATOM     16  C   LIG    1        3.048   0.463  -3.867  0.00  0.00    -0.180 A 
ATOM     17  S   LIG    1        1.886   0.159  -2.579  0.00  0.00    +0.130 S 
ENDBRANCH   5   9
BRANCH   6  18
ATOM     18  C   LIG    1        2.298   0.265   2.171  0.00  0.00    -0.070 A 
ATOM     19  C   LIG    1        1.113   0.646   2.772  0.00  0.00    +0.040 A 
ATOM     20  C   LIG    1        1.071   0.871   4.136  0.00  0.00    +0.110 A 
ATOM     21  C   LIG    1        2.216   0.725   4.896  0.00  0.00    -0.030 A 
ATOM     22  C   LIG    1        3.402   0.349   4.294  0.00  0.00    +0.110 A 
ATOM     23  C   LIG    1        3.443   0.119   2.932  0.00  0.00    +0.060 A 
BRANCH  21  24
ATOM     24  N   LIG    1        2.172   0.972   6.355  0.00  0.00    +0.020 N 
ATOM     25  O   LIG    1        1.127   1.304   6.885  0.00  0.00    -0.150 OA
ATOM     26  O   LIG    1        3.182   0.844   7.025  0.00  0.00    -0.150 OA
ENDBRANCH  21  24
ENDBRANCH   6  18
BRANCH   4  27
ATOM     27  C   LIG    1        1.020   3.505   0.052  0.00  0.00    -0.100 A 
ATOM     28  C   LIG    1        2.197   4.263   0.051  0.00  0.00    +0.060 A 
ATOM     29  C   LIG    1        2.126   5.639   0.091  0.00  0.00    +0.000 A 
ATOM     30  C   LIG    1        0.895   6.271   0.144  0.00  0.00    +0.050 A 
ATOM     31  C   LIG    1       -0.273   5.528   0.152  0.00  0.00    +0.000 A 
ATOM     32  C   LIG    1       -0.220   4.152   0.105  0.00  0.00    +0.090 A 
ENDBRANCH   4  27
TORSDOF 4
