REMARK  Name = ZINCrH00000tj1dF.0
REMARK                            x       y       z     vdW  Elec       q    Type
REMARK                         _______ _______ _______ _____ _____    ______ ____
ROOT
ATOM      1  C   LIG    1        6.731  -0.457  -0.518  0.00  0.00    +0.150 C 
ATOM      2  C   LIG    1        6.407  -0.842  -1.970  0.00  0.00    +0.040 C 
ATOM      3  C   LIG    1        6.056  -2.243  -1.443  0.00  0.00    +0.040 C 
ATOM      4  C   LIG    1        6.035   0.832  -0.049  0.00  0.00    +0.290 C 
ATOM      5  N   LIG    1        4.594   0.555  -0.037  0.00  0.00    -0.610 N 
ATOM      6  C   LIG    1        3.621   1.488  -0.024  0.00  0.00    +0.620 C 
ATOM      7  O   LIG    1        3.912   2.670  -0.021  0.00  0.00    -0.520 OA
ATOM      8  C   LIG    1        4.378  -0.895  -0.036  0.00  0.00    +0.270 C 
ATOM      9  C   LIG    1        5.754  -1.580  -0.089  0.00  0.00    -0.010 C 
ENDROOT
BRANCH   6  10
ATOM     10  C   LIG    1        2.213   1.079  -0.013  0.00  0.00    -0.300 A 
ATOM     11  C   LIG    1        1.139   1.908   0.001  0.00  0.00    +0.320 A 
ATOM     12  N   LIG    1       -0.015   1.290   0.009  0.00  0.00    -0.480 NA
ATOM     13  C   LIG    1        0.002  -0.004   0.002  0.00  0.00    +0.050 A 
ATOM     14  C   LIG    1       -1.224  -0.881   0.009  0.00  0.00    +0.180 C 
ATOM     15  S   LIG    1        1.612  -0.578  -0.016  0.00  0.00    +0.170 S 
ENDBRANCH   6  10
BRANCH   1  16
ATOM     16  N   LIG    1        8.126  -0.600  -0.092  0.00  0.00    -0.670 N 
ATOM     17  H   LIG    1        8.404  -1.388   0.400  0.00  0.00    +0.420 HD
BRANCH  16  21
ATOM     18  C   LIG    1       12.351  -0.595   0.966  0.00  0.00    -0.170 A 
ATOM     19  C   LIG    1       11.065  -0.796   0.750  0.00  0.00    +0.040 A 
ATOM     20  C   LIG    1       10.397   0.265   0.021  0.00  0.00    -0.230 A 
ATOM     21  C   LIG    1        9.045   0.389  -0.391  0.00  0.00    +0.490 A 
ATOM     22  N   LIG    1        8.676   1.470  -1.062  0.00  0.00    -0.580 NA
ATOM     23  C   LIG    1        9.543   2.423  -1.355  0.00  0.00    +0.560 A 
ATOM     24  N   LIG    1       10.805   2.353  -1.000  0.00  0.00    -0.530 NA
ATOM     25  C   LIG    1       11.273   1.300  -0.319  0.00  0.00    +0.120 A 
ATOM     26  S   LIG    1       12.883   0.930   0.283  0.00  0.00    +0.170 S 
BRANCH  18  28
ATOM     27  C   LIG    1       13.864  -2.543   0.714  0.00  0.00    +0.040 C 
ATOM     28  C   LIG    1       13.248  -1.554   1.705  0.00  0.00    +0.120 C 
ENDBRANCH  18  28
ENDBRANCH  16  21
ENDBRANCH   1  16
TORSDOF 4
