REMARK  Name = ZINCah0000006lBq.0
REMARK                            x       y       z     vdW  Elec       q    Type
REMARK                         _______ _______ _______ _____ _____    ______ ____
ROOT
ATOM      1  C   LIG    1       -2.247   1.827   0.761  0.00  0.00    -0.170 C 
ATOM      2  C   LIG    1       -2.281   1.474  -0.737  0.00  0.00    +0.050 C 
ATOM      3  C   LIG    1       -0.813   1.624  -1.204  0.00  0.00    +0.020 C 
ATOM      4  C   LIG    1       -0.013   1.086   0.008  0.00  0.00    +0.030 C 
ATOM      5  C   LIG    1       -2.475   3.348   0.928  0.00  0.00    +0.030 C 
ATOM      6  C   LIG    1       -1.387   3.728   1.964  0.00  0.00    +0.200 C 
ATOM      7  O   LIG    1       -0.265   2.899   1.593  0.00  0.00    -0.370 OA
ATOM      8  C   LIG    1       -0.787   1.609   1.237  0.00  0.00    +0.170 C 
ENDROOT
BRANCH   1  10
ATOM      9  O   LIG    1       -2.864   0.283   2.430  0.00  0.00    -0.450 OA
ATOM     10  C   LIG    1       -3.244   1.019   1.551  0.00  0.00    +0.470 C 
ENDBRANCH   1  10
TORSDOF 1
