REMARK  Name = ZINCvU00000009Qx.0
REMARK                            x       y       z     vdW  Elec       q    Type
REMARK                         _______ _______ _______ _____ _____    ______ ____
ROOT
ATOM      1  C   LIG    1       -0.054   3.855   0.030  0.00  0.00    +0.100 A 
ATOM      2  C   LIG    1       -1.246   3.155   0.037  0.00  0.00    +0.010 A 
ATOM      3  C   LIG    1       -1.231   1.758   0.021  0.00  0.00    -0.080 A 
ATOM      4  C   LIG    1       -0.012   1.075   0.009  0.00  0.00    +0.100 A 
ATOM      5  C   LIG    1        1.173   1.781   0.002  0.00  0.00    -0.030 A 
ATOM      6  C   LIG    1        1.158   3.168   0.013  0.00  0.00    +0.140 A 
ENDROOT
BRANCH   1   8
ATOM      7  C   LIG    1       -1.343   5.854   0.059  0.00  0.00    +0.240 C 
ATOM      8  O   LIG    1       -0.065   5.215   0.042  0.00  0.00    -0.300 OA
ENDBRANCH   1   8
BRANCH   3   9
ATOM      9  C   LIG    1       -2.499   1.006   0.022  0.00  0.00    +0.290 C 
ATOM     10  N   LIG    1       -2.484  -0.293   0.012  0.00  0.00    -0.210 NA
BRANCH  10  11
ATOM     11  N   LIG    1       -3.683  -1.008   0.120  0.00  0.00    -0.320 N 
ATOM     12  C   LIG    1       -4.952  -0.461   0.141  0.00  0.00    +0.160 A 
ATOM     13  C   LIG    1       -5.832  -1.472   0.254  0.00  0.00    +0.090 A 
ATOM     14  N   LIG    1       -5.105  -2.659   0.303  0.00  0.00    -0.560 N 
ATOM     15  H   LIG    1       -5.474  -3.552   0.383  0.00  0.00    +0.450 HD
ATOM     16  C   LIG    1       -3.797  -2.347   0.214  0.00  0.00    +0.500 A 
ATOM     17  S   LIG    1       -2.499  -3.463   0.223  0.00  0.00    -0.570 S 
BRANCH  13  18
ATOM     18  C   LIG    1       -7.305  -1.346   0.315  0.00  0.00    -0.030 A 
ATOM     19  C   LIG    1       -7.903  -0.086   0.261  0.00  0.00    +0.030 A 
ATOM     20  C   LIG    1       -9.277   0.025   0.313  0.00  0.00    +0.020 A 
ATOM     21  C   LIG    1      -10.062  -1.109   0.430  0.00  0.00    +0.020 A 
ATOM     22  C   LIG    1       -9.474  -2.361   0.490  0.00  0.00    +0.020 A 
ATOM     23  C   LIG    1       -8.101  -2.485   0.433  0.00  0.00    +0.010 A 
ENDBRANCH  13  18
ENDBRANCH  10  11
ENDBRANCH   3   9
BRANCH   6  24
ATOM     24  O   LIG    1        2.329   3.858   0.006  0.00  0.00    -0.290 OA
BRANCH  24  25
ATOM     25  C   LIG    1        3.534   3.091  -0.011  0.00  0.00    +0.260 C 
BRANCH  25  26
ATOM     26  C   LIG    1        4.721   4.020  -0.016  0.00  0.00    -0.110 A 
ATOM     27  C   LIG    1        5.256   4.450  -1.215  0.00  0.00    +0.080 A 
ATOM     28  C   LIG    1        6.341   5.307  -1.221  0.00  0.00    -0.020 A 
ATOM     29  C   LIG    1        6.899   5.725  -0.024  0.00  0.00    +0.110 A 
ATOM     30  C   LIG    1        6.365   5.289   1.177  0.00  0.00    -0.020 A 
ATOM     31  F   LIG    1        7.963   6.557  -0.029  0.00  0.00    -0.140 F 
ATOM     32  C   LIG    1        5.276   4.437   1.180  0.00  0.00    +0.080 A 
ENDBRANCH  25  26
ENDBRANCH  24  25
ENDBRANCH   6  24
TORSDOF 7
