REMARK  Name = ZINCkj000005jREx.0
REMARK                            x       y       z     vdW  Elec       q    Type
REMARK                         _______ _______ _______ _____ _____    ______ ____
ROOT
ATOM      1  N   LIG    1        4.200   2.224  -1.393  0.00  0.00    -0.490 N 
ATOM      2  H   LIG    1        3.496   2.615  -2.001  0.00  0.00    +0.440 HD
ATOM      3  H   LIG    1        4.438   1.295  -1.707  0.00  0.00    +0.430 HD
ENDROOT
BRANCH   1  12
ATOM      4  C   LIG    1        7.036   1.184  -1.307  0.00  0.00    +0.060 C 
ATOM      5  C   LIG    1        6.503   2.423  -0.585  0.00  0.00    -0.020 C 
ATOM      6  C   LIG    1        7.634   3.442  -0.401  0.00  0.00    +0.070 C 
ATOM      7  C   LIG    1        7.127   4.585   0.478  0.00  0.00    +0.280 C 
ATOM      8  N   LIG    1        5.861   5.097  -0.032  0.00  0.00    -0.690 N 
ATOM      9  H   LIG    1        5.580   5.981   0.253  0.00  0.00    +0.420 HD
ATOM     10  C   LIG    1        5.064   4.427  -0.865  0.00  0.00    +0.510 C 
ATOM     11  O   LIG    1        4.014   4.938  -1.191  0.00  0.00    -0.530 OA
ATOM     12  C   LIG    1        5.398   3.073  -1.422  0.00  0.00    +0.180 C 
ENDBRANCH   1  12
BRANCH   1  13
ATOM     13  C   LIG    1        3.680   2.158  -0.021  0.00  0.00    +0.310 C 
BRANCH  13  14
ATOM     14  C   LIG    1        2.379   1.399  -0.012  0.00  0.00    -0.160 A 
ATOM     15  C   LIG    1        1.182   2.086   0.023  0.00  0.00    +0.060 A 
ATOM     16  C   LIG    1       -0.013   1.390   0.030  0.00  0.00    +0.030 A 
ATOM     17  C   LIG    1       -0.004   0.009   0.005  0.00  0.00    +0.070 A 
ATOM     18  C   LIG    1        1.197  -0.682  -0.028  0.00  0.00    -0.110 A 
ATOM     19  C   LIG    1        1.165  -2.188  -0.042  0.00  0.00    +0.290 C 
ATOM     20  O   LIG    1        2.433  -2.706  -0.442  0.00  0.00    -0.370 OA
ATOM     21  C   LIG    1        3.525  -2.167   0.312  0.00  0.00    +0.240 C 
ATOM     22  C   LIG    1        3.713  -0.703  -0.088  0.00  0.00    +0.040 C 
ATOM     23  C   LIG    1        2.388   0.013  -0.040  0.00  0.00    -0.060 A 
ENDBRANCH  13  14
ENDBRANCH   1  13
TORSDOF 3
