REMARK  Name = ZINCpk00000KfKOK.0
REMARK                            x       y       z     vdW  Elec       q    Type
REMARK                         _______ _______ _______ _____ _____    ______ ____
ROOT
ATOM      1  C   LIG    1        1.264  -0.443   0.026  0.00  0.00    +0.240 A 
ATOM      2  N   LIG    1        2.023   0.625   0.171  0.00  0.00    -0.430 NA
ATOM      3  C   LIG    1        1.209   1.679  -0.045  0.00  0.00    +0.150 A 
ATOM      4  N   LIG    1        0.018   1.206  -0.305  0.00  0.00    -0.340 NA
ATOM      5  O   LIG    1        0.029  -0.006  -0.269  0.00  0.00    +0.100 OA
ENDROOT
BRANCH   3   6
ATOM      6  C   LIG    1        1.594   3.113   0.004  0.00  0.00    +0.610 C 
ATOM      7  N   LIG    1        0.647   4.068  -0.084  0.00  0.00    -0.590 N 
ATOM      8  C   LIG    1       -0.778   3.712  -0.079  0.00  0.00    +0.280 C 
ATOM      9  C   LIG    1       -1.479   4.518   1.025  0.00  0.00    +0.030 C 
ATOM     10  C   LIG    1       -1.205   6.008   0.814  0.00  0.00    +0.020 C 
ATOM     11  C   LIG    1        0.300   6.270   0.909  0.00  0.00    +0.220 C 
ATOM     12  C   LIG    1        1.022   5.485  -0.191  0.00  0.00    +0.280 C 
ATOM     13  O   LIG    1        2.762   3.424   0.122  0.00  0.00    -0.490 OA
BRANCH  11  14
ATOM     14  N   LIG    1        0.560   7.702   0.739  0.00  0.00    -0.730 N 
ATOM     15  H   LIG    1       -0.071   8.255   0.252  0.00  0.00    +0.400 HD
ATOM     16  C   LIG    1        1.676   8.251   1.258  0.00  0.00    +0.510 C 
ATOM     17  O   LIG    1        2.465   7.559   1.867  0.00  0.00    -0.540 OA
ATOM     18  C   LIG    1        1.943   9.723   1.083  0.00  0.00    +0.110 C 
ENDBRANCH  11  14
ENDBRANCH   3   6
BRANCH   1  23
ATOM     19  C   LIG    1        1.174  -4.201   0.114  0.00  0.00    +0.130 A 
ATOM     20  C   LIG    1        2.494  -4.493   0.425  0.00  0.00    -0.040 A 
ATOM     21  C   LIG    1        3.409  -3.472   0.606  0.00  0.00    +0.060 A 
ATOM     22  C   LIG    1        3.015  -2.156   0.478  0.00  0.00    +0.040 A 
ATOM     23  C   LIG    1        1.689  -1.852   0.164  0.00  0.00    +0.000 A 
ATOM     24  C   LIG    1        0.766  -2.883  -0.013  0.00  0.00    +0.040 A 
BRANCH  19  26
ATOM     25  C   LIG    1        0.766  -6.543   0.086  0.00  0.00    +0.240 C 
ATOM     26  O   LIG    1        0.279  -5.208  -0.063  0.00  0.00    -0.310 OA
ENDBRANCH  19  26
ENDBRANCH   1  23
TORSDOF 4
