REMARK  Name = ZINCrD000000fG7U.0
REMARK                            x       y       z     vdW  Elec       q    Type
REMARK                         _______ _______ _______ _____ _____    ______ ____
ROOT
ATOM      1  C   LIG    1       -0.473   1.407   3.684  0.00  0.00    +0.500 C 
ATOM      2  N   LIG    1       -0.020   1.094   2.454  0.00  0.00    -0.730 N 
ATOM      3  H   LIG    1        0.775   0.547   2.354  0.00  0.00    +0.400 HD
ATOM      4  O   LIG    1       -1.468   2.090   3.808  0.00  0.00    -0.500 OA
ENDROOT
BRANCH   1   5
ATOM      5  C   LIG    1        0.256   0.907   4.905  0.00  0.00    +0.250 C 
BRANCH   5   8
ATOM      6  C   LIG    1       -1.766   2.654   7.647  0.00  0.00    +0.080 C 
ATOM      7  C   LIG    1       -1.393   1.807   6.457  0.00  0.00    +0.520 C 
ATOM      8  N   LIG    1       -0.107   1.731   6.061  0.00  0.00    -0.720 N 
ATOM      9  H   LIG    1        0.578   2.222   6.541  0.00  0.00    +0.400 HD
ATOM     10  O   LIG    1       -2.250   1.193   5.857  0.00  0.00    -0.520 OA
ENDBRANCH   5   8
BRANCH   5  11
ATOM     11  C   LIG    1       -0.135  -0.547   5.173  0.00  0.00    +0.080 C 
BRANCH  11  12
ATOM     12  C   LIG    1        0.684  -1.085   6.318  0.00  0.00    -0.080 A 
ATOM     13  C   LIG    1        1.895  -1.703   6.070  0.00  0.00    +0.000 A 
ATOM     14  C   LIG    1        2.649  -2.192   7.121  0.00  0.00    +0.000 A 
ATOM     15  C   LIG    1        2.187  -2.071   8.418  0.00  0.00    +0.000 A 
ATOM     16  C   LIG    1        0.973  -1.458   8.665  0.00  0.00    +0.000 A 
ATOM     17  C   LIG    1        0.222  -0.964   7.615  0.00  0.00    +0.010 A 
ENDBRANCH  11  12
ENDBRANCH   5  11
ENDBRANCH   1   5
BRANCH   2  18
ATOM     18  C   LIG    1       -0.729   1.579   1.267  0.00  0.00    +0.270 C 
BRANCH  18  19
ATOM     19  C   LIG    1       -0.013   1.086   0.008  0.00  0.00    +0.070 C 
BRANCH  19  20
ATOM     20  C   LIG    1       -0.742   1.585  -1.213  0.00  0.00    -0.090 A 
ATOM     21  C   LIG    1       -1.750   0.825  -1.775  0.00  0.00    +0.010 A 
ATOM     22  C   LIG    1       -2.422   1.285  -2.892  0.00  0.00    +0.010 A 
ATOM     23  C   LIG    1       -2.078   2.501  -3.453  0.00  0.00    -0.070 A 
ATOM     24  C   LIG    1       -1.066   3.259  -2.894  0.00  0.00    +0.010 A 
ATOM     25  C   LIG    1       -0.398   2.801  -1.774  0.00  0.00    +0.010 A 
BRANCH  23  26
ATOM     26  C   LIG    1       -2.806   2.999  -4.675  0.00  0.00    -0.030 C 
ATOM     27  C   LIG    1       -3.479   4.337  -4.357  0.00  0.00    +0.040 C 
ATOM     28  C   LIG    1       -3.870   1.979  -5.087  0.00  0.00    +0.030 C 
ATOM     29  C   LIG    1       -1.810   3.189  -5.820  0.00  0.00    +0.040 C 
ENDBRANCH  23  26
ENDBRANCH  19  20
ENDBRANCH  18  19
ENDBRANCH   2  18
TORSDOF 8
