REMARK  Name = ZINCpe00000gN4Sf.0
REMARK                            x       y       z     vdW  Elec       q    Type
REMARK                         _______ _______ _______ _____ _____    ______ ____
ROOT
ATOM      1  N   LIG    1        5.164   5.298   0.824  0.00  0.00    -1.000 NA
ATOM      2  C   LIG    1        4.508   6.135  -0.192  0.00  0.00    +0.310 C 
ATOM      3  C   LIG    1        2.991   6.041   0.006  0.00  0.00    +0.210 C 
ATOM      4  N   LIG    1        2.587   4.629   0.002  0.00  0.00    -0.460 N 
ATOM      5  C   LIG    1        3.190   3.899   1.125  0.00  0.00    +0.200 C 
ATOM      6  C   LIG    1        4.715   3.905   0.974  0.00  0.00    +0.320 C 
ENDROOT
BRANCH   4   7
ATOM      7  C   LIG    1        1.209   4.507   0.015  0.00  0.00    +0.410 A 
ATOM      8  C   LIG    1        0.598   3.244   0.014  0.00  0.00    -0.220 A 
ATOM      9  C   LIG    1        1.076   1.863   0.002  0.00  0.00    -0.010 A 
ATOM     10  C   LIG    1       -0.013   1.076   0.008  0.00  0.00    +0.230 A 
ATOM     11  N   LIG    1       -1.145   1.849   0.017  0.00  0.00    -0.570 N 
ATOM     12  H   LIG    1       -2.052   1.506   0.019  0.00  0.00    +0.420 HD
ATOM     13  C   LIG    1       -0.807   3.174   0.027  0.00  0.00    +0.330 A 
ATOM     14  N   LIG    1       -1.501   4.311   0.040  0.00  0.00    -0.550 NA
ATOM     15  C   LIG    1       -0.886   5.474   0.040  0.00  0.00    +0.540 A 
ATOM     16  N   LIG    1        0.430   5.585   0.028  0.00  0.00    -0.580 NA
ENDBRANCH   4   7
BRANCH   1  17
ATOM     17  S   LIG    1        6.376   5.907   1.774  0.00  0.00    +2.710 S 
ATOM     18  O   LIG    1        6.936   7.000   1.059  0.00  0.00    -0.940 OA
ATOM     19  O   LIG    1        7.141   4.792   2.213  0.00  0.00    -0.940 OA
BRANCH  17  21
ATOM     20  C   LIG    1        4.776   7.661   3.259  0.00  0.00    +0.170 A 
ATOM     21  C   LIG    1        5.620   6.588   3.212  0.00  0.00    -0.690 A 
ATOM     22  C   LIG    1        5.772   6.137   4.534  0.00  0.00    +0.040 A 
ATOM     23  C   LIG    1        5.020   6.940   5.317  0.00  0.00    +0.230 A 
ATOM     24  O   LIG    1        4.418   7.855   4.545  0.00  0.00    -0.140 OA
BRANCH  20  26
ATOM     25  N   LIG    1        4.001   9.060   1.249  0.00  0.00    -0.310 NA
ATOM     26  C   LIG    1        4.344   8.441   2.138  0.00  0.00    +0.250 C 
ENDBRANCH  20  26
ENDBRANCH  17  21
ENDBRANCH   1  17
TORSDOF 4
