REMARK  Name = ZINCrH000004kNXv.0
REMARK                            x       y       z     vdW  Elec       q    Type
REMARK                         _______ _______ _______ _____ _____    ______ ____
ROOT
ATOM      1  C   LIG    1        2.786  -3.413   4.143  0.00  0.00    +0.570 C 
ATOM      2  N   LIG    1        1.877  -3.235   3.164  0.00  0.00    -0.620 N 
ATOM      3  H   LIG    1        1.308  -3.972   2.891  0.00  0.00    +0.420 HD
ATOM      4  O   LIG    1        3.498  -2.489   4.485  0.00  0.00    -0.480 OA
ENDROOT
BRANCH   2   5
ATOM      5  C   LIG    1        1.753  -1.997   2.547  0.00  0.00    +0.230 A 
ATOM      6  N   LIG    1        0.916  -1.721   1.601  0.00  0.00    -0.500 NA
ATOM      7  C   LIG    1        0.922  -0.487   1.113  0.00  0.00    +0.100 A 
ATOM      8  C   LIG    1        1.831   0.311   1.701  0.00  0.00    -0.270 A 
ATOM      9  C   LIG    1        2.067   1.763   1.357  0.00  0.00    +0.120 C 
ATOM     10  C   LIG    1        1.419   2.055  -0.000  0.00  0.00    +0.030 C 
ATOM     11  C   LIG    1       -0.019   1.526   0.010  0.00  0.00    +0.040 C 
ATOM     12  C   LIG    1        0.002  -0.004   0.002  0.00  0.00    +0.020 C 
ATOM     13  C   LIG    1        0.522  -0.503  -1.348  0.00  0.00    +0.040 C 
ATOM     14  C   LIG    1       -1.412  -0.538   0.239  0.00  0.00    +0.050 C 
ATOM     15  S   LIG    1        2.686  -0.617   2.926  0.00  0.00    +0.240 S 
ENDBRANCH   2   5
BRANCH   1  18
ATOM     16  C   LIG    1        3.974  -6.161   6.426  0.00  0.00    -0.120 A 
ATOM     17  C   LIG    1        3.861  -4.917   5.808  0.00  0.00    +0.230 A 
ATOM     18  C   LIG    1        2.917  -4.730   4.800  0.00  0.00    -0.140 A 
ATOM     19  C   LIG    1        2.099  -5.793   4.408  0.00  0.00    +0.180 A 
ATOM     20  C   LIG    1        2.220  -7.024   5.021  0.00  0.00    -0.060 A 
ATOM     21  C   LIG    1        3.149  -7.215   6.024  0.00  0.00    +0.210 A 
BRANCH  20  22
ATOM     22  N   LIG    1        1.349  -8.145   4.601  0.00  0.00    +0.020 N 
ATOM     23  O   LIG    1        1.453  -9.232   5.139  0.00  0.00    -0.140 OA
ATOM     24  O   LIG    1        0.528  -7.980   3.716  0.00  0.00    -0.140 OA
ENDBRANCH  20  22
BRANCH  16  25
ATOM     25  C   LIG    1        4.968  -6.367   7.500  0.00  0.00    +0.510 C 
ATOM     26  O   LIG    1        5.684  -5.450   7.848  0.00  0.00    -0.480 OA
BRANCH  25  28
ATOM     27  C   LIG    1        6.076  -7.700   9.140  0.00  0.00    +0.290 C 
ATOM     28  O   LIG    1        5.079  -7.571   8.093  0.00  0.00    -0.350 OA
ENDBRANCH  25  28
ENDBRANCH  16  25
ENDBRANCH   1  18
TORSDOF 5
