REMARK  Name = ZINCpe000000ZDgr.0
REMARK                            x       y       z     vdW  Elec       q    Type
REMARK                         _______ _______ _______ _____ _____    ______ ____
ROOT
ATOM      1  C   LIG    1        1.240   1.717  -0.001  0.00  0.00    +0.200 A 
ATOM      2  N   LIG    1       -0.016   1.348   0.009  0.00  0.00    -0.450 NA
ATOM      3  C   LIG    1        0.002  -0.004   0.002  0.00  0.00    +0.200 A 
ATOM      4  N   LIG    1        1.256  -0.373  -0.012  0.00  0.00    -0.360 NA
ATOM      5  O   LIG    1        1.978   0.602  -0.014  0.00  0.00    +0.090 OA
ENDROOT
BRANCH   3   6
ATOM      6  C   LIG    1       -1.180  -0.901   0.008  0.00  0.00    +0.030 A 
ATOM      7  C   LIG    1       -2.466  -0.364   0.029  0.00  0.00    +0.090 A 
ATOM      8  C   LIG    1       -3.562  -1.203   0.028  0.00  0.00    +0.110 A 
ATOM      9  C   LIG    1       -3.385  -2.575   0.019  0.00  0.00    -0.030 A 
ATOM     10  C   LIG    1       -2.112  -3.114   0.005  0.00  0.00    +0.110 A 
ATOM     11  C   LIG    1       -1.009  -2.284  -0.001  0.00  0.00    +0.080 A 
BRANCH   9  12
ATOM     12  N   LIG    1       -4.565  -3.470   0.026  0.00  0.00    +0.020 N 
ATOM     13  O   LIG    1       -5.687  -2.998   0.038  0.00  0.00    -0.150 OA
ATOM     14  O   LIG    1       -4.412  -4.678   0.018  0.00  0.00    -0.150 OA
ENDBRANCH   9  12
ENDBRANCH   3   6
BRANCH   1  15
ATOM     15  C   LIG    1        1.758   3.132   0.002  0.00  0.00    +0.360 C 
BRANCH  15  23
ATOM     16  O   LIG    1        4.614   4.973   5.228  0.00  0.00    -0.580 OA
ATOM     17  C   LIG    1        3.866   5.404   4.371  0.00  0.00    +0.700 C 
ATOM     18  N   LIG    1        3.786   6.705   4.050  0.00  0.00    -0.740 N 
ATOM     19  H   LIG    1        4.351   7.407   4.407  0.00  0.00    +0.430 HD
ATOM     20  C   LIG    1        2.707   6.894   3.067  0.00  0.00    +0.270 C 
ATOM     21  C   LIG    1        2.109   5.488   2.904  0.00  0.00    +0.230 C 
ATOM     22  C   LIG    1        2.172   5.037   1.441  0.00  0.00    +0.210 C 
ATOM     23  N   LIG    1        1.939   3.585   1.387  0.00  0.00    -0.540 NA
ATOM     24  C   LIG    1        3.001   2.824   2.055  0.00  0.00    +0.170 C 
ATOM     25  C   LIG    1        3.023   3.164   3.553  0.00  0.00    +0.340 C 
ATOM     26  N   LIG    1        3.046   4.629   3.662  0.00  0.00    -0.630 N 
ENDBRANCH  15  23
ENDBRANCH   1  15
TORSDOF 4
