REMARK  Name = ZINCqH0000036QVy.0
REMARK                            x       y       z     vdW  Elec       q    Type
REMARK                         _______ _______ _______ _____ _____    ______ ____
ROOT
ATOM      1  C   LIG    1        1.293  -1.016  -3.522  0.00  0.00    +0.070 C 
ATOM      2  C   LIG    1        1.289  -0.214  -2.220  0.00  0.00    +0.030 C 
ATOM      3  C   LIG    1        0.014  -0.513  -1.447  0.00  0.00    +0.030 C 
ATOM      4  C   LIG    1       -0.017  -0.008  -0.029  0.00  0.00    +0.300 C 
ATOM      5  N   LIG    1       -0.031   1.464   0.007  0.00  0.00    -0.570 N 
ATOM      6  C   LIG    1        1.193   2.138   0.038  0.00  0.00    +0.160 A 
ATOM      7  C   LIG    1        1.627   2.715   1.227  0.00  0.00    +0.020 A 
ATOM      8  C   LIG    1        2.861   3.336   1.280  0.00  0.00    +0.040 A 
ATOM      9  C   LIG    1        3.675   3.391   0.164  0.00  0.00    +0.010 A 
ATOM     10  C   LIG    1        3.243   2.840  -1.032  0.00  0.00    +0.080 A 
ATOM     11  C   LIG    1        2.005   2.235  -1.085  0.00  0.00    -0.110 A 
ATOM     12  C   LIG    1       -1.194   2.145   0.004  0.00  0.00    +0.580 C 
ATOM     13  O   LIG    1       -2.248   1.548  -0.103  0.00  0.00    -0.510 OA
ATOM     14  S   LIG    1        1.387   1.557  -2.609  0.00  0.00    -0.150 S 
ENDROOT
BRANCH  12  15
ATOM     15  C   LIG    1       -1.189   3.618   0.132  0.00  0.00    -0.100 A 
ATOM     16  C   LIG    1       -0.166   4.368  -0.451  0.00  0.00    +0.030 A 
ATOM     17  C   LIG    1       -0.167   5.743  -0.336  0.00  0.00    +0.030 A 
ATOM     18  C   LIG    1       -1.173   6.382   0.366  0.00  0.00    +0.000 A 
ATOM     19  C   LIG    1       -2.192   5.644   0.954  0.00  0.00    +0.180 A 
ATOM     20  C   LIG    1       -2.204   4.263   0.839  0.00  0.00    +0.070 A 
BRANCH  19  21
ATOM     21  N   LIG    1       -3.208   6.295   1.663  0.00  0.00    -0.570 N 
ATOM     22  C   LIG    1       -3.377   7.753   1.765  0.00  0.00    +0.260 C 
ATOM     23  C   LIG    1       -4.629   7.919   2.647  0.00  0.00    +0.270 C 
ATOM     24  N   LIG    1       -5.034   6.538   2.948  0.00  0.00    -0.740 N 
ATOM     25  H   LIG    1       -5.797   6.281   3.489  0.00  0.00    +0.440 HD
ATOM     26  C   LIG    1       -4.185   5.690   2.352  0.00  0.00    +0.700 C 
ATOM     27  O   LIG    1       -4.290   4.481   2.432  0.00  0.00    -0.560 OA
ENDBRANCH  19  21
ENDBRANCH  12  15
TORSDOF 2
