REMARK  Name = ZINCpk00000e9T3N.0
REMARK                            x       y       z     vdW  Elec       q    Type
REMARK                         _______ _______ _______ _____ _____    ______ ____
ROOT
ATOM      1  C   LIG    1        2.391   0.104   0.409  0.00  0.00    +0.170 C 
ATOM      2  C   LIG    1        1.278  -0.669  -0.313  0.00  0.00    +0.290 C 
ATOM      3  N   LIG    1        0.001  -0.004  -0.002  0.00  0.00    -0.560 N 
ATOM      4  C   LIG    1       -0.023   1.401  -0.011  0.00  0.00    +0.080 A 
ATOM      5  C   LIG    1       -1.233   2.076  -0.003  0.00  0.00    +0.050 A 
ATOM      6  C   LIG    1       -1.251   3.459  -0.014  0.00  0.00    +0.000 A 
ATOM      7  C   LIG    1       -0.064   4.167  -0.023  0.00  0.00    +0.030 A 
ATOM      8  C   LIG    1        1.147   3.499  -0.027  0.00  0.00    +0.020 A 
ATOM      9  C   LIG    1        1.175   2.112  -0.022  0.00  0.00    +0.090 A 
ATOM     10  C   LIG    1       -1.106  -0.718   0.281  0.00  0.00    +0.520 C 
ATOM     11  O   LIG    1       -2.119  -0.152   0.637  0.00  0.00    -0.480 OA
ATOM     12  O   LIG    1        2.369   1.464  -0.031  0.00  0.00    -0.280 OA
ENDROOT
BRANCH   1  16
ATOM     13  C   LIG    1        5.307  -2.365   0.166  0.00  0.00    +0.290 C 
ATOM     14  N   LIG    1        4.008  -1.767   0.484  0.00  0.00    -0.730 N 
ATOM     15  H   LIG    1        3.349  -2.274   0.985  0.00  0.00    +0.400 HD
ATOM     16  C   LIG    1        3.727  -0.511   0.082  0.00  0.00    +0.520 C 
ATOM     17  O   LIG    1        4.550   0.123  -0.543  0.00  0.00    -0.500 OA
ENDBRANCH   1  16
BRANCH  10  18
ATOM     18  C   LIG    1       -1.087  -2.220   0.156  0.00  0.00    +0.190 C 
BRANCH  18  19
ATOM     19  C   LIG    1       -2.471  -2.762   0.403  0.00  0.00    +0.050 A 
ATOM     20  C   LIG    1       -3.166  -3.552  -0.433  0.00  0.00    +0.140 A 
ATOM     21  N   LIG    1       -4.388  -3.826   0.172  0.00  0.00    -0.420 N 
ATOM     22  C   LIG    1       -5.539  -4.533  -0.090  0.00  0.00    +0.220 A 
ATOM     23  C   LIG    1       -6.510  -4.520   0.806  0.00  0.00    +0.010 A 
ATOM     24  S   LIG    1       -5.919  -3.505   2.134  0.00  0.00    +0.160 S 
ATOM     25  C   LIG    1       -4.364  -3.165   1.361  0.00  0.00    +0.160 A 
ATOM     26  N   LIG    1       -3.220  -2.535   1.491  0.00  0.00    -0.420 NA
ENDBRANCH  18  19
ENDBRANCH  10  18
TORSDOF 3
