REMARK  Name = ZINCvU0000000CJL.0
REMARK                            x       y       z     vdW  Elec       q    Type
REMARK                         _______ _______ _______ _____ _____    ______ ____
ROOT
ATOM      1  C   LIG    1        1.106   1.995   0.002  0.00  0.00    +0.220 A 
ATOM      2  N   LIG    1       -0.015   1.283   0.009  0.00  0.00    -0.290 NA
ATOM      3  N   LIG    1        0.002  -0.004   0.002  0.00  0.00    -0.160 NA
ATOM      4  C   LIG    1        1.157  -0.662  -0.013  0.00  0.00    +0.060 A 
ATOM      5  C   LIG    1        2.360   0.072  -0.020  0.00  0.00    +0.230 A 
ATOM      6  N   LIG    1        2.293   1.401  -0.012  0.00  0.00    -0.450 NA
ENDROOT
BRANCH   5   7
ATOM      7  C   LIG    1        3.669  -0.621  -0.037  0.00  0.00    -0.080 A 
ATOM      8  C   LIG    1        3.835  -1.822   0.651  0.00  0.00    +0.060 A 
ATOM      9  C   LIG    1        5.055  -2.465   0.628  0.00  0.00    +0.000 A 
ATOM     10  C   LIG    1        6.117  -1.914  -0.067  0.00  0.00    +0.040 A 
ATOM     11  C   LIG    1        5.961  -0.720  -0.747  0.00  0.00    +0.000 A 
ATOM     12  C   LIG    1        4.743  -0.070  -0.736  0.00  0.00    +0.070 A 
ENDBRANCH   5   7
BRANCH   4  13
ATOM     13  C   LIG    1        1.179  -2.143  -0.020  0.00  0.00    -0.060 A 
ATOM     14  C   LIG    1        2.167  -2.825  -0.730  0.00  0.00    +0.050 A 
ATOM     15  C   LIG    1        2.185  -4.205  -0.729  0.00  0.00    +0.010 A 
ATOM     16  C   LIG    1        1.220  -4.912  -0.035  0.00  0.00    +0.030 A 
ATOM     17  C   LIG    1        0.234  -4.241   0.667  0.00  0.00    +0.000 A 
ATOM     18  C   LIG    1        0.208  -2.861   0.677  0.00  0.00    +0.050 A 
ENDBRANCH   4  13
BRANCH   1  19
ATOM     19  S   LIG    1        1.016   3.754   0.013  0.00  0.00    +0.100 S 
BRANCH  19  20
ATOM     20  C   LIG    1       -0.780   3.977   0.031  0.00  0.00    +0.080 C 
BRANCH  20  22
ATOM     21  O   LIG    1       -0.207   6.268   0.038  0.00  0.00    -0.450 OA
ATOM     22  C   LIG    1       -1.103   5.449   0.042  0.00  0.00    +0.440 C 
BRANCH  22  23
ATOM     23  C   LIG    1       -2.454   5.878   0.057  0.00  0.00    -0.270 A 
ATOM     24  C   LIG    1       -3.577   5.077   0.057  0.00  0.00    +0.340 A 
ATOM     25  N   LIG    1       -4.681   5.847   0.078  0.00  0.00    -0.570 N 
ATOM     26  H   LIG    1       -5.590   5.508   0.086  0.00  0.00    +0.420 HD
ATOM     27  C   LIG    1       -4.343   7.186   0.082  0.00  0.00    +0.070 A 
ATOM     28  C   LIG    1       -5.096   8.355   0.096  0.00  0.00    +0.000 A 
ATOM     29  C   LIG    1       -4.465   9.580   0.095  0.00  0.00    +0.030 A 
ATOM     30  C   LIG    1       -3.081   9.662   0.083  0.00  0.00    +0.000 A 
ATOM     31  C   LIG    1       -2.317   8.514   0.070  0.00  0.00    +0.060 A 
ATOM     32  C   LIG    1       -2.942   7.271   0.069  0.00  0.00    -0.060 A 
ENDBRANCH  22  23
ENDBRANCH  20  22
ENDBRANCH  19  20
ENDBRANCH   1  19
TORSDOF 6
