REMARK  Name = ZINCtV00000tMkDk.0
REMARK                            x       y       z     vdW  Elec       q    Type
REMARK                         _______ _______ _______ _____ _____    ______ ____
ROOT
ATOM      1  C   LIG    1        2.819   0.821   1.417  0.00  0.00    +0.040 C 
ATOM      2  C   LIG    1        2.422   1.187  -0.015  0.00  0.00    +0.280 C 
ENDROOT
BRANCH   2   3
ATOM      3  C   LIG    1        3.483   2.069  -0.621  0.00  0.00    -0.090 A 
ATOM      4  C   LIG    1        3.509   3.420  -0.323  0.00  0.00    +0.010 A 
ATOM      5  C   LIG    1        4.482   4.231  -0.872  0.00  0.00    +0.030 A 
ATOM      6  C   LIG    1        5.432   3.689  -1.734  0.00  0.00    -0.050 A 
ATOM      7  C   LIG    1        5.398   2.329  -2.034  0.00  0.00    +0.030 A 
ATOM      8  C   LIG    1        4.424   1.526  -1.476  0.00  0.00    +0.030 A 
BRANCH   6   9
ATOM      9  C   LIG    1        6.477   4.558  -2.331  0.00  0.00    -0.050 A 
ATOM     10  C   LIG    1        7.428   4.014  -3.194  0.00  0.00    +0.060 A 
ATOM     11  C   LIG    1        8.402   4.820  -3.751  0.00  0.00    +0.030 A 
ATOM     12  C   LIG    1        8.441   6.168  -3.459  0.00  0.00    +0.070 A 
ATOM     13  C   LIG    1        7.494   6.725  -2.596  0.00  0.00    -0.020 A 
ATOM     14  C   LIG    1        6.506   5.916  -2.035  0.00  0.00    +0.080 A 
BRANCH  13  15
ATOM     15  C   LIG    1        7.534   8.124  -2.293  0.00  0.00    +0.250 C 
ATOM     16  N   LIG    1        7.566   9.234  -2.053  0.00  0.00    -0.410 NA
ENDBRANCH  13  15
ENDBRANCH   6   9
ENDBRANCH   2   3
BRANCH   2  17
ATOM     17  N   LIG    1        1.143   1.902   0.001  0.00  0.00    -0.720 N 
ATOM     18  H   LIG    1        1.130   2.872   0.007  0.00  0.00    +0.400 HD
ATOM     19  C   LIG    1       -0.014   1.213   0.009  0.00  0.00    +0.580 C 
ATOM     20  O   LIG    1        0.002  -0.004   0.002  0.00  0.00    -0.530 OA
BRANCH  19  21
ATOM     21  C   LIG    1       -1.296   1.929   0.019  0.00  0.00    -0.130 A 
ATOM     22  C   LIG    1       -1.385   3.266   0.032  0.00  0.00    -0.020 A 
ATOM     23  S   LIG    1       -2.998   3.803   0.038  0.00  0.00    +0.210 S 
ATOM     24  C   LIG    1       -3.640   2.167   0.032  0.00  0.00    -0.160 A 
ATOM     25  C   LIG    1       -4.962   1.709   0.036  0.00  0.00    -0.000 A 
ATOM     26  C   LIG    1       -5.229   0.359   0.030  0.00  0.00    +0.050 A 
ATOM     27  C   LIG    1       -4.189  -0.558   0.020  0.00  0.00    +0.030 A 
ATOM     28  C   LIG    1       -2.885  -0.128   0.015  0.00  0.00    +0.090 A 
ATOM     29 CL   LIG    1       -6.271   2.849   0.050  0.00  0.00    -0.060 Cl
ATOM     30  C   LIG    1       -2.591   1.248   0.021  0.00  0.00    -0.030 A 
ENDBRANCH  19  21
ENDBRANCH   2  17
TORSDOF 5
