REMARK  Name = ZINCrH000004mQnB.0
REMARK                            x       y       z     vdW  Elec       q    Type
REMARK                         _______ _______ _______ _____ _____    ______ ____
ROOT
ATOM      1  C   LIG    1        1.242   2.094   0.005  0.00  0.00    +0.310 C 
ENDROOT
BRANCH   1   5
ATOM      2  N   LIG    1       -1.156  -0.694   0.009  0.00  0.00    -0.680 N 
ATOM      3  H   LIG    1       -2.000  -0.224   0.095  0.00  0.00    +0.410 HD
ATOM      4  C   LIG    1        0.002  -0.004   0.000  0.00  0.00    +0.710 C 
ATOM      5  N   LIG    1       -0.016   1.344   0.015  0.00  0.00    -0.720 N 
ATOM      6  H   LIG    1       -0.863   1.817   0.029  0.00  0.00    +0.400 HD
ATOM      7  O   LIG    1        1.063  -0.597  -0.022  0.00  0.00    -0.570 OA
BRANCH   2  11
ATOM      8  C   LIG    1       -1.110  -4.850  -0.327  0.00  0.00    +0.110 A 
ATOM      9  C   LIG    1       -0.097  -4.199   0.362  0.00  0.00    +0.000 A 
ATOM     10  C   LIG    1       -0.112  -2.823   0.474  0.00  0.00    +0.070 A 
ATOM     11  C   LIG    1       -1.140  -2.091  -0.104  0.00  0.00    +0.130 A 
ATOM     12  C   LIG    1       -2.156  -2.743  -0.789  0.00  0.00    +0.030 A 
ATOM     13  C   LIG    1       -2.138  -4.119  -0.905  0.00  0.00    -0.060 A 
BRANCH   8  15
ATOM     14  C   LIG    1       -2.170  -6.810  -1.159  0.00  0.00    +0.250 C 
ATOM     15  O   LIG    1       -1.096  -6.205  -0.436  0.00  0.00    -0.320 OA
ENDBRANCH   8  15
ENDBRANCH   2  11
ENDBRANCH   1   5
BRANCH   1  16
ATOM     16  C   LIG    1        1.716   2.260  -1.415  0.00  0.00    +0.450 C 
ATOM     17  O   LIG    1        1.070   1.799  -2.326  0.00  0.00    -0.490 OA
BRANCH  16  18
ATOM     18  O   LIG    1        2.858   2.920  -1.669  0.00  0.00    -0.350 OA
BRANCH  18  19
ATOM     19  C   LIG    1        3.253   3.042  -3.061  0.00  0.00    +0.120 C 
ATOM     20  C   LIG    1        3.442   1.647  -3.661  0.00  0.00    +0.030 C 
ATOM     21  C   LIG    1        4.568   3.818  -3.151  0.00  0.00    +0.080 C 
ATOM     22  C   LIG    1        2.166   3.787  -3.837  0.00  0.00    +0.030 C 
ENDBRANCH  18  19
ENDBRANCH  16  18
ENDBRANCH   1  16
BRANCH   1  23
ATOM     23  C   LIG    1        1.020   3.471   0.633  0.00  0.00    +0.120 C 
BRANCH  23  24
ATOM     24  C   LIG    1        0.665   3.308   2.089  0.00  0.00    -0.090 A 
ATOM     25  C   LIG    1       -0.659   3.184   2.467  0.00  0.00    +0.010 A 
ATOM     26  C   LIG    1       -0.985   3.029   3.802  0.00  0.00    +0.000 A 
ATOM     27  C   LIG    1        0.013   3.010   4.759  0.00  0.00    +0.000 A 
ATOM     28  C   LIG    1        1.336   3.139   4.381  0.00  0.00    +0.000 A 
ATOM     29  C   LIG    1        1.662   3.288   3.046  0.00  0.00    +0.020 A 
ENDBRANCH  23  24
ENDBRANCH   1  23
TORSDOF 8
