REMARK  Name = ZINCAx0000000jNk.0
REMARK                            x       y       z     vdW  Elec       q    Type
REMARK                         _______ _______ _______ _____ _____    ______ ____
ROOT
ATOM      1  C   LIG    1        1.035   3.507  -1.498  0.00  0.00    +0.270 C 
ATOM      2  C   LIG    1        1.382   3.236  -0.018  0.00  0.00    +0.100 C 
ATOM      3  C   LIG    1        1.562   1.695   0.019  0.00  0.00    +0.180 C 
ATOM      4  C   LIG    1        2.203   1.423  -1.365  0.00  0.00    +0.250 C 
ATOM      5  N   LIG    1        1.540   2.369  -2.280  0.00  0.00    -0.600 N 
ATOM      6  C   LIG    1        1.418   2.217  -3.614  0.00  0.00    +0.550 C 
ATOM      7  O   LIG    1        0.782   3.023  -4.260  0.00  0.00    -0.520 OA
ENDROOT
BRANCH   6   8
ATOM      8  C   LIG    1        2.071   1.046  -4.301  0.00  0.00    -0.060 C 
ATOM      9  C   LIG    1        3.537   0.955  -3.873  0.00  0.00    +0.030 C 
ATOM     10  C   LIG    1        4.200  -0.234  -4.571  0.00  0.00    -0.010 C 
ATOM     11  C   LIG    1        3.474  -1.523  -4.182  0.00  0.00    +0.020 C 
ATOM     12  C   LIG    1        2.008  -1.432  -4.611  0.00  0.00    +0.000 C 
ATOM     13  C   LIG    1        1.931  -1.241  -6.127  0.00  0.00    +0.020 C 
ATOM     14  C   LIG    1        2.657   0.049  -6.516  0.00  0.00    -0.020 C 
ATOM     15  C   LIG    1        4.123  -0.042  -6.087  0.00  0.00    +0.010 C 
ATOM     16  C   LIG    1        1.345  -0.243  -3.913  0.00  0.00    +0.040 C 
ATOM     17  C   LIG    1        1.994   1.238  -5.817  0.00  0.00    +0.050 C 
ENDBRANCH   6   8
BRANCH   1  18
ATOM     18  C   LIG    1        1.700   4.779  -1.955  0.00  0.00    +0.460 C 
ATOM     19  O   LIG    1        2.506   4.750  -2.855  0.00  0.00    -0.480 OA
BRANCH  18  20
ATOM     20  O   LIG    1        1.397   5.946  -1.363  0.00  0.00    -0.330 OA
BRANCH  20  21
ATOM     21  C   LIG    1        2.076   7.131  -1.856  0.00  0.00    +0.270 C 
BRANCH  21  23
ATOM     22  N   LIG    1        2.111   9.554  -1.363  0.00  0.00    -0.570 N 
ATOM     23  C   LIG    1        1.612   8.335  -1.078  0.00  0.00    +0.520 C 
ATOM     24  O   LIG    1        0.790   8.207  -0.195  0.00  0.00    -0.490 OA
BRANCH  22  25
ATOM     25  C   LIG    1        1.680  10.674  -0.639  0.00  0.00    +0.100 A 
ATOM     26  C   LIG    1        2.345  11.051   0.519  0.00  0.00    +0.060 A 
ATOM     27  C   LIG    1        1.921  12.159   1.227  0.00  0.00    +0.020 A 
ATOM     28  C   LIG    1        0.829  12.886   0.790  0.00  0.00    +0.060 A 
ATOM     29  C   LIG    1        0.160  12.510  -0.360  0.00  0.00    -0.010 A 
ATOM     30  C   LIG    1        0.582  11.406  -1.077  0.00  0.00    +0.110 A 
ATOM     31  F   LIG    1       -0.072  11.039  -2.201  0.00  0.00    -0.130 F 
ENDBRANCH  22  25
BRANCH  22  32
ATOM     32  C   LIG    1        3.104   9.709  -2.429  0.00  0.00    +0.310 C 
BRANCH  32  33
ATOM     33  C   LIG    1        2.390   9.973  -3.756  0.00  0.00    +0.180 C 
BRANCH  33  35
ATOM     34  N   LIG    1        4.157  10.248  -5.654  0.00  0.00    -0.420 NA
ATOM     35  C   LIG    1        3.387  10.128  -4.827  0.00  0.00    +0.200 C 
ENDBRANCH  33  35
ENDBRANCH  32  33
ENDBRANCH  22  32
ENDBRANCH  21  23
ENDBRANCH  20  21
ENDBRANCH  18  20
ENDBRANCH   1  18
BRANCH   3  36
ATOM     36  O   LIG    1        0.301   1.035   0.139  0.00  0.00    -0.550 OA
ATOM     37  H   LIG    1        0.363   0.070   0.166  0.00  0.00    +0.380 HD
ENDBRANCH   3  36
TORSDOF 10
