REMARK  Name = ZINCrH000004szlG.0
REMARK                            x       y       z     vdW  Elec       q    Type
REMARK                         _______ _______ _______ _____ _____    ______ ____
ROOT
ATOM      1  N   LIG    1       -0.011   0.966   0.007  0.00  0.00    -0.670 N 
ATOM      2  H   LIG    1        0.122   0.012   0.125  0.00  0.00    +0.410 HD
ATOM      3  C   LIG    1        1.050   1.777  -0.176  0.00  0.00    +0.520 C 
ATOM      4  O   LIG    1        0.879   2.953  -0.419  0.00  0.00    -0.510 OA
ENDROOT
BRANCH   1  11
ATOM      5  C   LIG    1       -6.238   5.269   0.828  0.00  0.00    +0.190 C 
ATOM      6  C   LIG    1       -5.025   4.392   0.651  0.00  0.00    +0.090 A 
ATOM      7  N   LIG    1       -5.054   3.219   0.143  0.00  0.00    -0.470 NA
ATOM      8  C   LIG    1       -3.890   2.546   0.046  0.00  0.00    +0.070 A 
ATOM      9  C   LIG    1       -3.637   1.257  -0.465  0.00  0.00    +0.100 A 
ATOM     10  C   LIG    1       -2.373   0.753  -0.474  0.00  0.00    +0.010 A 
ATOM     11  C   LIG    1       -1.306   1.499   0.022  0.00  0.00    +0.160 A 
ATOM     12  C   LIG    1       -1.528   2.764   0.534  0.00  0.00    +0.070 A 
ATOM     13  C   LIG    1       -2.816   3.293   0.543  0.00  0.00    -0.160 A 
ATOM     14  S   LIG    1       -3.442   4.840   1.104  0.00  0.00    +0.110 S 
ENDBRANCH   1  11
BRANCH   3  15
ATOM     15  C   LIG    1        2.448   1.223  -0.077  0.00  0.00    -0.010 C 
ATOM     16  C   LIG    1        2.668   0.638   1.319  0.00  0.00    +0.040 C 
ATOM     17  C   LIG    1        4.077   0.046   1.410  0.00  0.00    +0.030 C 
ATOM     18  C   LIG    1        5.108   1.156   1.181  0.00  0.00    +0.290 C 
ATOM     19  N   LIG    1        4.814   1.820  -0.096  0.00  0.00    -0.990 NA
ATOM     20  C   LIG    1        3.461   2.346  -0.323  0.00  0.00    +0.330 C 
BRANCH  19  21
ATOM     21  S   LIG    1        5.984   1.973  -1.257  0.00  0.00    +2.710 S 
ATOM     22  O   LIG    1        7.232   1.899  -0.581  0.00  0.00    -0.940 OA
ATOM     23  O   LIG    1        5.603   3.076  -2.068  0.00  0.00    -0.940 OA
BRANCH  21  24
ATOM     24  C   LIG    1        5.890   0.544  -2.284  0.00  0.00    -0.800 A 
ATOM     25  C   LIG    1        5.138   0.434  -3.381  0.00  0.00    +0.160 A 
ATOM     26  C   LIG    1        5.227  -0.786  -4.028  0.00  0.00    -0.010 A 
ATOM     27  C   LIG    1        6.050  -1.667  -3.457  0.00  0.00    +0.010 A 
ATOM     28  S   LIG    1        6.778  -0.952  -2.024  0.00  0.00    +0.220 S 
ENDBRANCH  21  24
ENDBRANCH  19  21
ENDBRANCH   3  15
TORSDOF 4
