REMARK  Name = ZINCkj000005lURC.0
REMARK                            x       y       z     vdW  Elec       q    Type
REMARK                         _______ _______ _______ _____ _____    ______ ____
ROOT
ATOM      1  O   LIG    1        2.178   5.989   0.013  0.00  0.00    -0.500 OA
ATOM      2  C   LIG    1        2.963   5.060   0.001  0.00  0.00    +0.600 C 
ATOM      3  N   LIG    1        4.290   5.298  -0.010  0.00  0.00    -0.740 N 
ATOM      4  H   LIG    1        4.916   4.558  -0.019  0.00  0.00    +0.400 HD
ENDROOT
BRANCH   2   5
ATOM      5  C   LIG    1        2.467   3.682  -0.002  0.00  0.00    -0.070 A 
ATOM      6  C   LIG    1        1.128   3.271   0.008  0.00  0.00    -0.070 A 
ATOM      7  C   LIG    1       -0.125   3.897   0.023  0.00  0.00    +0.060 A 
ATOM      8  C   LIG    1       -1.253   3.137   0.029  0.00  0.00    +0.030 A 
ATOM      9  C   LIG    1       -1.195   1.744   0.017  0.00  0.00    +0.040 A 
ATOM     10  C   LIG    1       -0.013   1.076   0.008  0.00  0.00    +0.070 A 
ATOM     11  C   LIG    1        1.195   1.802   0.000  0.00  0.00    +0.050 A 
ATOM     12  N   LIG    1        2.480   1.492  -0.013  0.00  0.00    -0.240 NA
ATOM     13  N   LIG    1        3.216   2.544  -0.014  0.00  0.00    -0.330 N 
ATOM     14  H   LIG    1        4.186   2.530  -0.023  0.00  0.00    +0.440 HD
ENDBRANCH   2   5
BRANCH   3  15
ATOM     15  C   LIG    1        4.786   6.677  -0.007  0.00  0.00    +0.270 C 
ATOM     16  C   LIG    1        4.828   7.209  -1.442  0.00  0.00    +0.250 C 
ATOM     17  N   LIG    1        6.200   7.580  -1.798  0.00  0.00    -0.370 N 
ATOM     18  C   LIG    1        7.082   6.412  -1.738  0.00  0.00    +0.260 C 
ATOM     19  C   LIG    1        7.114   5.854  -0.313  0.00  0.00    +0.060 C 
ATOM     20  C   LIG    1        6.696   8.636  -0.912  0.00  0.00    +0.250 C 
ATOM     21  C   LIG    1        6.718   8.138   0.535  0.00  0.00    +0.090 C 
ATOM     22  H   LIG    1        6.200   7.931  -2.744  0.00  0.00    +0.430 HD
ATOM     23  C   LIG    1        6.205   6.711   0.576  0.00  0.00    +0.020 C 
ENDBRANCH   3  15
TORSDOF 2
