REMARK  Name = ZINCpe000000UVTC.0
REMARK                            x       y       z     vdW  Elec       q    Type
REMARK                         _______ _______ _______ _____ _____    ______ ____
ROOT
ATOM      1  N   LIG    1       -0.698   1.558   1.213  0.00  0.00    -0.700 N 
ATOM      2  H   LIG    1       -1.241   2.362   1.179  0.00  0.00    +0.410 HD
ATOM      3  C   LIG    1       -0.575   0.877   2.369  0.00  0.00    +0.520 C 
ATOM      4  O   LIG    1        0.103  -0.128   2.412  0.00  0.00    -0.530 OA
ENDROOT
BRANCH   3   5
ATOM      5  C   LIG    1       -1.281   1.363   3.609  0.00  0.00    +0.250 C 
ATOM      6  C   LIG    1       -0.791   2.770   3.956  0.00  0.00    +0.060 C 
BRANCH   5   7
ATOM      7  N   LIG    1       -0.991   0.457   4.723  0.00  0.00    -0.710 N 
ATOM      8  H   LIG    1       -0.179  -0.075   4.717  0.00  0.00    +0.410 HD
ATOM      9  C   LIG    1       -1.851   0.361   5.756  0.00  0.00    +0.600 C 
ATOM     10  O   LIG    1       -2.869   1.028   5.764  0.00  0.00    -0.520 OA
BRANCH   9  11
ATOM     11  C   LIG    1       -1.561  -0.545   6.870  0.00  0.00    -0.260 A 
ATOM     12  C   LIG    1       -2.352  -0.728   7.970  0.00  0.00    +0.110 A 
ATOM     13  C   LIG    1       -1.840  -1.640   8.862  0.00  0.00    +0.050 A 
ATOM     14  C   LIG    1       -0.669  -2.186   8.507  0.00  0.00    -0.220 A 
ATOM     15 BR   LIG    1        0.272  -3.465   9.534  0.00  0.00    +0.020 Br
ATOM     16  S   LIG    1       -0.143  -1.576   7.003  0.00  0.00    +0.270 S 
ENDBRANCH   9  11
ENDBRANCH   5   7
ENDBRANCH   3   5
BRANCH   1  17
ATOM     17  C   LIG    1       -0.013   1.086   0.008  0.00  0.00    +0.270 C 
BRANCH  17  21
ATOM     18  C   LIG    1        3.600   1.806  -1.034  0.00  0.00    +0.290 C 
ATOM     19  N   LIG    1        2.226   1.299  -1.023  0.00  0.00    -0.730 N 
ATOM     20  H   LIG    1        1.909   0.741  -1.751  0.00  0.00    +0.400 HD
ATOM     21  C   LIG    1        1.401   1.607  -0.003  0.00  0.00    +0.500 C 
ATOM     22  O   LIG    1        1.797   2.305   0.907  0.00  0.00    -0.530 OA
ENDBRANCH  17  21
BRANCH  17  23
ATOM     23  C   LIG    1       -0.753   1.593  -1.232  0.00  0.00    +0.150 C 
BRANCH  23  24
ATOM     24  C   LIG    1       -2.126   0.973  -1.285  0.00  0.00    -0.000 A 
ATOM     25  C   LIG    1       -3.292   1.641  -1.363  0.00  0.00    +0.130 A 
ATOM     26  N   LIG    1       -4.286   0.700  -1.392  0.00  0.00    -0.570 N 
ATOM     27  H   LIG    1       -5.239   0.871  -1.448  0.00  0.00    +0.420 HD
ATOM     28  C   LIG    1       -3.692  -0.510  -1.321  0.00  0.00    +0.400 A 
ATOM     29  N   LIG    1       -2.400  -0.339  -1.258  0.00  0.00    -0.480 NA
ENDBRANCH  23  24
ENDBRANCH  17  23
ENDBRANCH   1  17
TORSDOF 7
