REMARK  Name = ZINCpe000000UVTC.1
REMARK                            x       y       z     vdW  Elec       q    Type
REMARK                         _______ _______ _______ _____ _____    ______ ____
ROOT
ATOM      1  N   LIG    1        2.239   1.728   1.001  0.00  0.00    -0.700 N 
ATOM      2  H   LIG    1        1.936   1.162   1.728  0.00  0.00    +0.410 HD
ATOM      3  C   LIG    1        1.395   2.047  -0.000  0.00  0.00    +0.530 C 
ATOM      4  O   LIG    1        1.774   2.755  -0.910  0.00  0.00    -0.530 OA
ENDROOT
BRANCH   3   5
ATOM      5  C   LIG    1       -0.019   1.526   0.010  0.00  0.00    +0.250 C 
ATOM      6  C   LIG    1        0.002  -0.004   0.002  0.00  0.00    +0.070 C 
BRANCH   5   7
ATOM      7  N   LIG    1       -0.727   2.011  -1.176  0.00  0.00    -0.710 N 
ATOM      8  H   LIG    1       -0.230   2.253  -1.973  0.00  0.00    +0.410 HD
ATOM      9  C   LIG    1       -2.070   2.122  -1.161  0.00  0.00    +0.600 C 
ATOM     10  O   LIG    1       -2.695   1.818  -0.161  0.00  0.00    -0.520 OA
BRANCH   9  11
ATOM     11  C   LIG    1       -2.779   2.607  -2.348  0.00  0.00    -0.260 A 
ATOM     12  C   LIG    1       -4.133   2.762  -2.455  0.00  0.00    +0.110 A 
ATOM     13  C   LIG    1       -4.531   3.236  -3.682  0.00  0.00    +0.050 A 
ATOM     14  C   LIG    1       -3.538   3.462  -4.553  0.00  0.00    -0.220 A 
ATOM     15 BR   LIG    1       -3.782   4.112  -6.312  0.00  0.00    +0.020 Br
ATOM     16  S   LIG    1       -2.023   3.090  -3.860  0.00  0.00    +0.270 S 
ENDBRANCH   9  11
ENDBRANCH   5   7
ENDBRANCH   3   5
BRANCH   1  17
ATOM     17  C   LIG    1        3.613   2.235   0.990  0.00  0.00    +0.260 C 
BRANCH  17  21
ATOM     18  C   LIG    1        6.633   0.703  -0.795  0.00  0.00    +0.290 C 
ATOM     19  N   LIG    1        5.791   1.591   0.010  0.00  0.00    -0.730 N 
ATOM     20  H   LIG    1        6.178   2.374   0.433  0.00  0.00    +0.400 HD
ATOM     21  C   LIG    1        4.480   1.321   0.162  0.00  0.00    +0.500 C 
ATOM     22  O   LIG    1        3.997   0.343  -0.367  0.00  0.00    -0.520 OA
ENDBRANCH  17  21
BRANCH  17  23
ATOM     23  C   LIG    1        4.149   2.286   2.423  0.00  0.00    +0.140 C 
BRANCH  23  24
ATOM     24  C   LIG    1        3.359   3.292   3.219  0.00  0.00    -0.040 A 
ATOM     25  C   LIG    1        2.192   3.074   3.855  0.00  0.00    +0.160 A 
ATOM     26  N   LIG    1        1.820   4.221   4.444  0.00  0.00    -0.490 NA
ATOM     27  C   LIG    1        2.713   5.140   4.197  0.00  0.00    +0.400 A 
ATOM     28  N   LIG    1        3.693   4.601   3.440  0.00  0.00    -0.570 N 
ATOM     29  H   LIG    1        4.484   5.056   3.113  0.00  0.00    +0.420 HD
ENDBRANCH  23  24
ENDBRANCH  17  23
ENDBRANCH   1  17
TORSDOF 7
