REMARK  Name = ZINCnE000001U9F0.0
REMARK                            x       y       z     vdW  Elec       q    Type
REMARK                         _______ _______ _______ _____ _____    ______ ____
ROOT
ATOM      1  O   LIG    1       -3.726   2.005  -0.514  0.00  0.00    -0.980 OA
ATOM      2  S   LIG    1       -2.741   1.133   0.021  0.00  0.00    +2.710 S 
ATOM      3  O   LIG    1       -2.450  -0.144  -0.532  0.00  0.00    -0.940 OA
ENDROOT
BRANCH   2   4
ATOM      4  C   LIG    1       -1.226   2.032   0.019  0.00  0.00    -0.820 A 
ATOM      5  C   LIG    1       -0.016   1.355   0.009  0.00  0.00    +0.360 A 
ATOM      6  C   LIG    1        1.176   2.066   0.002  0.00  0.00    -0.150 A 
ATOM      7  C   LIG    1        1.158   3.447   0.009  0.00  0.00    +0.100 A 
ATOM      8  C   LIG    1       -0.047   4.125   0.023  0.00  0.00    -0.220 A 
ATOM      9  O   LIG    1        0.002  -0.004   0.002  0.00  0.00    -0.660 OA
ATOM     10  C   LIG    1       -1.241   3.418   0.031  0.00  0.00    +0.230 A 
BRANCH  10  11
ATOM     11  O   LIG    1       -2.425   4.085   0.045  0.00  0.00    -0.300 OA
BRANCH  11  12
ATOM     12  C   LIG    1       -2.366   5.513   0.051  0.00  0.00    +0.600 C 
ATOM     13  F   LIG    1       -1.677   5.946   1.189  0.00  0.00    -0.170 F 
ATOM     14  F   LIG    1       -3.664   6.034   0.066  0.00  0.00    -0.140 F 
ATOM     15  F   LIG    1       -1.698   5.957  -1.095  0.00  0.00    -0.170 F 
ENDBRANCH  11  12
ENDBRANCH  10  11
ENDBRANCH   2   4
BRANCH   2  16
ATOM     16  N   LIG    1       -3.155   0.874   1.603  0.00  0.00    -1.120 NA
ATOM     17  H   LIG    1       -3.180  -0.029   1.957  0.00  0.00    +0.410 HD
BRANCH  16  18
ATOM     18  C   LIG    1       -3.484   2.009   2.470  0.00  0.00    +0.360 C 
BRANCH  18  19
ATOM     19  C   LIG    1       -4.168   1.508   3.715  0.00  0.00    -0.170 A 
ATOM     20  C   LIG    1       -3.550   1.152   4.842  0.00  0.00    +0.030 A 
ATOM     21  C   LIG    1       -4.388   0.726   5.858  0.00  0.00    +0.030 A 
ATOM     22  C   LIG    1       -5.688   0.727   5.552  0.00  0.00    -0.150 A 
ATOM     23 CL   LIG    1       -6.968   0.241   6.620  0.00  0.00    -0.020 Cl
ATOM     24  S   LIG    1       -5.904   1.297   3.903  0.00  0.00    +0.170 S 
ENDBRANCH  18  19
ENDBRANCH  16  18
ENDBRANCH   2  16
TORSDOF 6
