REMARK  Name = ZINCvU0000000Hra.0
REMARK                            x       y       z     vdW  Elec       q    Type
REMARK                         _______ _______ _______ _____ _____    ______ ____
ROOT
ATOM      1  C   LIG    1        6.005  10.145   1.871  0.00  0.00    +0.130 A 
ATOM      2  C   LIG    1        6.838   9.144   2.207  0.00  0.00    -0.110 A 
ATOM      3  S   LIG    1        6.069   7.619   1.773  0.00  0.00    +0.210 S 
ATOM      4  C   LIG    1        4.668   8.497   1.167  0.00  0.00    +0.270 A 
ATOM      5  N   LIG    1        4.861   9.771   1.315  0.00  0.00    -0.490 NA
ENDROOT
BRANCH   1   9
ATOM      6  C   LIG    1        6.981  14.230   2.530  0.00  0.00    -0.090 A 
ATOM      7  C   LIG    1        5.769  13.896   1.952  0.00  0.00    +0.020 A 
ATOM      8  C   LIG    1        5.447  12.572   1.735  0.00  0.00    +0.050 A 
ATOM      9  C   LIG    1        6.345  11.570   2.101  0.00  0.00    -0.020 A 
ATOM     10  C   LIG    1        7.561  11.913   2.690  0.00  0.00    +0.030 A 
ATOM     11  C   LIG    1        7.875  13.241   2.896  0.00  0.00    +0.010 A 
BRANCH   6  12
ATOM     12  C   LIG    1        7.326  15.678   2.764  0.00  0.00    +0.280 C 
ATOM     13  C   LIG    1        7.066  16.035   4.229  0.00  0.00    +0.040 C 
BRANCH  12  16
ATOM     14  C   LIG    1       10.623  17.354   1.774  0.00  0.00    +0.090 C 
ATOM     15  C   LIG    1        9.168  17.127   2.095  0.00  0.00    +0.510 C 
ATOM     16  N   LIG    1        8.740  15.899   2.452  0.00  0.00    -0.730 N 
ATOM     17  H   LIG    1        9.369  15.163   2.502  0.00  0.00    +0.400 HD
ATOM     18  O   LIG    1        8.382  18.048   2.033  0.00  0.00    -0.540 OA
ENDBRANCH  12  16
ENDBRANCH   6  12
ENDBRANCH   1   9
BRANCH   4  19
ATOM     19  N   LIG    1        3.534   7.916   0.612  0.00  0.00    -0.620 N 
ATOM     20  H   LIG    1        2.805   8.476   0.301  0.00  0.00    +0.430 HD
ATOM     21  C   LIG    1        3.448   6.575   0.504  0.00  0.00    +0.520 C 
ATOM     22  O   LIG    1        4.359   5.876   0.893  0.00  0.00    -0.470 OA
BRANCH  21  23
ATOM     23  C   LIG    1        2.218   5.945  -0.098  0.00  0.00    +0.190 C 
ATOM     24  C   LIG    1        2.110   6.345  -1.571  0.00  0.00    +0.080 C 
BRANCH  23  25
ATOM     25  O   LIG    1        2.313   4.523   0.005  0.00  0.00    -0.270 OA
BRANCH  25  26
ATOM     26  C   LIG    1        1.146   3.826   0.011  0.00  0.00    +0.150 A 
ATOM     27  C   LIG    1        1.158   2.455   0.220  0.00  0.00    +0.020 A 
ATOM     28  C   LIG    1       -0.029   1.747   0.226  0.00  0.00    +0.090 A 
ATOM     29  C   LIG    1       -1.229   2.405   0.029  0.00  0.00    -0.070 A 
ATOM     30  C   LIG    1       -1.243   3.774  -0.186  0.00  0.00    +0.010 A 
ATOM     31 CL   LIG    1       -2.750   4.597  -0.440  0.00  0.00    -0.040 Cl
ATOM     32 CL   LIG    1       -2.719   1.515   0.044  0.00  0.00    -0.040 Cl
ATOM     33  C   LIG    1       -0.058   4.485  -0.192  0.00  0.00    -0.050 A 
ENDBRANCH  25  26
ENDBRANCH  23  25
ENDBRANCH  21  23
ENDBRANCH   4  19
TORSDOF 7
