REMARK  Name = ZINCrH00000No4wL.0
REMARK                            x       y       z     vdW  Elec       q    Type
REMARK                         _______ _______ _______ _____ _____    ______ ____
ROOT
ATOM      1  C   LIG    1        4.288   1.021   8.505  0.00  0.00    -0.670 A 
ATOM      2  C   LIG    1        4.572   2.268   7.978  0.00  0.00    +0.120 A 
ATOM      3  C   LIG    1        3.971   2.679   6.806  0.00  0.00    +0.020 A 
ATOM      4  C   LIG    1        3.072   1.830   6.151  0.00  0.00    -0.020 A 
ATOM      5  C   LIG    1        2.787   0.573   6.694  0.00  0.00    +0.010 A 
ATOM      6  C   LIG    1        3.401   0.175   7.863  0.00  0.00    +0.120 A 
ENDROOT
BRANCH   1   7
ATOM      7  S   LIG    1        5.061   0.506  10.002  0.00  0.00    +2.690 S 
ATOM      8  O   LIG    1        6.258   1.264  10.117  0.00  0.00    -0.950 OA
ATOM      9  O   LIG    1        5.039  -0.915   9.998  0.00  0.00    -0.950 OA
BRANCH   7  10
ATOM     10  N   LIG    1        4.083   0.985  11.249  0.00  0.00    -1.000 NA
BRANCH  10  12
ATOM     11  C   LIG    1        3.555  -0.702  12.939  0.00  0.00    +0.010 C 
ATOM     12  C   LIG    1        3.031   0.091  11.740  0.00  0.00    +0.280 C 
ENDBRANCH  10  12
BRANCH  10  13
ATOM     13  C   LIG    1        4.269   2.303  11.862  0.00  0.00    +0.290 C 
ATOM     14  C   LIG    1        3.315   3.307  11.211  0.00  0.00    +0.010 C 
ENDBRANCH  10  13
ENDBRANCH   7  10
ENDBRANCH   1   7
BRANCH   4  15
ATOM     15  C   LIG    1        2.426   2.260   4.901  0.00  0.00    +0.110 C 
ATOM     16  C   LIG    1        1.561   1.440   4.272  0.00  0.00    -0.070 C 
BRANCH  16  17
ATOM     17  C   LIG    1        0.918   1.868   3.028  0.00  0.00    +0.550 C 
ATOM     18  N   LIG    1       -0.021   1.091   2.453  0.00  0.00    -0.580 N 
ATOM     19  O   LIG    1        1.231   2.925   2.514  0.00  0.00    -0.530 OA
BRANCH  18  20
ATOM     20  C   LIG    1       -0.724   1.556   1.255  0.00  0.00    +0.200 C 
ATOM     21  C   LIG    1       -0.098   2.714   0.474  0.00  0.00    +0.040 C 
ATOM     22  C   LIG    1       -1.361   2.946   1.305  0.00  0.00    +0.000 C 
ENDBRANCH  18  20
BRANCH  18  23
ATOM     23  C   LIG    1       -0.340  -0.219   3.026  0.00  0.00    +0.280 C 
BRANCH  23  24
ATOM     24  C   LIG    1       -1.462  -0.067   4.055  0.00  0.00    +0.000 C 
BRANCH  24  25
ATOM     25  C   LIG    1       -1.794  -1.435   4.654  0.00  0.00    -0.020 C 
ATOM     26  C   LIG    1       -2.366  -2.343   3.563  0.00  0.00    +0.030 C 
ATOM     27  C   LIG    1       -2.827  -1.266   5.770  0.00  0.00    +0.020 C 
ENDBRANCH  24  25
ENDBRANCH  23  24
ENDBRANCH  18  23
ENDBRANCH  16  17
ENDBRANCH   4  15
TORSDOF 10
