REMARK  Name = ZINCrD00000lbDiN.0
REMARK                            x       y       z     vdW  Elec       q    Type
REMARK                         _______ _______ _______ _____ _____    ______ ____
ROOT
ATOM      1  C   LIG    1       -0.016   1.344   0.009  0.00  0.00    +0.540 C 
ATOM      2  N   LIG    1        0.138   0.006  -0.053  0.00  0.00    -0.600 N 
ATOM      3  C   LIG    1        1.475  -0.587  -0.191  0.00  0.00    +0.280 C 
ATOM      4  C   LIG    1        1.671  -1.617   0.932  0.00  0.00    +0.030 C 
ATOM      5  C   LIG    1        0.526  -2.632   0.890  0.00  0.00    +0.070 C 
ATOM      6  C   LIG    1       -0.804  -1.912   1.123  0.00  0.00    +0.030 C 
ATOM      7  C   LIG    1       -1.028  -0.886   0.008  0.00  0.00    +0.250 C 
ATOM      8  O   LIG    1        0.958   2.065   0.056  0.00  0.00    -0.520 OA
ENDROOT
BRANCH   5   9
ATOM      9  C   LIG    1        0.733  -3.666   1.967  0.00  0.00    -0.160 A 
ATOM     10  C   LIG    1        0.813  -3.439   3.287  0.00  0.00    +0.240 A 
ATOM     11  N   LIG    1        1.001  -4.619   3.953  0.00  0.00    -0.590 N 
ATOM     12  H   LIG    1        1.087  -4.709   4.915  0.00  0.00    +0.420 HD
ATOM     13  C   LIG    1        1.056  -5.661   3.053  0.00  0.00    +0.090 A 
ATOM     14  C   LIG    1        1.231  -7.034   3.190  0.00  0.00    +0.030 A 
ATOM     15  C   LIG    1        1.242  -7.840   2.073  0.00  0.00    +0.010 A 
ATOM     16  C   LIG    1        1.078  -7.297   0.804  0.00  0.00    +0.070 A 
ATOM     17  C   LIG    1        0.903  -5.939   0.647  0.00  0.00    +0.020 A 
ATOM     18  F   LIG    1        1.091  -8.103  -0.279  0.00  0.00    -0.140 F 
ATOM     19  C   LIG    1        0.890  -5.109   1.770  0.00  0.00    -0.080 A 
ENDBRANCH   5   9
BRANCH   1  20
ATOM     20  C   LIG    1       -1.399   1.942   0.028  0.00  0.00    -0.120 C 
ATOM     21  C   LIG    1       -2.136   1.562   1.333  0.00  0.00    +0.060 C 
ATOM     22  C   LIG    1       -3.585   1.373   0.832  0.00  0.00    +0.270 C 
ATOM     23  N   LIG    1       -3.467   1.027  -0.589  0.00  0.00    -0.730 N 
ATOM     24  H   LIG    1       -4.175   0.624  -1.115  0.00  0.00    +0.420 HD
ATOM     25  C   LIG    1       -2.251   1.341  -1.068  0.00  0.00    +0.530 C 
ATOM     26  O   LIG    1       -1.890   1.169  -2.213  0.00  0.00    -0.510 OA
BRANCH  20  27
ATOM     27  C   LIG    1       -1.325   3.463  -0.121  0.00  0.00    +0.070 C 
BRANCH  27  29
ATOM     28  C   LIG    1       -0.558   5.334  -1.588  0.00  0.00    +0.000 C 
ATOM     29  C   LIG    1       -0.633   3.813  -1.440  0.00  0.00    -0.000 C 
ENDBRANCH  27  29
ENDBRANCH  20  27
ENDBRANCH   1  20
TORSDOF 4
