REMARK  Name = ZINCpe000000UPoK.0
REMARK                            x       y       z     vdW  Elec       q    Type
REMARK                         _______ _______ _______ _____ _____    ______ ____
ROOT
ATOM      1  C   LIG    1       -0.091   5.865  -1.406  0.00  0.00    +0.250 C 
ENDROOT
BRANCH   1   2
ATOM      2  C   LIG    1       -0.111   7.372  -1.401  0.00  0.00    +0.520 C 
ATOM      3  N   LIG    1        0.942   8.057  -0.913  0.00  0.00    -0.620 N 
ATOM      4  C   LIG    1        1.016   9.517  -0.755  0.00  0.00    +0.250 C 
ATOM      5  C   LIG    1        2.412   9.847  -0.186  0.00  0.00    +0.030 C 
ATOM      6  C   LIG    1        3.252   8.609  -0.594  0.00  0.00    +0.040 C 
ATOM      7  C   LIG    1        2.214   7.468  -0.455  0.00  0.00    +0.240 C 
ATOM      8  O   LIG    1       -1.073   7.968  -1.835  0.00  0.00    -0.530 OA
ENDBRANCH   1   2
BRANCH   1  10
ATOM      9  C   LIG    1       -0.470   5.252  -3.734  0.00  0.00    +0.530 C 
ATOM     10  N   LIG    1       -0.954   5.369  -2.481  0.00  0.00    -0.700 N 
ATOM     11  H   LIG    1       -1.874   5.126  -2.292  0.00  0.00    +0.410 HD
ATOM     12  O   LIG    1        0.680   5.556  -3.971  0.00  0.00    -0.530 OA
BRANCH   9  16
ATOM     13  C   LIG    1        0.953   2.604  -6.969  0.00  0.00    +0.290 C 
ATOM     14  N   LIG    1       -0.118   3.145  -6.128  0.00  0.00    -0.620 N 
ATOM     15  C   LIG    1       -0.557   4.545  -6.146  0.00  0.00    +0.300 C 
ATOM     16  C   LIG    1       -1.358   4.742  -4.840  0.00  0.00    +0.000 C 
ATOM     17  C   LIG    1       -1.839   3.302  -4.545  0.00  0.00    +0.080 C 
ATOM     18  C   LIG    1       -0.825   2.422  -5.242  0.00  0.00    +0.520 C 
ATOM     19  O   LIG    1       -0.672   1.238  -5.032  0.00  0.00    -0.530 OA
ENDBRANCH   9  16
ENDBRANCH   1  10
BRANCH   1  20
ATOM     20  C   LIG    1       -0.602   5.343  -0.061  0.00  0.00    +0.100 C 
BRANCH  20  21
ATOM     21  C   LIG    1       -0.459   3.844  -0.018  0.00  0.00    -0.090 A 
ATOM     22  C   LIG    1        0.704   3.274   0.465  0.00  0.00    +0.010 A 
ATOM     23  C   LIG    1        0.835   1.898   0.505  0.00  0.00    +0.010 A 
ATOM     24  C   LIG    1       -0.198   1.093   0.064  0.00  0.00    +0.000 A 
ATOM     25  C   LIG    1       -1.359   1.662  -0.423  0.00  0.00    +0.010 A 
ATOM     26  C   LIG    1       -1.492   3.038  -0.459  0.00  0.00    +0.010 A 
ENDBRANCH  20  21
ENDBRANCH   1  20
TORSDOF 5
