REMARK  Name = ZINCnE000004Rd6R.0
REMARK                            x       y       z     vdW  Elec       q    Type
REMARK                         _______ _______ _______ _____ _____    ______ ____
ROOT
ATOM      1  C   LIG    1        2.149   5.323   1.261  0.00  0.00    +0.030 C 
ATOM      2  C   LIG    1        1.369   5.765   0.021  0.00  0.00    +0.060 C 
ENDROOT
BRANCH   2   3
ATOM      3  C   LIG    1        2.115   5.344  -1.219  0.00  0.00    +0.500 C 
ATOM      4  O   LIG    1        3.245   5.756  -1.419  0.00  0.00    -0.690 OA
ATOM      5  O   LIG    1        1.589   4.591  -2.021  0.00  0.00    -0.670 OA
ENDBRANCH   2   3
BRANCH   2   6
ATOM      6  O   LIG    1        0.076   5.155   0.029  0.00  0.00    -0.290 OA
BRANCH   6   7
ATOM      7  C   LIG    1        0.035   3.798   0.022  0.00  0.00    +0.350 A 
ATOM      8  N   LIG    1        1.163   3.109   0.008  0.00  0.00    -0.470 NA
ATOM      9  C   LIG    1        1.169   1.789   0.001  0.00  0.00    +0.290 A 
ATOM     10  C   LIG    1       -0.013   1.076   0.008  0.00  0.00    -0.070 A 
ATOM     11  C   LIG    1       -1.220   1.761   0.017  0.00  0.00    +0.060 A 
ATOM     12  C   LIG    1       -1.193   3.146   0.029  0.00  0.00    +0.000 A 
ATOM     13  F   LIG    1       -2.344   3.853   0.044  0.00  0.00    -0.130 F 
ENDBRANCH   6   7
ENDBRANCH   2   6
BRANCH   2  14
ATOM     14  C   LIG    1        1.214   7.287   0.031  0.00  0.00    +0.160 C 
BRANCH  14  15
ATOM     15  C   LIG    1        0.578   7.719   1.327  0.00  0.00    -0.160 A 
ATOM     16  C   LIG    1       -0.724   7.949   1.547  0.00  0.00    +0.220 A 
ATOM     17  O   LIG    1       -0.920   8.315   2.825  0.00  0.00    -0.200 OA
ATOM     18  C   LIG    1        0.246   8.351   3.500  0.00  0.00    +0.050 A 
ATOM     19  C   LIG    1        0.582   8.663   4.811  0.00  0.00    +0.020 A 
ATOM     20  C   LIG    1        1.898   8.606   5.217  0.00  0.00    +0.030 A 
ATOM     21  C   LIG    1        2.898   8.239   4.328  0.00  0.00    -0.010 A 
ATOM     22  C   LIG    1        2.587   7.925   3.024  0.00  0.00    +0.070 A 
ATOM     23  C   LIG    1        1.260   7.978   2.601  0.00  0.00    -0.110 A 
ENDBRANCH  14  15
ENDBRANCH   2  14
TORSDOF 5
