REMARK  Name = ZINCkj000005lCL4.0
REMARK                            x       y       z     vdW  Elec       q    Type
REMARK                         _______ _______ _______ _____ _____    ______ ____
ROOT
ATOM      1  O   LIG    1       -1.148   0.320   3.612  0.00  0.00    -0.530 OA
ATOM      2  C   LIG    1       -2.038   1.134   3.738  0.00  0.00    +0.520 C 
ATOM      3  N   LIG    1       -2.442   1.506   4.969  0.00  0.00    -0.720 N 
ATOM      4  H   LIG    1       -3.154   2.158   5.069  0.00  0.00    +0.410 HD
ENDROOT
BRANCH   3   5
ATOM      5  C   LIG    1       -1.806   0.928   6.155  0.00  0.00    +0.300 C 
BRANCH   5   6
ATOM      6  C   LIG    1       -2.445   1.516   7.414  0.00  0.00    +0.200 C 
BRANCH   6   7
ATOM      7  O   LIG    1       -3.814   1.113   7.486  0.00  0.00    -0.310 OA
BRANCH   7   8
ATOM      8  C   LIG    1       -4.532   1.554   8.553  0.00  0.00    +0.140 A 
ATOM      9  C   LIG    1       -3.928   2.352   9.514  0.00  0.00    -0.060 A 
ATOM     10  C   LIG    1       -4.661   2.803  10.595  0.00  0.00    +0.090 A 
ATOM     11  C   LIG    1       -5.992   2.450  10.725  0.00  0.00    -0.130 A 
ATOM     12  C   LIG    1       -6.594   1.649   9.771  0.00  0.00    +0.090 A 
ATOM     13 BR   LIG    1       -6.991   3.064  12.209  0.00  0.00    -0.040 Br
ATOM     14  C   LIG    1       -5.867   1.201   8.685  0.00  0.00    +0.000 A 
ENDBRANCH   7   8
ENDBRANCH   6   7
ENDBRANCH   5   6
ENDBRANCH   3   5
BRANCH   2  15
ATOM     15  C   LIG    1       -2.693   1.729   2.518  0.00  0.00    +0.100 C 
BRANCH  15  16
ATOM     16  C   LIG    1       -2.054   1.141   1.258  0.00  0.00    +0.180 C 
ATOM     17  C   LIG    1       -2.800   1.649   0.022  0.00  0.00    +0.250 C 
ATOM     18  N   LIG    1       -2.148   1.130  -1.188  0.00  0.00    -0.510 N 
ATOM     19  C   LIG    1       -0.755   1.594  -1.231  0.00  0.00    +0.240 C 
ATOM     20  C   LIG    1       -0.013   1.086   0.008  0.00  0.00    +0.260 C 
ATOM     21  H   LIG    1       -2.167   0.121  -1.174  0.00  0.00    +0.430 HD
ATOM     22  H   LIG    1       -2.639   1.464  -2.004  0.00  0.00    +0.440 HD
ATOM     23  O   LIG    1       -0.684   1.548   1.183  0.00  0.00    -0.340 OA
ENDBRANCH  15  16
ENDBRANCH   2  15
TORSDOF 6
