REMARK  Name = ZINCvU0000000FhZ.0
REMARK                            x       y       z     vdW  Elec       q    Type
REMARK                         _______ _______ _______ _____ _____    ______ ____
ROOT
ATOM      1  C   LIG    1        1.120   1.818   0.102  0.00  0.00    +0.180 A 
ATOM      2  C   LIG    1       -0.095   1.151   0.147  0.00  0.00    +0.050 A 
ATOM      3  C   LIG    1       -1.276   1.869   0.188  0.00  0.00    +0.100 A 
ATOM      4  C   LIG    1       -1.250   3.251   0.194  0.00  0.00    -0.180 A 
ATOM      5  C   LIG    1       -0.043   3.924   0.148  0.00  0.00    +0.110 A 
ATOM      6  C   LIG    1        1.147   3.212   0.102  0.00  0.00    +0.110 A 
ENDROOT
BRANCH   1   8
ATOM      7  C   LIG    1        2.328  -0.162  -0.437  0.00  0.00    +0.650 C 
ATOM      8  N   LIG    1        2.318   1.093   0.055  0.00  0.00    -0.650 N 
ATOM      9  H   LIG    1        3.141   1.494   0.376  0.00  0.00    +0.420 HD
ATOM     10  O   LIG    1        1.321  -0.628  -0.934  0.00  0.00    -0.540 OA
BRANCH   7  11
ATOM     11  O   LIG    1        3.452  -0.900  -0.377  0.00  0.00    -0.360 OA
BRANCH  11  13
ATOM     12  C   LIG    1        3.023  -2.171  -2.410  0.00  0.00    +0.040 C 
ATOM     13  C   LIG    1        3.389  -2.243  -0.926  0.00  0.00    +0.140 C 
ATOM     14  C   LIG    1        2.327  -3.051  -0.177  0.00  0.00    +0.040 C 
ATOM     15  C   LIG    1        4.751  -2.922  -0.769  0.00  0.00    +0.090 C 
ENDBRANCH  11  13
ENDBRANCH   7  11
ENDBRANCH   1   8
BRANCH   4  16
ATOM     16  C   LIG    1       -2.541   4.027   0.243  0.00  0.00    +0.510 C 
ATOM     17  F   LIG    1       -2.328   5.245   0.897  0.00  0.00    -0.170 F 
ATOM     18  F   LIG    1       -3.503   3.286   0.939  0.00  0.00    -0.170 F 
ATOM     19  F   LIG    1       -2.991   4.268  -1.059  0.00  0.00    -0.180 F 
ENDBRANCH   4  16
BRANCH   6  20
ATOM     20  N   LIG    1        2.370   3.892   0.056  0.00  0.00    -0.660 N 
ATOM     21  H   LIG    1        3.110   3.525  -0.453  0.00  0.00    +0.410 HD
ATOM     22  C   LIG    1        2.519   5.056   0.718  0.00  0.00    +0.550 C 
ATOM     23  O   LIG    1        1.569   5.560   1.284  0.00  0.00    -0.470 OA
BRANCH  22  24
ATOM     24  C   LIG    1        3.839   5.720   0.756  0.00  0.00    -0.080 A 
ATOM     25  C   LIG    1        4.934   5.141   0.112  0.00  0.00    +0.090 A 
ATOM     26  C   LIG    1        6.162   5.769   0.146  0.00  0.00    +0.110 A 
ATOM     27  C   LIG    1        6.313   6.965   0.827  0.00  0.00    -0.010 A 
ATOM     28  C   LIG    1        5.234   7.542   1.473  0.00  0.00    +0.120 A 
ATOM     29  C   LIG    1        3.998   6.927   1.442  0.00  0.00    +0.010 A 
ATOM     30 CL   LIG    1        2.645   7.652   2.253  0.00  0.00    +0.010 Cl
BRANCH  27  31
ATOM     31  N   LIG    1        7.635   7.629   0.865  0.00  0.00    +0.020 N 
ATOM     32  O   LIG    1        8.587   7.123   0.297  0.00  0.00    -0.140 OA
ATOM     33  O   LIG    1        7.771   8.681   1.463  0.00  0.00    -0.140 OA
ENDBRANCH  27  31
ENDBRANCH  22  24
ENDBRANCH   6  20
TORSDOF 7
