REMARK  Name = ZINCtV000002LftW.0
REMARK                            x       y       z     vdW  Elec       q    Type
REMARK                         _______ _______ _______ _____ _____    ______ ____
ROOT
ATOM      1  C   LIG    1       -2.828   3.687   0.036  0.00  0.00    +0.170 A 
ATOM      2  N   LIG    1       -3.398   2.502   0.033  0.00  0.00    -0.280 NA
ATOM      3  N   LIG    1       -2.503   1.581   0.023  0.00  0.00    -0.240 NA
ATOM      4  C   LIG    1       -1.305   2.118   0.020  0.00  0.00    +0.230 A 
ATOM      5  N   LIG    1       -1.475   3.485   0.034  0.00  0.00    -0.420 N 
ENDROOT
BRANCH   4   6
ATOM      6  C   LIG    1       -0.017   1.393   0.010  0.00  0.00    -0.010 A 
ATOM      7  C   LIG    1        1.186   2.101   0.002  0.00  0.00    +0.030 A 
ATOM      8  C   LIG    1        2.385   1.418  -0.013  0.00  0.00    +0.030 A 
ATOM      9  C   LIG    1        2.397   0.035  -0.021  0.00  0.00    +0.050 A 
ATOM     10  C   LIG    1        1.209  -0.674  -0.013  0.00  0.00    +0.030 A 
ATOM     11  C   LIG    1        0.002  -0.004   0.002  0.00  0.00    -0.000 A 
ATOM     12 CL   LIG    1       -1.488  -0.895   0.011  0.00  0.00    -0.020 Cl
ENDBRANCH   4   6
BRANCH   5  13
ATOM     13  C   LIG    1       -0.471   4.465   0.041  0.00  0.00    +0.060 A 
ATOM     14  C   LIG    1        0.027   4.958  -1.157  0.00  0.00    +0.070 A 
ATOM     15  C   LIG    1        1.013   5.926  -1.147  0.00  0.00    +0.030 A 
ATOM     16  C   LIG    1        1.511   6.397   0.054  0.00  0.00    +0.090 A 
ATOM     17  C   LIG    1        1.020   5.905   1.250  0.00  0.00    +0.010 A 
ATOM     18  C   LIG    1        0.030   4.939   1.247  0.00  0.00    +0.120 A 
ATOM     19  F   LIG    1       -0.448   4.458   2.415  0.00  0.00    -0.120 F 
ENDBRANCH   5  13
BRANCH   1  20
ATOM     20  S   LIG    1       -3.653   5.244   0.051  0.00  0.00    +0.030 S 
BRANCH  20  21
ATOM     21  C   LIG    1       -5.375   4.687   0.056  0.00  0.00    +0.170 C 
BRANCH  21  29
ATOM     22  F   LIG    1       -6.313   5.913  -2.301  0.00  0.00    -0.120 F 
ATOM     23  C   LIG    1       -6.717   6.442  -1.125  0.00  0.00    +0.130 A 
ATOM     24  C   LIG    1       -7.557   7.542  -1.113  0.00  0.00    +0.020 A 
ATOM     25  C   LIG    1       -7.970   8.083   0.092  0.00  0.00    -0.060 A 
ATOM     26  C   LIG    1       -7.543   7.525   1.283  0.00  0.00    +0.050 A 
ATOM     27  C   LIG    1       -6.707   6.423   1.271  0.00  0.00    +0.090 A 
ATOM     28 BR   LIG    1       -9.118   9.585   0.110  0.00  0.00    -0.030 Br
ATOM     29  C   LIG    1       -6.290   5.885   0.069  0.00  0.00    -0.100 A 
ENDBRANCH  21  29
ENDBRANCH  20  21
ENDBRANCH   1  20
TORSDOF 5
