REMARK  Name = ZINCtV00000bJF6o.0
REMARK                            x       y       z     vdW  Elec       q    Type
REMARK                         _______ _______ _______ _____ _____    ______ ____
ROOT
ATOM      1  C   LIG    1        1.245   1.964  -0.014  0.00  0.00    -0.210 A 
ATOM      2  C   LIG    1        1.904   2.354   1.119  0.00  0.00    +0.040 A 
ATOM      3  S   LIG    1        3.328   3.200   0.725  0.00  0.00    +0.300 S 
ATOM      4  C   LIG    1        3.043   3.044  -1.001  0.00  0.00    -0.240 A 
ATOM      5  C   LIG    1        3.952   3.595  -2.083  0.00  0.00    +0.120 C 
ATOM      6  C   LIG    1        3.604   2.915  -3.410  0.00  0.00    +0.020 C 
ATOM      7  C   LIG    1        2.091   2.995  -3.631  0.00  0.00    +0.020 C 
ATOM      8  C   LIG    1        1.389   2.071  -2.633  0.00  0.00    +0.090 C 
ATOM      9  C   LIG    1        1.911   2.371  -1.237  0.00  0.00    -0.050 A 
ENDROOT
BRANCH   1  12
ATOM     10  N   LIG    1       -1.191   1.871   0.018  0.00  0.00    -0.660 N 
ATOM     11  H   LIG    1       -1.205   2.837   0.099  0.00  0.00    +0.410 HD
ATOM     12  C   LIG    1       -0.014   1.213   0.006  0.00  0.00    +0.590 C 
ATOM     13  O   LIG    1        0.003  -0.004   0.006  0.00  0.00    -0.500 OA
BRANCH  10  20
ATOM     14  C   LIG    1       -3.551   3.056   1.078  0.00  0.00    +0.080 C 
ATOM     15  C   LIG    1       -3.566   1.701   0.419  0.00  0.00    -0.120 A 
ATOM     16  C   LIG    1       -4.749   0.996   0.315  0.00  0.00    +0.030 A 
ATOM     17  C   LIG    1       -4.764  -0.247  -0.291  0.00  0.00    -0.010 A 
ATOM     18  C   LIG    1       -3.596  -0.788  -0.795  0.00  0.00    +0.030 A 
ATOM     19  C   LIG    1       -2.410  -0.086  -0.699  0.00  0.00    +0.010 A 
ATOM     20  C   LIG    1       -2.390   1.160  -0.086  0.00  0.00    +0.140 A 
ENDBRANCH  10  20
ENDBRANCH   1  12
BRANCH   2  21
ATOM     21  N   LIG    1        1.474   2.094   2.410  0.00  0.00    -0.630 N 
ATOM     22  H   LIG    1        0.651   1.603   2.557  0.00  0.00    +0.420 HD
ATOM     23  C   LIG    1        2.200   2.523   3.461  0.00  0.00    +0.560 C 
ATOM     24  O   LIG    1        3.232   3.139   3.276  0.00  0.00    -0.490 OA
BRANCH  23  25
ATOM     25  C   LIG    1        1.741   2.246   4.838  0.00  0.00    -0.130 A 
ATOM     26  C   LIG    1        0.554   1.544   5.054  0.00  0.00    +0.050 A 
ATOM     27  C   LIG    1        0.134   1.283   6.342  0.00  0.00    +0.030 A 
ATOM     28  C   LIG    1        0.880   1.726   7.419  0.00  0.00    +0.060 A 
ATOM     29  C   LIG    1        2.056   2.427   7.213  0.00  0.00    -0.040 A 
ATOM     30 CL   LIG    1        2.986   2.977   8.572  0.00  0.00    -0.050 Cl
ATOM     31  C   LIG    1        2.490   2.690   5.929  0.00  0.00    +0.110 A 
ENDBRANCH  23  25
ENDBRANCH   2  21
TORSDOF 4
