REMARK  Name = ZINCrH00000No4Jd.0
REMARK                            x       y       z     vdW  Elec       q    Type
REMARK                         _______ _______ _______ _____ _____    ______ ____
ROOT
ATOM      1  N   LIG    1        5.193   3.339  -1.161  0.00  0.00    -0.360 N 
ATOM      2  C   LIG    1        6.020   4.404  -1.090  0.00  0.00    +0.250 A 
ATOM      3  C   LIG    1        6.196   4.875  -2.357  0.00  0.00    -0.160 A 
ATOM      4  C   LIG    1        5.443   4.059  -3.223  0.00  0.00    +0.230 A 
ATOM      5  N   LIG    1        4.851   3.141  -2.504  0.00  0.00    -0.280 NA
ENDROOT
BRANCH   3   6
ATOM      6  C   LIG    1        7.032   6.039  -2.753  0.00  0.00    -0.130 A 
ATOM      7  C   LIG    1        7.212   6.506  -4.021  0.00  0.00    +0.230 A 
ATOM      8  N   LIG    1        8.040   7.580  -3.946  0.00  0.00    -0.320 N 
ATOM      9  N   LIG    1        8.384   7.770  -2.602  0.00  0.00    -0.290 NA
ATOM     10  C   LIG    1        7.785   6.854  -1.887  0.00  0.00    +0.250 A 
BRANCH   8  11
ATOM     11  C   LIG    1        8.480   8.357  -5.026  0.00  0.00    +0.160 A 
ATOM     12  C   LIG    1        8.065   8.053  -6.316  0.00  0.00    -0.010 A 
ATOM     13  C   LIG    1        8.495   8.825  -7.378  0.00  0.00    +0.040 A 
ATOM     14  C   LIG    1        9.347   9.892  -7.159  0.00  0.00    +0.000 A 
ATOM     15  C   LIG    1        9.766  10.194  -5.876  0.00  0.00    +0.040 A 
ATOM     16  C   LIG    1        9.335   9.429  -4.809  0.00  0.00    +0.020 A 
ENDBRANCH   8  11
ENDBRANCH   3   6
BRANCH   1  17
ATOM     17  C   LIG    1        4.737   2.528  -0.030  0.00  0.00    +0.430 C 
BRANCH  17  23
ATOM     18  C   LIG    1       -2.482   0.947   0.019  0.00  0.00    +0.120 C 
ATOM     19  C   LIG    1       -1.194   1.728   0.017  0.00  0.00    -0.100 A 
ATOM     20  C   LIG    1       -0.013   1.076   0.008  0.00  0.00    +0.210 A 
ATOM     21  N   LIG    1        1.164   1.768   0.000  0.00  0.00    -0.360 N 
ATOM     22  C   LIG    1        2.473   1.369  -0.014  0.00  0.00    +0.110 A 
ATOM     23  C   LIG    1        3.231   2.487  -0.015  0.00  0.00    +0.040 A 
ATOM     24  N   LIG    1        2.423   3.550  -0.002  0.00  0.00    -0.470 NA
ATOM     25  C   LIG    1        1.163   3.139   0.008  0.00  0.00    +0.220 A 
ATOM     26  C   LIG    1       -0.063   3.835   0.023  0.00  0.00    +0.080 A 
ATOM     27  C   LIG    1       -1.228   3.133   0.031  0.00  0.00    +0.040 A 
ENDBRANCH  17  23
ENDBRANCH   1  17
TORSDOF 4
