REMARK  Name = ZINCqH0000006g5g.0
REMARK                            x       y       z     vdW  Elec       q    Type
REMARK                         _______ _______ _______ _____ _____    ______ ____
ROOT
ATOM      1  C   LIG    1       -1.141  -2.109   0.003  0.00  0.00    +0.140 A 
ATOM      2  C   LIG    1       -1.191  -0.744   0.010  0.00  0.00    -0.020 A 
ATOM      3  C   LIG    1        0.002  -0.004   0.002  0.00  0.00    -0.010 A 
ATOM      4  C   LIG    1       -0.017   1.402   0.010  0.00  0.00    +0.020 A 
ATOM      5  C   LIG    1        1.150   2.097   0.002  0.00  0.00    +0.040 A 
ATOM      6  C   LIG    1        2.386   1.430  -0.013  0.00  0.00    -0.040 A 
ATOM      7  C   LIG    1        2.438   0.048  -0.021  0.00  0.00    +0.050 A 
ATOM      8  C   LIG    1        1.244  -0.689  -0.013  0.00  0.00    -0.080 A 
ATOM      9  C   LIG    1        1.259  -2.095  -0.021  0.00  0.00    +0.070 A 
ATOM     10  C   LIG    1        0.085  -2.782  -0.013  0.00  0.00    -0.060 A 
ENDROOT
BRANCH   6  11
ATOM     11  C   LIG    1        3.644   2.213  -0.021  0.00  0.00    -0.140 A 
ATOM     12  C   LIG    1        4.480   2.163  -1.090  0.00  0.00    +0.320 A 
ATOM     13  N   LIG    1        5.644   2.868  -1.135  0.00  0.00    -0.630 N 
ATOM     14  H   LIG    1        6.203   2.795  -1.925  0.00  0.00    +0.420 HD
ATOM     15  C   LIG    1        6.050   3.664  -0.126  0.00  0.00    +0.550 A 
ATOM     16  C   LIG    1        5.216   3.784   1.073  0.00  0.00    -0.210 A 
ATOM     17  C   LIG    1        5.565   4.584   2.158  0.00  0.00    +0.360 A 
ATOM     18  N   LIG    1        4.770   4.648   3.207  0.00  0.00    -0.500 NA
ATOM     19  C   LIG    1        3.633   3.977   3.283  0.00  0.00    +0.290 A 
ATOM     20  C   LIG    1        3.208   3.165   2.266  0.00  0.00    -0.030 A 
ATOM     21  O   LIG    1        7.099   4.276  -0.209  0.00  0.00    -0.520 OA
ATOM     22  C   LIG    1        4.001   3.059   1.123  0.00  0.00    +0.060 A 
ENDBRANCH   6  11
BRANCH   1  23
ATOM     23  O   LIG    1       -2.297  -2.823   0.012  0.00  0.00    -0.310 OA
BRANCH  23  24
ATOM     24  C   LIG    1       -2.180  -4.247   0.004  0.00  0.00    +0.210 C 
BRANCH  24  25
ATOM     25  C   LIG    1       -3.576  -4.873   0.015  0.00  0.00    +0.190 C 
BRANCH  25  27
ATOM     26  C   LIG    1       -5.577  -5.082  -1.288  0.00  0.00    +0.200 C 
ATOM     27  O   LIG    1       -4.257  -4.543  -1.197  0.00  0.00    -0.390 OA
ENDBRANCH  25  27
ENDBRANCH  24  25
ENDBRANCH  23  24
ENDBRANCH   1  23
TORSDOF 5
