REMARK  Name = ZINCvU00000004zM.0
REMARK                            x       y       z     vdW  Elec       q    Type
REMARK                         _______ _______ _______ _____ _____    ______ ____
ROOT
ATOM      1  O   LIG    1        2.886  -6.633  -0.057  0.00  0.00    -0.320 OA
ENDROOT
BRANCH   1   2
ATOM      2  C   LIG    1        3.138  -7.957  -0.066  0.00  0.00    +0.560 C 
ATOM      3  O   LIG    1        2.217  -8.752  -0.061  0.00  0.00    -0.470 OA
BRANCH   2   9
ATOM      4  C   LIG    1        8.666 -10.414  -0.130  0.00  0.00    +0.110 A 
ATOM      5  C   LIG    1        9.045  -9.074  -0.126  0.00  0.00    -0.010 A 
ATOM      6  C   LIG    1        8.097  -8.075  -0.112  0.00  0.00    +0.070 A 
ATOM      7  C   LIG    1        6.745  -8.398  -0.102  0.00  0.00    +0.050 A 
ATOM      8  O   LIG    1        5.621  -7.654  -0.088  0.00  0.00    -0.170 OA
ATOM      9  C   LIG    1        4.524  -8.441  -0.081  0.00  0.00    -0.020 A 
ATOM     10  C   LIG    1        4.897  -9.747  -0.086  0.00  0.00    -0.060 A 
ATOM     11  C   LIG    1        3.988 -10.949  -0.075  0.00  0.00    +0.150 C 
ATOM     12  C   LIG    1        6.359  -9.751  -0.104  0.00  0.00    -0.110 A 
ATOM     13  C   LIG    1        7.329 -10.757  -0.118  0.00  0.00    +0.050 A 
BRANCH   4  14
ATOM     14  O   LIG    1        9.616 -11.387  -0.143  0.00  0.00    -0.310 OA
BRANCH  14  16
ATOM     15  C   LIG    1       11.896 -12.188  -0.169  0.00  0.00    +0.070 C 
ATOM     16  C   LIG    1       10.980 -10.962  -0.154  0.00  0.00    +0.170 C 
ENDBRANCH  14  16
ENDBRANCH   4  14
ENDBRANCH   2   9
ENDBRANCH   1   2
BRANCH   1  17
ATOM     17  C   LIG    1        1.491  -6.227  -0.042  0.00  0.00    +0.270 C 
BRANCH  17  18
ATOM     18  C   LIG    1        1.406  -4.723  -0.034  0.00  0.00    +0.510 C 
ATOM     19  N   LIG    1        0.202  -4.117  -0.020  0.00  0.00    -0.650 N 
ATOM     20  H   LIG    1       -0.609  -4.649  -0.014  0.00  0.00    +0.420 HD
ATOM     21  O   LIG    1        2.420  -4.058  -0.041  0.00  0.00    -0.430 OA
BRANCH  19  22
ATOM     22  C   LIG    1        0.123  -2.724  -0.012  0.00  0.00    +0.410 A 
ATOM     23  N   LIG    1        1.233  -2.004  -0.020  0.00  0.00    -0.460 NA
ATOM     24  C   LIG    1        1.203  -0.685  -0.013  0.00  0.00    +0.390 A 
ATOM     25  C   LIG    1        0.002  -0.004   0.002  0.00  0.00    -0.260 A 
ATOM     26  C   LIG    1       -1.186  -0.722   0.015  0.00  0.00    +0.180 A 
ATOM     27  C   LIG    1       -1.123  -2.105   0.002  0.00  0.00    -0.130 A 
ATOM     28 CL   LIG    1       -2.577  -3.053   0.011  0.00  0.00    -0.030 Cl
BRANCH  25  29
ATOM     29  C   LIG    1       -0.018   1.503   0.010  0.00  0.00    +0.520 C 
ATOM     30  F   LIG    1       -0.673   1.954   1.161  0.00  0.00    -0.170 F 
ATOM     31  F   LIG    1       -0.695   1.966  -1.123  0.00  0.00    -0.170 F 
ATOM     32  F   LIG    1        1.294   1.987   0.000  0.00  0.00    -0.170 F 
ENDBRANCH  25  29
ENDBRANCH  19  22
ENDBRANCH  17  18
ENDBRANCH   1  17
TORSDOF 8
