REMARK  Name = ZINCpe00000VVGmg.0
REMARK                            x       y       z     vdW  Elec       q    Type
REMARK                         _______ _______ _______ _____ _____    ______ ____
ROOT
ATOM      1  C   LIG    1        0.707  -0.490  -1.238  0.00  0.00    +0.520 C 
ATOM      2  N   LIG    1        0.231  -0.164  -2.456  0.00  0.00    -0.730 N 
ATOM      3  H   LIG    1       -0.566   0.383  -2.534  0.00  0.00    +0.400 HD
ATOM      4  O   LIG    1        1.704  -1.174  -1.140  0.00  0.00    -0.510 OA
ENDROOT
BRANCH   1   5
ATOM      5  C   LIG    1        0.002  -0.004   0.002  0.00  0.00    +0.190 C 
ATOM      6  C   LIG    1       -0.019   1.526   0.010  0.00  0.00    +0.030 C 
BRANCH   5  13
ATOM      7  C   LIG    1        2.501  -1.724   5.949  0.00  0.00    +0.200 C 
ATOM      8  C   LIG    1        2.818  -1.114   4.607  0.00  0.00    +0.180 A 
ATOM      9  N   LIG    1        3.997  -0.737   4.183  0.00  0.00    -0.300 NA
ATOM     10  N   LIG    1        3.899  -0.261   2.988  0.00  0.00    -0.280 NA
ATOM     11  C   LIG    1        2.663  -0.316   2.601  0.00  0.00    +0.180 A 
ATOM     12  C   LIG    1        2.053   0.114   1.291  0.00  0.00    +0.330 C 
ATOM     13  N   LIG    1        0.713  -0.491   1.192  0.00  0.00    -0.520 NA
ATOM     14  C   LIG    1       -0.073  -0.248   2.410  0.00  0.00    +0.200 C 
ATOM     15  C   LIG    1        0.498  -1.077   3.569  0.00  0.00    +0.310 C 
ATOM     16  N   LIG    1        1.943  -0.857   3.620  0.00  0.00    -0.470 N 
ENDBRANCH   5  13
ENDBRANCH   1   5
BRANCH   2  17
ATOM     17  C   LIG    1        0.917  -0.637  -3.661  0.00  0.00    +0.330 C 
BRANCH  17  18
ATOM     18  C   LIG    1        0.188  -0.137  -4.882  0.00  0.00    -0.100 A 
ATOM     19  C   LIG    1       -0.820  -0.899  -5.443  0.00  0.00    +0.050 A 
ATOM     20  C   LIG    1       -1.495  -0.443  -6.560  0.00  0.00    +0.040 A 
ATOM     21  C   LIG    1       -1.155   0.775  -7.126  0.00  0.00    +0.040 A 
ATOM     22  O   LIG    1       -1.651   1.438  -8.211  0.00  0.00    -0.310 OA
ATOM     23  C   LIG    1       -0.654   2.421  -8.550  0.00  0.00    +0.430 C 
ATOM     24  O   LIG    1        0.007   2.682  -7.298  0.00  0.00    -0.310 OA
ATOM     25  C   LIG    1       -0.136   1.540  -6.564  0.00  0.00    +0.030 A 
ATOM     26  C   LIG    1        0.533   1.079  -5.442  0.00  0.00    +0.060 A 
ENDBRANCH  17  18
ENDBRANCH   2  17
TORSDOF 4
