REMARK  Name = ZINCqH0000002YUY.0
REMARK                            x       y       z     vdW  Elec       q    Type
REMARK                         _______ _______ _______ _____ _____    ______ ____
ROOT
ATOM      1  C   LIG    1        0.626   1.479   0.304  0.00  0.00    -0.120 A 
ATOM      2  C   LIG    1        1.645   2.115  -0.409  0.00  0.00    +0.140 A 
ATOM      3  C   LIG    1        2.956   1.730  -0.222  0.00  0.00    -0.190 A 
ATOM      4  C   LIG    1        3.264   0.718   0.669  0.00  0.00    +0.160 A 
ATOM      5  C   LIG    1        2.259   0.084   1.379  0.00  0.00    -0.190 A 
ATOM      6  C   LIG    1        0.943   0.459   1.201  0.00  0.00    +0.180 A 
ENDROOT
BRANCH   5   7
ATOM      7  C   LIG    1        2.603  -1.018   2.347  0.00  0.00    +0.510 C 
ATOM      8  F   LIG    1        1.663  -1.038   3.384  0.00  0.00    -0.170 F 
ATOM      9  F   LIG    1        3.877  -0.792   2.877  0.00  0.00    -0.170 F 
ATOM     10  F   LIG    1        2.586  -2.248   1.680  0.00  0.00    -0.170 F 
ENDBRANCH   5   7
BRANCH   3  11
ATOM     11  C   LIG    1        4.057   2.415  -0.991  0.00  0.00    +0.510 C 
ATOM     12  F   LIG    1        4.058   3.780  -0.688  0.00  0.00    -0.170 F 
ATOM     13  F   LIG    1        3.846   2.241  -2.363  0.00  0.00    -0.170 F 
ATOM     14  F   LIG    1        5.290   1.858  -0.635  0.00  0.00    -0.170 F 
ENDBRANCH   3  11
BRANCH   1  16
ATOM     15  N   LIG    1       -1.113   3.188   0.081  0.00  0.00    -0.590 N 
ATOM     16  C   LIG    1       -0.782   1.882   0.104  0.00  0.00    +0.570 C 
ATOM     17  O   LIG    1       -1.642   1.035  -0.039  0.00  0.00    -0.520 OA
BRANCH  15  19
ATOM     18  C   LIG    1        0.239   4.695  -1.292  0.00  0.00    +0.030 C 
ATOM     19  C   LIG    1       -0.064   4.210   0.127  0.00  0.00    +0.270 C 
ENDBRANCH  15  19
BRANCH  15  20
ATOM     20  C   LIG    1       -2.521   3.587   0.010  0.00  0.00    +0.330 C 
BRANCH  20  21
ATOM     21  C   LIG    1       -3.073   3.731   1.405  0.00  0.00    +0.500 C 
ATOM     22  N   LIG    1       -4.359   4.092   1.586  0.00  0.00    -0.730 N 
ATOM     23  H   LIG    1       -4.928   4.260   0.819  0.00  0.00    +0.400 HD
ATOM     24  O   LIG    1       -2.361   3.521   2.364  0.00  0.00    -0.530 OA
BRANCH  22  25
ATOM     25  C   LIG    1       -4.896   4.232   2.942  0.00  0.00    +0.230 C 
ATOM     26  C   LIG    1       -6.412   4.027   2.914  0.00  0.00    +0.030 C 
ATOM     27  C   LIG    1       -4.580   5.631   3.474  0.00  0.00    +0.030 C 
ENDBRANCH  22  25
ENDBRANCH  20  21
ENDBRANCH  15  20
ENDBRANCH   1  16
TORSDOF 7
