REMARK  Name = ZINCpk00000ebjfT.1
REMARK                            x       y       z     vdW  Elec       q    Type
REMARK                         _______ _______ _______ _____ _____    ______ ____
ROOT
ATOM      1  C   LIG    1        1.712   3.267   0.003  0.00  0.00    +0.330 C 
ATOM      2  N   LIG    1        0.677   4.096   0.608  0.00  0.00    -0.720 N 
ATOM      3  H   LIG    1        0.219   3.752   1.391  0.00  0.00    +0.400 HD
ATOM      4  C   LIG    1        0.320   5.297   0.153  0.00  0.00    +0.520 C 
ATOM      5  C   LIG    1        0.911   5.928  -1.075  0.00  0.00    +0.070 C 
ATOM      6  C   LIG    1        2.224   5.230  -1.439  0.00  0.00    +0.070 C 
ATOM      7  O   LIG    1       -0.528   5.914   0.763  0.00  0.00    -0.540 OA
ATOM      8  C   LIG    1        1.980   3.716  -1.434  0.00  0.00    +0.150 C 
ENDROOT
BRANCH   1  14
ATOM      9  C   LIG    1       -1.213   2.242   0.020  0.00  0.00    +0.350 C 
ATOM     10  N   LIG    1       -0.017   1.397   0.010  0.00  0.00    -0.360 N 
ATOM     11  N   LIG    1        0.002  -0.004   0.002  0.00  0.00    -0.280 NA
ATOM     12  C   LIG    1        1.250  -0.396  -0.012  0.00  0.00    +0.240 A 
ATOM     13  C   LIG    1        2.065   0.741  -0.014  0.00  0.00    -0.110 A 
ATOM     14  C   LIG    1        1.261   1.829  -0.000  0.00  0.00    +0.060 A 
ENDBRANCH   1  14
BRANCH   8  15
ATOM     15  N   LIG    1        3.170   3.028  -1.952  0.00  0.00    -0.670 NA
ATOM     16  H   LIG    1        3.266   2.112  -1.540  0.00  0.00    +0.350 HD
BRANCH  15  17
ATOM     17  C   LIG    1        3.134   2.946  -3.418  0.00  0.00    +0.300 C 
BRANCH  17  18
ATOM     18  C   LIG    1        4.368   2.236  -3.912  0.00  0.00    +0.280 A 
ATOM     19  N   LIG    1        5.488   2.818  -4.226  0.00  0.00    -0.470 NA
ATOM     20  C   LIG    1        6.391   1.887  -4.628  0.00  0.00    +0.040 A 
ATOM     21  C   LIG    1        7.716   1.954  -5.065  0.00  0.00    +0.070 A 
ATOM     22  C   LIG    1        8.376   0.811  -5.416  0.00  0.00    +0.000 A 
ATOM     23  C   LIG    1        7.744  -0.422  -5.345  0.00  0.00    +0.030 A 
ATOM     24  C   LIG    1        6.436  -0.512  -4.917  0.00  0.00    +0.010 A 
ATOM     25  C   LIG    1        5.749   0.638  -4.556  0.00  0.00    +0.050 A 
ATOM     26  N   LIG    1        4.471   0.892  -4.099  0.00  0.00    -0.490 N 
ATOM     27  C   LIG    1        3.421  -0.101  -3.860  0.00  0.00    +0.330 C 
ENDBRANCH  17  18
ENDBRANCH  15  17
ENDBRANCH   8  15
TORSDOF 4
