REMARK  Name = ZINCvU0000000CWl.0
REMARK                            x       y       z     vdW  Elec       q    Type
REMARK                         _______ _______ _______ _____ _____    ______ ____
ROOT
ATOM      1  N   LIG    1       -0.011   0.966   0.007  0.00  0.00    -0.630 N 
ATOM      2  H   LIG    1        0.002  -0.004   0.002  0.00  0.00    +0.420 HD
ATOM      3  C   LIG    1        1.147   1.655   0.000  0.00  0.00    +0.530 C 
ATOM      4  O   LIG    1        1.130   2.868   0.007  0.00  0.00    -0.490 OA
ENDROOT
BRANCH   1   6
ATOM      5  C   LIG    1       -2.449   1.040   0.019  0.00  0.00    -0.190 A 
ATOM      6  C   LIG    1       -1.221   1.643   0.017  0.00  0.00    +0.040 A 
ATOM      7  S   LIG    1       -1.382   3.337   0.034  0.00  0.00    +0.310 S 
ATOM      8  C   LIG    1       -3.136   3.255   0.035  0.00  0.00    -0.240 A 
ATOM      9  C   LIG    1       -4.060   4.457   0.046  0.00  0.00    +0.120 C 
ATOM     10  C   LIG    1       -5.459   3.999   0.467  0.00  0.00    -0.010 C 
ATOM     11  C   LIG    1       -6.459   5.136   0.246  0.00  0.00    +0.030 C 
ATOM     12  C   LIG    1       -5.863   2.787  -0.379  0.00  0.00    +0.030 C 
ATOM     13  C   LIG    1       -5.018   1.581   0.036  0.00  0.00    +0.100 C 
ATOM     14  C   LIG    1       -3.552   1.984   0.030  0.00  0.00    -0.040 A 
BRANCH   5  15
ATOM     15  C   LIG    1       -2.632  -0.413   0.013  0.00  0.00    +0.540 C 
ATOM     16  O   LIG    1       -2.703  -1.021   1.064  0.00  0.00    -0.490 OA
BRANCH  15  17
ATOM     17  O   LIG    1       -2.723  -1.076  -1.158  0.00  0.00    -0.350 OA
BRANCH  17  19
ATOM     18  C   LIG    1       -2.985  -3.088  -2.505  0.00  0.00    +0.070 C 
ATOM     19  C   LIG    1       -2.904  -2.515  -1.089  0.00  0.00    +0.200 C 
ENDBRANCH  17  19
ENDBRANCH  15  17
ENDBRANCH   5  15
ENDBRANCH   1   6
BRANCH   3  20
ATOM     20  C   LIG    1        2.462   0.920  -0.017  0.00  0.00    +0.090 C 
BRANCH  20  21
ATOM     21  S   LIG    1        3.822   2.115  -0.023  0.00  0.00    +0.080 S 
BRANCH  21  22
ATOM     22  C   LIG    1        5.197   1.013  -0.042  0.00  0.00    +0.190 A 
ATOM     23  C   LIG    1        6.524   1.516  -0.058  0.00  0.00    -0.150 A 
ATOM     24  C   LIG    1        7.567   0.587  -0.068  0.00  0.00    +0.100 A 
ATOM     25  S   LIG    1        9.109   1.431  -0.078  0.00  0.00    +0.180 S 
ATOM     26  C   LIG    1        8.326   3.000  -0.062  0.00  0.00    -0.170 A 
ATOM     27  C   LIG    1        9.061   4.316  -0.062  0.00  0.00    +0.150 C 
ATOM     28  N   LIG    1        7.275  -0.720  -0.072  0.00  0.00    -0.490 NA
ATOM     29  C   LIG    1        6.030  -1.136  -0.062  0.00  0.00    +0.540 A 
ATOM     30  C   LIG    1        7.012   2.882  -0.050  0.00  0.00    -0.080 A 
ATOM     31  C   LIG    1        6.090   4.074  -0.035  0.00  0.00    +0.140 C 
ATOM     32  N   LIG    1        5.009  -0.299  -0.047  0.00  0.00    -0.530 NA
ENDBRANCH  21  22
ENDBRANCH  20  21
ENDBRANCH   3  20
TORSDOF 7
