REMARK  Name = ZINCpk00001AZijF.0
REMARK                            x       y       z     vdW  Elec       q    Type
REMARK                         _______ _______ _______ _____ _____    ______ ____
ROOT
ATOM      1  N   LIG    1        1.051  -1.147   6.740  0.00  0.00    -0.610 N 
ATOM      2  C   LIG    1       -0.125  -1.151   7.399  0.00  0.00    +0.530 C 
ATOM      3  O   LIG    1       -0.816  -0.155   7.413  0.00  0.00    -0.520 OA
ENDROOT
BRANCH   2   4
ATOM      4  C   LIG    1       -0.581  -2.395   8.118  0.00  0.00    +0.000 C 
ATOM      5  C   LIG    1       -1.003  -3.491   7.114  0.00  0.00    +0.080 C 
ATOM      6  C   LIG    1       -2.495  -3.294   6.955  0.00  0.00    +0.520 C 
ATOM      7  N   LIG    1       -2.969  -2.530   7.953  0.00  0.00    -0.620 N 
ATOM      8  C   LIG    1       -4.373  -2.136   8.098  0.00  0.00    +0.300 C 
ATOM      9  O   LIG    1       -3.165  -3.757   6.056  0.00  0.00    -0.530 OA
ATOM     10  C   LIG    1       -1.900  -2.140   8.880  0.00  0.00    +0.300 C 
ENDBRANCH   2   4
BRANCH   1  11
ATOM     11  C   LIG    1        1.828  -2.383   6.619  0.00  0.00    +0.280 C 
BRANCH  11  12
ATOM     12  C   LIG    1        2.698  -2.563   7.864  0.00  0.00    +0.050 C 
BRANCH  12  14
ATOM     13  C   LIG    1        4.820  -3.802   7.856  0.00  0.00    -0.010 C 
ATOM     14  C   LIG    1        3.497  -3.834   7.740  0.00  0.00    -0.030 C 
BRANCH  13  16
ATOM     15  C   LIG    1        6.923  -5.011   7.851  0.00  0.00    +0.030 C 
ATOM     16  C   LIG    1        5.600  -5.043   7.734  0.00  0.00    -0.030 C 
ENDBRANCH  13  16
ENDBRANCH  12  14
ENDBRANCH  11  12
ENDBRANCH   1  11
BRANCH   1  17
ATOM     17  C   LIG    1        1.552   0.095   6.145  0.00  0.00    +0.370 C 
BRANCH  17  18
ATOM     18  C   LIG    1        1.047   0.213   4.730  0.00  0.00    -0.260 A 
ATOM     19  C   LIG    1       -0.155   0.847   4.458  0.00  0.00    +0.400 A 
ATOM     20  N   LIG    1       -0.570   0.934   3.205  0.00  0.00    -0.520 NA
ATOM     21  C   LIG    1        0.149   0.424   2.218  0.00  0.00    +0.500 A 
ATOM     22  N   LIG    1        1.298  -0.192   2.443  0.00  0.00    -0.570 NA
ATOM     23  C   LIG    1        1.774  -0.309   3.672  0.00  0.00    +0.370 A 
BRANCH  21  24
ATOM     24  O   LIG    1       -0.306   0.530   0.946  0.00  0.00    -0.290 OA
ATOM     25  C   LIG    1        0.508  -0.037  -0.083  0.00  0.00    +0.270 C 
ENDBRANCH  21  24
ENDBRANCH  17  18
ENDBRANCH   1  17
TORSDOF 8
