REMARK  Name = ZINCrm00000VuOyq.2
REMARK                            x       y       z     vdW  Elec       q    Type
REMARK                         _______ _______ _______ _____ _____    ______ ____
ROOT
ATOM      1  C   LIG    1       -4.216  -5.018   4.739  0.00  0.00    +0.280 C 
ATOM      2  C   LIG    1       -4.334  -6.543   4.769  0.00  0.00    +0.290 C 
ATOM      3  N   LIG    1       -5.061  -7.015   3.587  0.00  0.00    -0.380 N 
ATOM      4  C   LIG    1       -5.060  -8.486   3.608  0.00  0.00    +0.260 C 
ATOM      5  C   LIG    1       -5.754  -9.039   2.364  0.00  0.00    +0.060 C 
ATOM      6  C   LIG    1       -7.204  -8.543   2.347  0.00  0.00    +0.040 C 
ATOM      7  C   LIG    1       -7.197  -7.014   2.361  0.00  0.00    +0.070 C 
ATOM      8  C   LIG    1       -6.437  -6.508   3.592  0.00  0.00    +0.170 C 
ATOM      9  C   LIG    1       -6.429  -4.974   3.541  0.00  0.00    +0.330 C 
ATOM     10  H   LIG    1       -4.586  -6.694   2.757  0.00  0.00    +0.420 HD
ATOM     11  N   LIG    1       -5.573  -4.460   4.618  0.00  0.00    -0.610 N 
ATOM     12  C   LIG    1       -6.015  -3.511   5.467  0.00  0.00    +0.660 C 
ATOM     13  O   LIG    1       -5.289  -3.102   6.352  0.00  0.00    -0.540 OA
ENDROOT
BRANCH   1  14
ATOM     14  C   LIG    1       -3.372  -4.588   3.538  0.00  0.00    +0.280 C 
BRANCH  14  16
ATOM     15  C   LIG    1       -2.711  -2.518   2.434  0.00  0.00    +0.540 C 
ATOM     16  N   LIG    1       -3.391  -3.127   3.426  0.00  0.00    -0.720 N 
ATOM     17  H   LIG    1       -3.893  -2.598   4.065  0.00  0.00    +0.410 HD
ATOM     18  O   LIG    1       -2.081  -3.182   1.633  0.00  0.00    -0.520 OA
BRANCH  15  20
ATOM     19  C   LIG    1       -2.059  -0.451   1.343  0.00  0.00    +0.010 C 
ATOM     20  C   LIG    1       -2.730  -1.052   2.321  0.00  0.00    +0.000 C 
BRANCH  19  21
ATOM     21  C   LIG    1       -2.078   1.051   1.227  0.00  0.00    +0.310 C 
BRANCH  21  23
ATOM     22  C   LIG    1       -0.013   1.086   0.008  0.00  0.00    +0.330 C 
ATOM     23  N   LIG    1       -0.700   1.560   1.217  0.00  0.00    -0.390 N 
ATOM     24  C   LIG    1       -0.720   3.028   1.225  0.00  0.00    +0.340 C 
ATOM     25  H   LIG    1       -0.212   1.225   2.034  0.00  0.00    +0.430 HD
ENDBRANCH  21  23
ENDBRANCH  19  21
ENDBRANCH  15  20
ENDBRANCH  14  16
ENDBRANCH   1  14
BRANCH  12  26
ATOM     26  O   LIG    1       -7.261  -3.017   5.336  0.00  0.00    -0.360 OA
BRANCH  26  27
ATOM     27  C   LIG    1       -7.669  -1.998   6.285  0.00  0.00    +0.140 C 
ATOM     28  C   LIG    1       -7.600  -2.565   7.704  0.00  0.00    +0.030 C 
ATOM     29  C   LIG    1       -9.104  -1.561   5.980  0.00  0.00    +0.080 C 
ATOM     30  C   LIG    1       -6.734  -0.791   6.172  0.00  0.00    +0.040 C 
ENDBRANCH  26  27
ENDBRANCH  12  26
TORSDOF 7
