REMARK  Name = ZINCrm00000VuOyq.1
REMARK                            x       y       z     vdW  Elec       q    Type
REMARK                         _______ _______ _______ _____ _____    ______ ____
ROOT
ATOM      1  C   LIG    1        1.149   3.499  -0.102  0.00  0.00    +0.250 C 
ATOM      2  C   LIG    1        2.123   3.958  -1.192  0.00  0.00    +0.250 C 
ATOM      3  N   LIG    1        3.446   3.368  -0.944  0.00  0.00    -0.380 N 
ATOM      4  C   LIG    1        4.403   3.894  -1.927  0.00  0.00    +0.260 C 
ATOM      5  C   LIG    1        3.893   3.605  -3.341  0.00  0.00    +0.050 C 
ATOM      6  C   LIG    1        3.748   2.092  -3.528  0.00  0.00    +0.050 C 
ATOM      7  C   LIG    1        2.815   1.540  -2.446  0.00  0.00    +0.060 C 
ATOM      8  C   LIG    1        3.372   1.907  -1.069  0.00  0.00    +0.170 C 
ATOM      9  C   LIG    1        2.454   1.345   0.028  0.00  0.00    +0.340 C 
ATOM     10  H   LIG    1        3.753   3.610  -0.014  0.00  0.00    +0.430 HD
ATOM     11  N   LIG    1        1.155   2.029  -0.061  0.00  0.00    -0.610 N 
ATOM     12  C   LIG    1        0.004   1.329  -0.097  0.00  0.00    +0.660 C 
ATOM     13  O   LIG    1       -1.062   1.911  -0.070  0.00  0.00    -0.540 OA
ENDROOT
BRANCH   1  14
ATOM     14  C   LIG    1       -0.261   3.998  -0.425  0.00  0.00    +0.340 C 
BRANCH  14  16
ATOM     15  C   LIG    1       -1.406   6.131  -0.707  0.00  0.00    +0.540 C 
ATOM     16  N   LIG    1       -0.251   5.460  -0.526  0.00  0.00    -0.730 N 
ATOM     17  H   LIG    1        0.587   5.944  -0.463  0.00  0.00    +0.390 HD
ATOM     18  O   LIG    1       -2.456   5.524  -0.786  0.00  0.00    -0.510 OA
BRANCH  15  20
ATOM     19  C   LIG    1       -2.534   8.261  -0.986  0.00  0.00    +0.010 C 
ATOM     20  C   LIG    1       -1.395   7.599  -0.808  0.00  0.00    +0.000 C 
BRANCH  19  21
ATOM     21  C   LIG    1       -2.524   9.764  -1.090  0.00  0.00    +0.310 C 
BRANCH  21  23
ATOM     22  C   LIG    1       -4.598   9.798  -2.293  0.00  0.00    +0.320 C 
ATOM     23  N   LIG    1       -3.179  10.174  -2.339  0.00  0.00    -0.390 N 
ATOM     24  C   LIG    1       -3.063  11.630  -2.498  0.00  0.00    +0.330 C 
ATOM     25  H   LIG    1       -2.734   9.714  -3.119  0.00  0.00    +0.430 HD
ENDBRANCH  21  23
ENDBRANCH  19  21
ENDBRANCH  15  20
ENDBRANCH  14  16
ENDBRANCH   1  14
BRANCH  12  26
ATOM     26  O   LIG    1        0.035  -0.015  -0.168  0.00  0.00    -0.360 OA
BRANCH  26  27
ATOM     27  C   LIG    1       -1.243  -0.703  -0.203  0.00  0.00    +0.140 C 
ATOM     28  C   LIG    1       -2.033  -0.377   1.066  0.00  0.00    +0.030 C 
ATOM     29  C   LIG    1       -1.008  -2.213  -0.284  0.00  0.00    +0.080 C 
ATOM     30  C   LIG    1       -2.036  -0.245  -1.429  0.00  0.00    +0.030 C 
ENDBRANCH  26  27
ENDBRANCH  12  26
TORSDOF 7
