REMARK  Name = ZINCpk00000eb3Lo.0
REMARK                            x       y       z     vdW  Elec       q    Type
REMARK                         _______ _______ _______ _____ _____    ______ ____
ROOT
ATOM      1  N   LIG    1       -1.117   1.980   0.018  0.00  0.00    -0.530 N 
ATOM      2  C   LIG    1       -0.797   3.286   0.027  0.00  0.00    +0.570 C 
ATOM      3  C   LIG    1        0.678   3.409   0.014  0.00  0.00    -0.100 A 
ATOM      4  C   LIG    1        1.557   4.481   0.011  0.00  0.00    +0.110 A 
ATOM      5  C   LIG    1        2.923   4.254  -0.003  0.00  0.00    +0.130 A 
ATOM      6  C   LIG    1        3.420   2.951  -0.015  0.00  0.00    -0.100 A 
ATOM      7  C   LIG    1        2.540   1.863  -0.013  0.00  0.00    +0.180 A 
ATOM      8  C   LIG    1        1.174   2.089   0.002  0.00  0.00    -0.150 A 
ATOM      9  O   LIG    1       -1.585   4.210   0.040  0.00  0.00    -0.440 OA
ATOM     10  C   LIG    1       -0.014   1.210   0.009  0.00  0.00    +0.580 C 
ATOM     11  O   LIG    1        0.002  -0.004   0.002  0.00  0.00    -0.440 OA
ENDROOT
BRANCH   1  18
ATOM     12  C   LIG    1       -2.392   1.531  -2.488  0.00  0.00    +0.100 C 
ATOM     13  C   LIG    1       -3.087   1.252  -1.180  0.00  0.00    -0.060 A 
ATOM     14  C   LIG    1       -4.377   0.759  -1.174  0.00  0.00    +0.020 A 
ATOM     15  C   LIG    1       -5.018   0.509   0.026  0.00  0.00    +0.030 A 
ATOM     16  C   LIG    1       -4.367   0.747   1.222  0.00  0.00    +0.010 A 
ATOM     17  C   LIG    1       -3.075   1.234   1.223  0.00  0.00    +0.040 A 
ATOM     18  C   LIG    1       -2.429   1.486   0.020  0.00  0.00    +0.110 A 
ENDBRANCH   1  18
BRANCH   6  19
ATOM     19  C   LIG    1        4.880   2.718  -0.030  0.00  0.00    +0.510 C 
ATOM     20  O   LIG    1        5.314   1.583  -0.040  0.00  0.00    -0.490 OA
BRANCH  19  21
ATOM     21  O   LIG    1        5.729   3.764  -0.032  0.00  0.00    -0.330 OA
BRANCH  21  22
ATOM     22  C   LIG    1        7.149   3.460  -0.048  0.00  0.00    +0.270 C 
BRANCH  22  23
ATOM     23  C   LIG    1        7.937   4.745  -0.048  0.00  0.00    +0.520 C 
ATOM     24  O   LIG    1        7.359   5.811  -0.037  0.00  0.00    -0.520 OA
ATOM     25  N   LIG    1        9.284   4.708  -0.061  0.00  0.00    -0.850 N 
ATOM     26  H   LIG    1        9.791   5.535  -0.062  0.00  0.00    +0.410 HD
ATOM     27  H   LIG    1        9.746   3.856  -0.070  0.00  0.00    +0.410 HD
ENDBRANCH  22  23
ENDBRANCH  21  22
ENDBRANCH  19  21
ENDBRANCH   6  19
TORSDOF 5
