REMARK  Name = ZINCvU0000000JUz.0
REMARK                            x       y       z     vdW  Elec       q    Type
REMARK                         _______ _______ _______ _____ _____    ______ ____
ROOT
ATOM      1  C   LIG    1        3.543  -7.767   0.287  0.00  0.00    -0.690 A 
ATOM      2  C   LIG    1        4.839  -8.229   0.434  0.00  0.00    +0.190 A 
ATOM      3  C   LIG    1        5.879  -7.340   0.634  0.00  0.00    +0.020 A 
ATOM      4  C   LIG    1        5.630  -5.982   0.690  0.00  0.00    +0.070 A 
ATOM      5  C   LIG    1        4.323  -5.509   0.542  0.00  0.00    -0.140 A 
ATOM      6 CL   LIG    1        6.936  -4.867   0.943  0.00  0.00    -0.010 Cl
ATOM      7  C   LIG    1        3.278  -6.414   0.345  0.00  0.00    +0.220 A 
ENDROOT
BRANCH   1   8
ATOM      8  S   LIG    1        2.226  -8.909   0.032  0.00  0.00    +2.690 S 
ATOM      9  O   LIG    1        2.813 -10.082  -0.515  0.00  0.00    -0.930 OA
ATOM     10  O   LIG    1        1.187  -8.187  -0.614  0.00  0.00    -0.930 OA
BRANCH   8  12
ATOM     11  C   LIG    1        0.651  -8.484   2.189  0.00  0.00    +0.320 C 
ATOM     12  N   LIG    1        1.646  -9.330   1.525  0.00  0.00    -0.950 N 
BRANCH  12  13
ATOM     13  C   LIG    1        2.105 -10.492   2.152  0.00  0.00    +0.120 A 
ATOM     14  C   LIG    1        1.920 -11.728   1.547  0.00  0.00    +0.070 A 
ATOM     15  C   LIG    1        2.379 -12.874   2.166  0.00  0.00    +0.000 A 
ATOM     16  C   LIG    1        3.015 -12.792   3.394  0.00  0.00    +0.110 A 
ATOM     17  C   LIG    1        3.196 -11.561   4.001  0.00  0.00    +0.000 A 
ATOM     18  F   LIG    1        3.459 -13.915   4.000  0.00  0.00    -0.130 F 
ATOM     19  C   LIG    1        2.743 -10.412   3.383  0.00  0.00    +0.050 A 
ENDBRANCH  12  13
ENDBRANCH   8  12
ENDBRANCH   1   8
BRANCH   5  20
ATOM     20  C   LIG    1        4.047  -4.060   0.600  0.00  0.00    +0.510 C 
ATOM     21  O   LIG    1        4.958  -3.275   0.776  0.00  0.00    -0.470 OA
BRANCH  20  22
ATOM     22  O   LIG    1        2.787  -3.607   0.457  0.00  0.00    -0.330 OA
BRANCH  22  23
ATOM     23  C   LIG    1        2.590  -2.170   0.525  0.00  0.00    +0.240 C 
BRANCH  23  24
ATOM     24  C   LIG    1        1.128  -1.854   0.345  0.00  0.00    +0.430 C 
ATOM     25  O   LIG    1        0.328  -2.753   0.176  0.00  0.00    -0.410 OA
BRANCH  24  26
ATOM     26  C   LIG    1        0.687  -0.514   0.373  0.00  0.00    -0.310 A 
ATOM     27  C   LIG    1       -0.612  -0.100   0.223  0.00  0.00    +0.150 A 
ATOM     28  C   LIG    1       -0.758   1.262   0.293  0.00  0.00    +0.020 A 
ATOM     29  C   LIG    1        0.378   1.947   0.495  0.00  0.00    -0.150 A 
ATOM     30 CL   LIG    1        0.475   3.676   0.622  0.00  0.00    +0.010 Cl
ATOM     31  S   LIG    1        1.715   0.893   0.608  0.00  0.00    +0.280 S 
ENDBRANCH  24  26
ENDBRANCH  23  24
ENDBRANCH  22  23
ENDBRANCH  20  22
ENDBRANCH   5  20
TORSDOF 8
