REMARK  Name = ZINCrH00000tj1b1.0
REMARK                            x       y       z     vdW  Elec       q    Type
REMARK                         _______ _______ _______ _____ _____    ______ ____
ROOT
ATOM      1  N   LIG    1       -1.372  -0.511   0.012  0.00  0.00    -0.970 NA
ENDROOT
BRANCH   1   2
ATOM      2  S   LIG    1       -2.092  -0.923   1.446  0.00  0.00    +2.690 S 
ATOM      3  O   LIG    1       -1.039  -1.211   2.356  0.00  0.00    -0.950 OA
ATOM      4  O   LIG    1       -3.120  -1.851   1.127  0.00  0.00    -0.930 OA
BRANCH   2   5
ATOM      5  C   LIG    1       -2.898   0.520   2.058  0.00  0.00    -0.660 A 
ATOM      6  C   LIG    1       -2.219   1.389   2.891  0.00  0.00    +0.160 A 
ATOM      7  C   LIG    1       -2.848   2.524   3.367  0.00  0.00    +0.030 A 
ATOM      8  C   LIG    1       -4.161   2.785   3.020  0.00  0.00    +0.020 A 
ATOM      9  C   LIG    1       -4.843   1.911   2.190  0.00  0.00    -0.050 A 
ATOM     10 CL   LIG    1       -6.491   2.237   1.752  0.00  0.00    -0.040 Cl
ATOM     11 CL   LIG    1       -4.954   4.206   3.624  0.00  0.00    -0.030 Cl
ATOM     12  C   LIG    1       -4.210   0.779   1.709  0.00  0.00    +0.170 A 
ENDBRANCH   2   5
ENDBRANCH   1   2
BRANCH   1  13
ATOM     13  C   LIG    1       -2.110  -0.654  -1.245  0.00  0.00    +0.330 C 
BRANCH  13  15
ATOM     14  C   LIG    1       -2.738  -2.818  -2.185  0.00  0.00    +0.050 C 
ATOM     15  C   LIG    1       -1.778  -1.983  -1.874  0.00  0.00    -0.080 C 
ENDBRANCH  13  15
ENDBRANCH   1  13
BRANCH   1  16
ATOM     16  C   LIG    1        0.002  -0.004   0.002  0.00  0.00    +0.350 C 
BRANCH  16  17
ATOM     17  C   LIG    1       -0.018   1.503   0.010  0.00  0.00    +0.500 C 
ATOM     18  N   LIG    1        1.139   2.192   0.003  0.00  0.00    -0.550 N 
ATOM     19  C   LIG    1        1.247   3.654   0.010  0.00  0.00    +0.280 C 
ATOM     20  C   LIG    1        2.756   3.947  -0.002  0.00  0.00    +0.090 C 
ATOM     21  C   LIG    1        3.409   2.584  -0.015  0.00  0.00    -0.130 A 
ATOM     22  C   LIG    1        4.741   2.217  -0.030  0.00  0.00    +0.060 A 
ATOM     23  C   LIG    1        5.093   0.880  -0.024  0.00  0.00    -0.010 A 
ATOM     24  C   LIG    1        4.109  -0.091  -0.019  0.00  0.00    +0.050 A 
ATOM     25  C   LIG    1        2.778   0.271  -0.011  0.00  0.00    -0.030 A 
ATOM     26  C   LIG    1        2.414   1.618  -0.006  0.00  0.00    +0.140 A 
ATOM     27  O   LIG    1       -1.077   2.095   0.018  0.00  0.00    -0.500 OA
ENDBRANCH  16  17
ENDBRANCH   1  16
TORSDOF 6
