REMARK  Name = ZINCqH00000505Ju.0
REMARK                            x       y       z     vdW  Elec       q    Type
REMARK                         _______ _______ _______ _____ _____    ______ ____
ROOT
ATOM      1  C   LIG    1       -1.176  -0.435   2.469  0.00  0.00    +0.150 C 
ATOM      2  C   LIG    1       -1.814  -0.940   1.200  0.00  0.00    +0.140 A 
ATOM      3  C   LIG    1       -2.978  -1.629   1.264  0.00  0.00    -0.080 A 
ATOM      4  C   LIG    1       -3.543  -2.090   0.047  0.00  0.00    +0.390 A 
ATOM      5  C   LIG    1       -2.816  -1.777  -1.193  0.00  0.00    -0.040 A 
ATOM      6  N   LIG    1       -1.694  -1.093  -1.114  0.00  0.00    -0.160 NA
ATOM      7  O   LIG    1       -4.588  -2.721   0.030  0.00  0.00    -0.450 OA
ATOM      8  N   LIG    1       -1.217  -0.694   0.007  0.00  0.00    -0.270 N 
ENDROOT
BRANCH   8   9
ATOM      9  C   LIG    1       -0.018   0.026   0.000  0.00  0.00    +0.110 A 
ATOM     10  C   LIG    1       -0.041   1.415  -0.001  0.00  0.00    +0.060 A 
ATOM     11  C   LIG    1        1.145   2.124  -0.008  0.00  0.00    +0.050 A 
ATOM     12  C   LIG    1        2.354   1.452  -0.014  0.00  0.00    +0.070 A 
ATOM     13  C   LIG    1        2.381   0.070  -0.013  0.00  0.00    +0.050 A 
ATOM     14  C   LIG    1        1.199  -0.646  -0.005  0.00  0.00    -0.020 A 
ATOM     15 CL   LIG    1        1.234  -2.381  -0.004  0.00  0.00    -0.040 Cl
ENDBRANCH   8   9
BRANCH   5  16
ATOM     16  C   LIG    1       -3.336  -2.220  -2.502  0.00  0.00    +0.590 C 
ATOM     17  N   LIG    1       -2.660  -1.926  -3.630  0.00  0.00    -0.660 N 
ATOM     18  H   LIG    1       -1.868  -1.368  -3.589  0.00  0.00    +0.420 HD
ATOM     19  O   LIG    1       -4.374  -2.851  -2.562  0.00  0.00    -0.470 OA
BRANCH  17  20
ATOM     20  C   LIG    1       -3.102  -2.425  -4.861  0.00  0.00    +0.150 A 
ATOM     21  C   LIG    1       -4.460  -2.569  -5.105  0.00  0.00    +0.030 A 
ATOM     22  C   LIG    1       -4.894  -3.059  -6.325  0.00  0.00    +0.110 A 
ATOM     23  C   LIG    1       -3.974  -3.414  -7.296  0.00  0.00    +0.010 A 
ATOM     24  C   LIG    1       -2.619  -3.276  -7.053  0.00  0.00    +0.050 A 
ATOM     25  F   LIG    1       -6.216  -3.196  -6.565  0.00  0.00    -0.130 F 
ATOM     26  C   LIG    1       -2.180  -2.783  -5.839  0.00  0.00    +0.060 A 
ATOM     27  F   LIG    1       -0.857  -2.648  -5.602  0.00  0.00    -0.130 F 
ENDBRANCH  17  20
ENDBRANCH   5  16
TORSDOF 3
