REMARK  Name = ZINCkj000005lXrV.0
REMARK                            x       y       z     vdW  Elec       q    Type
REMARK                         _______ _______ _______ _____ _____    ______ ____
ROOT
ATOM      1  O   LIG    1       -0.509   4.640  -1.843  0.00  0.00    -0.510 OA
ATOM      2  C   LIG    1       -0.286   3.804  -0.982  0.00  0.00    +0.530 A 
ATOM      3  N   LIG    1        0.873   3.118  -0.993  0.00  0.00    -0.590 N 
ATOM      4  H   LIG    1        1.527   3.293  -1.687  0.00  0.00    +0.430 HD
ATOM      5  C   LIG    1        1.137   2.183  -0.042  0.00  0.00    +0.410 A 
ATOM      6  C   LIG    1        0.242   1.920   0.938  0.00  0.00    -0.290 A 
ATOM      7  C   LIG    1       -0.977   2.611   0.979  0.00  0.00    +0.170 A 
ATOM      8  C   LIG    1       -1.243   3.555   0.026  0.00  0.00    +0.010 A 
ENDROOT
BRANCH   6   9
ATOM      9  C   LIG    1        0.554   0.880   1.983  0.00  0.00    +0.530 C 
ATOM     10  F   LIG    1       -0.413  -0.130   1.939  0.00  0.00    -0.170 F 
ATOM     11  F   LIG    1        0.550   1.474   3.249  0.00  0.00    -0.170 F 
ATOM     12  F   LIG    1        1.815   0.329   1.730  0.00  0.00    -0.170 F 
ENDBRANCH   6   9
BRANCH   8  13
ATOM     13  N   LIG    1       -2.452   4.263   0.046  0.00  0.00    -0.650 N 
ATOM     14  H   LIG    1       -3.294   3.787  -0.017  0.00  0.00    +0.420 HD
ATOM     15  C   LIG    1       -2.444   5.607   0.154  0.00  0.00    +0.530 C 
ATOM     16  O   LIG    1       -1.392   6.210   0.148  0.00  0.00    -0.500 OA
BRANCH  15  17
ATOM     17  C   LIG    1       -3.744   6.360   0.283  0.00  0.00    -0.010 C 
ATOM     18  C   LIG    1       -4.480   5.896   1.543  0.00  0.00    +0.060 C 
ATOM     19  C   LIG    1       -5.760   6.721   1.707  0.00  0.00    +0.070 C 
ATOM     20  C   LIG    1       -5.399   8.207   1.760  0.00  0.00    +0.260 C 
ATOM     21  N   LIG    1       -4.721   8.595   0.517  0.00  0.00    -0.500 N 
ATOM     22  H   LIG    1       -5.315   8.379  -0.269  0.00  0.00    +0.430 HD
ATOM     23  H   LIG    1       -4.532   9.586   0.533  0.00  0.00    +0.440 HD
ATOM     24  C   LIG    1       -3.457   7.859   0.389  0.00  0.00    +0.290 C 
ENDBRANCH  15  17
ENDBRANCH   8  13
TORSDOF 3
