REMARK  Name = ZINCpe00000FUk00.0
REMARK                            x       y       z     vdW  Elec       q    Type
REMARK                         _______ _______ _______ _____ _____    ______ ____
ROOT
ATOM      1  N   LIG    1        2.397  -2.640  -0.035  0.00  0.00    -0.460 N 
ATOM      2  C   LIG    1        2.511  -3.568   1.099  0.00  0.00    +0.220 C 
ATOM      3  C   LIG    1        3.836  -4.328   1.002  0.00  0.00    +0.200 C 
ATOM      4  N   LIG    1        4.948  -3.368   0.997  0.00  0.00    -0.540 NA
ATOM      5  C   LIG    1        4.835  -2.441  -0.137  0.00  0.00    +0.190 C 
ATOM      6  C   LIG    1        3.510  -1.681  -0.040  0.00  0.00    +0.230 C 
ENDROOT
BRANCH   1  11
ATOM      7  C   LIG    1        0.002  -0.004   0.002  0.00  0.00    +0.390 A 
ATOM      8  C   LIG    1       -1.190  -0.727   0.009  0.00  0.00    -0.130 A 
ATOM      9  C   LIG    1       -1.124  -2.108   0.002  0.00  0.00    +0.230 A 
ATOM     10  N   LIG    1        0.061  -2.699  -0.013  0.00  0.00    -0.550 NA
ATOM     11  C   LIG    1        1.177  -1.986  -0.020  0.00  0.00    +0.540 A 
ATOM     12  C   LIG    1       -2.386  -2.931   0.010  0.00  0.00    +0.150 C 
ATOM     13  N   LIG    1        1.155  -0.661  -0.018  0.00  0.00    -0.610 NA
BRANCH   7  15
ATOM     14  C   LIG    1        1.248   2.017   0.001  0.00  0.00    +0.260 C 
ATOM     15  O   LIG    1       -0.016   1.351   0.009  0.00  0.00    -0.300 OA
ENDBRANCH   7  15
ENDBRANCH   1  11
BRANCH   4  16
ATOM     16  C   LIG    1        6.243  -4.063   0.981  0.00  0.00    +0.280 C 
BRANCH  16  17
ATOM     17  C   LIG    1        6.426  -4.813   2.275  0.00  0.00    -0.000 A 
ATOM     18  C   LIG    1        6.133  -6.110   2.504  0.00  0.00    +0.150 A 
ATOM     19  N   LIG    1        6.446  -6.390   3.781  0.00  0.00    -0.470 NA
ATOM     20  C   LIG    1        6.912  -5.321   4.350  0.00  0.00    +0.170 A 
ATOM     21  C   LIG    1        7.392  -5.146   5.771  0.00  0.00    +0.360 C 
ATOM     22  O   LIG    1        8.123  -3.913   5.838  0.00  0.00    -0.370 OA
ATOM     23  C   LIG    1        7.437  -2.796   5.265  0.00  0.00    +0.240 C 
ATOM     24  C   LIG    1        7.377  -2.954   3.740  0.00  0.00    +0.270 C 
ATOM     25  N   LIG    1        6.915  -4.313   3.441  0.00  0.00    -0.440 N 
ENDBRANCH  16  17
ENDBRANCH   4  16
TORSDOF 4
