REMARK  Name = ZINCpk00000eaXfM.1
REMARK                            x       y       z     vdW  Elec       q    Type
REMARK                         _______ _______ _______ _____ _____    ______ ____
ROOT
ATOM      1  C   LIG    1       -1.492   5.705  -3.579  0.00  0.00    +0.520 C 
ATOM      2  O   LIG    1       -1.199   5.167  -4.628  0.00  0.00    -0.500 OA
ENDROOT
BRANCH   1   3
ATOM      3  C   LIG    1       -1.459   4.935  -2.321  0.00  0.00    -0.120 A 
ATOM      4  C   LIG    1       -1.795   5.553  -1.114  0.00  0.00    +0.110 A 
ATOM      5  C   LIG    1       -1.765   4.834   0.062  0.00  0.00    +0.010 A 
ATOM      6  C   LIG    1       -1.399   3.496   0.048  0.00  0.00    +0.140 A 
ATOM      7  N   LIG    1       -1.365   2.756   1.233  0.00  0.00    -0.660 N 
ATOM      8  H   LIG    1       -1.801   3.089   2.033  0.00  0.00    +0.420 HD
ATOM      9  C   LIG    1       -0.717   1.571   1.249  0.00  0.00    +0.490 C 
ATOM     10  C   LIG    1       -0.013   1.086   0.008  0.00  0.00    +0.310 C 
ATOM     11  O   LIG    1       -0.703   1.559  -1.151  0.00  0.00    -0.300 OA
ATOM     12  O   LIG    1       -0.702   0.900   2.259  0.00  0.00    -0.500 OA
ATOM     13  C   LIG    1       -1.060   2.872  -1.156  0.00  0.00    +0.060 A 
ATOM     14  C   LIG    1       -1.090   3.586  -2.335  0.00  0.00    +0.120 A 
ENDBRANCH   1   3
BRANCH   1  15
ATOM     15  O   LIG    1       -1.847   7.004  -3.564  0.00  0.00    -0.320 OA
BRANCH  15  16
ATOM     16  C   LIG    1       -1.858   7.699  -4.839  0.00  0.00    +0.200 C 
ATOM     17  C   LIG    1       -0.482   8.318  -5.094  0.00  0.00    +0.080 C 
BRANCH  16  20
ATOM     18  N   LIG    1       -3.161   9.501  -5.923  0.00  0.00    -0.620 N 
ATOM     19  H   LIG    1       -2.677   9.315  -6.743  0.00  0.00    +0.430 HD
ATOM     20  C   LIG    1       -2.901   8.787  -4.810  0.00  0.00    +0.510 C 
ATOM     21  O   LIG    1       -3.506   9.019  -3.785  0.00  0.00    -0.470 OA
BRANCH  18  26
ATOM     22  C   LIG    1       -6.256  13.223  -7.087  0.00  0.00    +0.160 C 
ATOM     23  C   LIG    1       -5.490  12.136  -6.378  0.00  0.00    +0.040 A 
ATOM     24  N   LIG    1       -5.618  11.777  -5.132  0.00  0.00    -0.360 NA
ATOM     25  O   LIG    1       -4.872  10.870  -4.846  0.00  0.00    +0.110 OA
ATOM     26  C   LIG    1       -4.121  10.502  -5.896  0.00  0.00    +0.210 A 
ATOM     27  C   LIG    1       -4.495  11.306  -6.934  0.00  0.00    -0.090 A 
ENDBRANCH  18  26
ENDBRANCH  16  20
ENDBRANCH  15  16
ENDBRANCH   1  15
TORSDOF 5
