REMARK  Name = ZINCpk00000xI5wG.0
REMARK                            x       y       z     vdW  Elec       q    Type
REMARK                         _______ _______ _______ _____ _____    ______ ____
ROOT
ATOM      1  N   LIG    1       -2.444  -0.109   0.026  0.00  0.00    -0.720 N 
ATOM      2  H   LIG    1       -2.459   0.861   0.031  0.00  0.00    +0.410 HD
ATOM      3  C   LIG    1       -1.266  -0.764   0.011  0.00  0.00    +0.570 C 
ATOM      4  O   LIG    1       -1.247  -1.979   0.004  0.00  0.00    -0.510 OA
ENDROOT
BRANCH   3   5
ATOM      5  C   LIG    1        0.002  -0.004   0.002  0.00  0.00    -0.120 A 
ATOM      6  C   LIG    1       -0.017   1.391   0.010  0.00  0.00    +0.130 A 
ATOM      7  C   LIG    1        1.172   2.095   0.002  0.00  0.00    -0.040 A 
ATOM      8  C   LIG    1        2.379   1.418  -0.013  0.00  0.00    +0.150 A 
ATOM      9  C   LIG    1        2.404   0.034  -0.021  0.00  0.00    -0.040 A 
ATOM     10 CL   LIG    1        1.151   3.830   0.011  0.00  0.00    -0.020 Cl
ATOM     11  C   LIG    1        1.224  -0.680  -0.013  0.00  0.00    +0.190 A 
BRANCH   9  12
ATOM     12  N   LIG    1        3.700  -0.681  -0.037  0.00  0.00    +0.020 N 
ATOM     13  O   LIG    1        4.742  -0.052  -0.043  0.00  0.00    -0.140 OA
ATOM     14  O   LIG    1        3.723  -1.899  -0.044  0.00  0.00    -0.140 OA
ENDBRANCH   9  12
ENDBRANCH   3   5
BRANCH   1  15
ATOM     15  C   LIG    1       -3.701  -0.861   0.034  0.00  0.00    +0.370 C 
BRANCH  15  16
ATOM     16  C   LIG    1       -4.862   0.100   0.051  0.00  0.00    +0.460 C 
ATOM     17  O   LIG    1       -4.660   1.291   0.055  0.00  0.00    -0.500 OA
BRANCH  16  18
ATOM     18  O   LIG    1       -6.120  -0.368   0.061  0.00  0.00    -0.320 OA
BRANCH  18  19
ATOM     19  C   LIG    1       -7.188   0.615   0.077  0.00  0.00    +0.270 C 
BRANCH  19  22
ATOM     20  N   LIG    1       -9.662   0.625   0.101  0.00  0.00    -0.720 N 
ATOM     21  H   LIG    1       -9.627   1.594   0.106  0.00  0.00    +0.400 HD
ATOM     22  C   LIG    1       -8.520  -0.091   0.086  0.00  0.00    +0.520 C 
ATOM     23  O   LIG    1       -8.564  -1.303   0.080  0.00  0.00    -0.510 OA
BRANCH  20  25
ATOM     24  C   LIG    1      -11.057  -0.944   1.356  0.00  0.00    +0.040 C 
ATOM     25  C   LIG    1      -10.956  -0.061   0.111  0.00  0.00    +0.170 C 
ATOM     26  C   LIG    1      -11.082  -0.930  -1.142  0.00  0.00    +0.040 C 
ATOM     27  C   LIG    1      -12.082   0.975   0.127  0.00  0.00    +0.040 C 
ENDBRANCH  20  25
ENDBRANCH  19  22
ENDBRANCH  18  19
ENDBRANCH  16  18
ENDBRANCH  15  16
ENDBRANCH   1  15
TORSDOF 8
