REMARK  Name = ZINCrH000004q9Ci.0
REMARK                            x       y       z     vdW  Elec       q    Type
REMARK                         _______ _______ _______ _____ _____    ______ ____
ROOT
ATOM      1  C   LIG    1       -3.065   3.690   2.783  0.00  0.00    +0.610 C 
ATOM      2  N   LIG    1       -2.577   2.661   2.062  0.00  0.00    -0.710 N 
ATOM      3  H   LIG    1       -3.064   1.824   2.021  0.00  0.00    +0.410 HD
ATOM      4  O   LIG    1       -2.454   4.741   2.835  0.00  0.00    -0.490 OA
ENDROOT
BRANCH   1   7
ATOM      5  C   LIG    1       -4.405   5.901   4.512  0.00  0.00    +0.140 C 
ATOM      6  C   LIG    1       -4.922   4.508   4.262  0.00  0.00    -0.060 A 
ATOM      7  C   LIG    1       -4.336   3.543   3.507  0.00  0.00    -0.040 A 
ATOM      8  O   LIG    1       -5.099   2.430   3.517  0.00  0.00    -0.180 OA
ATOM      9  C   LIG    1       -6.199   2.609   4.275  0.00  0.00    +0.080 A 
ATOM     10  C   LIG    1       -7.272   1.790   4.603  0.00  0.00    +0.050 A 
ATOM     11  C   LIG    1       -8.277   2.268   5.417  0.00  0.00    +0.080 A 
ATOM     12  C   LIG    1       -8.230   3.563   5.917  0.00  0.00    -0.050 A 
ATOM     13  C   LIG    1       -7.183   4.387   5.607  0.00  0.00    +0.090 A 
ATOM     14 CL   LIG    1       -9.508   4.140   6.940  0.00  0.00    -0.060 Cl
ATOM     15  C   LIG    1       -6.156   3.921   4.784  0.00  0.00    -0.130 A 
ENDBRANCH   1   7
BRANCH   2  16
ATOM     16  C   LIG    1       -1.311   2.808   1.341  0.00  0.00    +0.270 C 
ATOM     17  C   LIG    1       -0.669   1.432   1.157  0.00  0.00    +0.040 C 
ATOM     18  C   LIG    1        0.496   1.567   0.169  0.00  0.00    +0.050 C 
ATOM     19  C   LIG    1       -0.066   1.905  -1.212  0.00  0.00    +0.260 C 
ATOM     20  N   LIG    1       -0.986   3.032  -1.127  0.00  0.00    -0.560 N 
ATOM     21  C   LIG    1       -1.569   3.437   0.002  0.00  0.00    +0.500 C 
ATOM     22  O   LIG    1       -2.351   4.363  -0.056  0.00  0.00    -0.510 OA
BRANCH  20  23
ATOM     23  C   LIG    1       -1.276   3.732  -2.303  0.00  0.00    +0.080 A 
ATOM     24  C   LIG    1       -0.509   4.832  -2.678  0.00  0.00    +0.080 A 
ATOM     25  C   LIG    1       -0.836   5.494  -3.851  0.00  0.00    -0.020 A 
ATOM     26  C   LIG    1       -1.903   5.043  -4.605  0.00  0.00    +0.260 A 
ATOM     27  N   LIG    1       -2.610   3.998  -4.223  0.00  0.00    -0.480 NA
ATOM     28  C   LIG    1       -2.330   3.337  -3.117  0.00  0.00    +0.270 A 
ENDBRANCH  20  23
ENDBRANCH   2  16
TORSDOF 3
