REMARK  Name = ZINCpk00000FeAML.0
REMARK                            x       y       z     vdW  Elec       q    Type
REMARK                         _______ _______ _______ _____ _____    ______ ____
ROOT
ATOM      1  C   LIG    1        0.520   9.629   2.611  0.00  0.00    +0.150 C 
ATOM      2  C   LIG    1        1.021   9.650   4.079  0.00  0.00    +0.060 C 
ATOM      3  C   LIG    1        1.186   8.152   4.410  0.00  0.00    +0.230 C 
ATOM      4  N   LIG    1        1.335   7.437   3.134  0.00  0.00    -0.620 N 
ATOM      5  C   LIG    1        1.484   6.105   2.992  0.00  0.00    +0.530 C 
ATOM      6  O   LIG    1        1.594   5.399   3.973  0.00  0.00    -0.520 OA
ATOM      7  C   LIG    1        1.303   8.419   2.035  0.00  0.00    +0.240 C 
ENDROOT
BRANCH   1   9
ATOM      8  C   LIG    1       -0.044  11.214   0.904  0.00  0.00    +0.210 C 
ATOM      9  O   LIG    1        0.873  10.835   1.932  0.00  0.00    -0.370 OA
ENDBRANCH   1   9
BRANCH   5  10
ATOM     10  C   LIG    1        1.513   5.492   1.616  0.00  0.00    +0.060 C 
BRANCH  10  11
ATOM     11  C   LIG    1        1.690   3.977   1.736  0.00  0.00    +0.040 C 
BRANCH  11  12
ATOM     12  C   LIG    1        1.720   3.355   0.338  0.00  0.00    +0.080 C 
BRANCH  12  13
ATOM     13  C   LIG    1        1.894   1.863   0.456  0.00  0.00    -0.130 A 
ATOM     14  C   LIG    1        0.788   1.032   0.547  0.00  0.00    +0.060 A 
ATOM     15  C   LIG    1        0.997  -0.335   0.654  0.00  0.00    -0.030 A 
ATOM     16  C   LIG    1        2.291  -0.820   0.666  0.00  0.00    +0.250 A 
ATOM     17  N   LIG    1        3.320   0.001   0.578  0.00  0.00    -0.480 NA
ATOM     18  C   LIG    1        3.159   1.305   0.476  0.00  0.00    +0.250 A 
ENDBRANCH  12  13
ENDBRANCH  11  12
ENDBRANCH  10  11
ENDBRANCH   5  10
BRANCH   3  19
ATOM     19  C   LIG    1       -0.053   7.642   5.149  0.00  0.00    +0.320 C 
BRANCH  19  20
ATOM     20  N   LIG    1       -0.122   8.265   6.473  0.00  0.00    -0.370 N 
ATOM     21  C   LIG    1       -1.161   8.974   6.963  0.00  0.00    +0.250 A 
ATOM     22  C   LIG    1       -0.836   9.376   8.213  0.00  0.00    -0.160 A 
ATOM     23  C   LIG    1        0.452   8.895   8.499  0.00  0.00    +0.340 A 
ATOM     24  N   LIG    1        0.877   8.223   7.455  0.00  0.00    -0.350 NA
BRANCH  23  25
ATOM     25  N   LIG    1        1.157   9.092   9.692  0.00  0.00    -0.850 N 
ATOM     26  H   LIG    1        2.046   8.719   9.798  0.00  0.00    +0.400 HD
ATOM     27  H   LIG    1        0.757   9.603  10.414  0.00  0.00    +0.410 HD
ENDBRANCH  23  25
ENDBRANCH  19  20
ENDBRANCH   3  19
TORSDOF 8
