REMARK  Name = ZINCpk00000xI0vd.0
REMARK                            x       y       z     vdW  Elec       q    Type
REMARK                         _______ _______ _______ _____ _____    ______ ____
ROOT
ATOM      1  N   LIG    1        1.942   1.960   1.296  0.00  0.00    -0.550 NA
ATOM      2  C   LIG    1        2.755   0.760   1.596  0.00  0.00    +0.180 C 
ATOM      3  C   LIG    1        2.136  -0.526   1.026  0.00  0.00    +0.040 C 
ATOM      4  C   LIG    1        0.640  -0.567   1.212  0.00  0.00    +0.220 C 
ATOM      5  N   LIG    1        0.002  -0.004   0.002  0.00  0.00    -0.490 N 
ATOM      6  C   LIG    1       -0.010   1.395  -0.038  0.00  0.00    +0.210 C 
ATOM      7  C   LIG    1        1.414   1.987  -0.050  0.00  0.00    +0.190 C 
ENDROOT
BRANCH   5   8
ATOM      8  C   LIG    1       -1.273  -0.517  -0.171  0.00  0.00    +0.360 A 
ATOM      9  N   LIG    1       -2.326   0.100   0.357  0.00  0.00    -0.550 NA
ATOM     10  C   LIG    1       -3.540  -0.387   0.193  0.00  0.00    +0.510 A 
ATOM     11  N   LIG    1       -3.758  -1.492  -0.489  0.00  0.00    -0.530 NA
ATOM     12  C   LIG    1       -2.756  -2.164  -1.046  0.00  0.00    +0.180 A 
ATOM     13  C   LIG    1       -3.053  -3.425  -1.812  0.00  0.00    +0.090 C 
ATOM     14  C   LIG    1       -1.859  -3.791  -2.695  0.00  0.00    +0.220 C 
ATOM     15  N   LIG    1       -0.641  -3.771  -1.869  0.00  0.00    -0.530 NA
ATOM     16  C   LIG    1       -0.806  -4.601  -0.668  0.00  0.00    +0.190 C 
ATOM     17  C   LIG    1       -0.290  -2.392  -1.511  0.00  0.00    +0.290 C 
ATOM     18  C   LIG    1       -1.474  -1.689  -0.908  0.00  0.00    -0.200 A 
ENDBRANCH   5   8
BRANCH   1  19
ATOM     19  C   LIG    1        2.688   3.190   1.593  0.00  0.00    +0.290 C 
BRANCH  19  23
ATOM     20  C   LIG    1       -0.341   7.245   1.058  0.00  0.00    +0.180 C 
ATOM     21  C   LIG    1        0.632   6.114   0.842  0.00  0.00    -0.030 A 
ATOM     22  C   LIG    1        1.033   5.203   1.761  0.00  0.00    -0.050 A 
ATOM     23  C   LIG    1        1.936   4.378   1.052  0.00  0.00    +0.020 A 
ATOM     24  N   LIG    1        1.992   4.851  -0.159  0.00  0.00    -0.360 NA
ATOM     25  O   LIG    1        1.271   5.812  -0.296  0.00  0.00    +0.100 OA
ENDBRANCH  19  23
ENDBRANCH   1  19
TORSDOF 3
