REMARK  Name = ZINCvU0000000BBb.0
REMARK                            x       y       z     vdW  Elec       q    Type
REMARK                         _______ _______ _______ _____ _____    ______ ____
ROOT
ATOM      1  C   LIG    1        0.721   9.509  -1.442  0.00  0.00    +0.330 C 
ENDROOT
BRANCH   1   4
ATOM      2  C   LIG    1        0.193   6.047  -0.446  0.00  0.00    +0.130 A 
ATOM      3  N   LIG    1        0.145   7.348  -0.396  0.00  0.00    -0.460 NA
ATOM      4  C   LIG    1        0.705   8.003  -1.388  0.00  0.00    +0.060 A 
ATOM      5  C   LIG    1        1.253   7.252  -2.347  0.00  0.00    -0.030 A 
ATOM      6  S   LIG    1        1.028   5.558  -1.918  0.00  0.00    +0.100 S 
BRANCH   2  10
ATOM      7  C   LIG    1       -1.428   3.410   2.470  0.00  0.00    +0.120 A 
ATOM      8  C   LIG    1       -1.536   4.783   2.639  0.00  0.00    -0.040 A 
ATOM      9  C   LIG    1       -1.012   5.641   1.695  0.00  0.00    +0.080 A 
ATOM     10  C   LIG    1       -0.370   5.129   0.567  0.00  0.00    -0.030 A 
ATOM     11  C   LIG    1       -0.255   3.747   0.399  0.00  0.00    -0.010 A 
ATOM     12  C   LIG    1       -0.787   2.893   1.346  0.00  0.00    +0.100 A 
BRANCH   7  14
ATOM     13  C   LIG    1       -2.589   3.167   4.531  0.00  0.00    +0.240 C 
ATOM     14  O   LIG    1       -1.946   2.569   3.403  0.00  0.00    -0.300 OA
ENDBRANCH   7  14
BRANCH  12  15
ATOM     15  O   LIG    1       -0.682   1.547   1.184  0.00  0.00    -0.300 OA
ATOM     16  C   LIG    1       -0.013   1.086   0.008  0.00  0.00    +0.240 C 
ENDBRANCH  12  15
ENDBRANCH   2  10
ENDBRANCH   1   4
BRANCH   1  17
ATOM     17  O   LIG    1        1.400   9.942  -2.651  0.00  0.00    -0.360 OA
BRANCH  17  18
ATOM     18  C   LIG    1        1.501  11.265  -2.853  0.00  0.00    +0.470 C 
ATOM     19  O   LIG    1        1.038  12.036  -2.046  0.00  0.00    -0.500 OA
BRANCH  18  20
ATOM     20  C   LIG    1        2.192  11.789  -4.085  0.00  0.00    +0.130 C 
BRANCH  20  21
ATOM     21  C   LIG    1        2.169  13.319  -4.071  0.00  0.00    +0.130 C 
BRANCH  21  22
ATOM     22  C   LIG    1        2.860  13.843  -5.304  0.00  0.00    +0.160 A 
ATOM     23  N   LIG    1        4.088  13.461  -5.558  0.00  0.00    -0.470 NA
ATOM     24  C   LIG    1        4.740  13.894  -6.641  0.00  0.00    +0.130 A 
ATOM     25  C   LIG    1        6.055  13.477  -6.912  0.00  0.00    +0.050 A 
ATOM     26  C   LIG    1        6.696  13.940  -8.020  0.00  0.00    +0.030 A 
ATOM     27  C   LIG    1        6.070  14.823  -8.896  0.00  0.00    +0.010 A 
ATOM     28  C   LIG    1        4.797  15.251  -8.667  0.00  0.00    +0.030 A 
ATOM     29  C   LIG    1        4.106  14.794  -7.534  0.00  0.00    -0.110 A 
ATOM     30  C   LIG    1        2.789  15.210  -7.261  0.00  0.00    +0.090 A 
ATOM     31  C   LIG    1        2.179  14.725  -6.140  0.00  0.00    -0.030 A 
ENDBRANCH  21  22
ENDBRANCH  20  21
ENDBRANCH  18  20
ENDBRANCH  17  18
ENDBRANCH   1  17
TORSDOF 9
