REMARK  Name = ZINCpk000000oNWe.0
REMARK                            x       y       z     vdW  Elec       q    Type
REMARK                         _______ _______ _______ _____ _____    ______ ____
ROOT
ATOM      1  N   LIG    1        2.407   1.180  -0.971  0.00  0.00    -0.520 NA
ATOM      2  C   LIG    1        1.693   1.579   0.249  0.00  0.00    +0.190 C 
ATOM      3  C   LIG    1        0.524   0.622   0.494  0.00  0.00    +0.040 C 
ATOM      4  C   LIG    1        1.061  -0.805   0.637  0.00  0.00    +0.240 C 
ATOM      5  C   LIG    1        1.841  -1.179  -0.626  0.00  0.00    +0.030 C 
ATOM      6  C   LIG    1        2.971  -0.170  -0.839  0.00  0.00    +0.180 C 
ENDROOT
BRANCH   4   7
ATOM      7  N   LIG    1       -0.059  -1.734   0.814  0.00  0.00    -0.720 N 
ATOM      8  H   LIG    1       -0.938  -1.502   0.477  0.00  0.00    +0.400 HD
ATOM      9  C   LIG    1        0.134  -2.909   1.444  0.00  0.00    +0.590 C 
ATOM     10  O   LIG    1        1.238  -3.200   1.867  0.00  0.00    -0.530 OA
BRANCH   9  11
ATOM     11  C   LIG    1       -0.986  -3.838   1.621  0.00  0.00    -0.280 A 
ATOM     12  C   LIG    1       -0.916  -5.057   2.236  0.00  0.00    +0.110 A 
ATOM     13  C   LIG    1       -2.120  -5.720   2.267  0.00  0.00    -0.010 A 
ATOM     14  C   LIG    1       -3.139  -5.074   1.689  0.00  0.00    -0.190 A 
ATOM     15  C   LIG    1       -4.546  -5.607   1.596  0.00  0.00    +0.140 C 
ATOM     16  S   LIG    1       -2.634  -3.566   1.070  0.00  0.00    +0.200 S 
ENDBRANCH   9  11
ENDBRANCH   4   7
BRANCH   1  17
ATOM     17  C   LIG    1        3.450   2.156  -1.314  0.00  0.00    +0.140 C 
ATOM     18  C   LIG    1        2.838   3.557  -1.370  0.00  0.00    +0.080 C 
BRANCH  17  24
ATOM     19  N   LIG    1        7.099   2.212  -4.442  0.00  0.00    -0.740 N 
ATOM     20  H   LIG    1        7.632   2.689  -3.788  0.00  0.00    +0.400 HD
ATOM     21  C   LIG    1        5.832   1.856  -4.151  0.00  0.00    +0.690 C 
ATOM     22  N   LIG    1        5.306   2.165  -2.949  0.00  0.00    -0.690 N 
ATOM     23  H   LIG    1        5.838   2.643  -2.294  0.00  0.00    +0.410 HD
ATOM     24  C   LIG    1        4.039   1.810  -2.657  0.00  0.00    +0.520 C 
ATOM     25  O   LIG    1        3.373   1.213  -3.476  0.00  0.00    -0.440 OA
ATOM     26  O   LIG    1        5.165   1.258  -4.971  0.00  0.00    -0.530 OA
BRANCH  19  28
ATOM     27  C   LIG    1        9.112   2.389  -5.821  0.00  0.00    +0.030 C 
ATOM     28  C   LIG    1        7.672   1.876  -5.748  0.00  0.00    +0.270 C 
ENDBRANCH  19  28
ENDBRANCH  17  24
ENDBRANCH   1  17
TORSDOF 5
