REMARK  Name = ZINCqH0000034lij.1
REMARK                            x       y       z     vdW  Elec       q    Type
REMARK                         _______ _______ _______ _____ _____    ______ ____
ROOT
ATOM      1  C   LIG    1        3.594   1.915  -0.022  0.00  0.00    +0.080 A 
ATOM      2  C   LIG    1        4.172   2.283   1.107  0.00  0.00    +0.030 A 
ATOM      3  S   LIG    1        5.431   3.441   0.644  0.00  0.00    +0.180 S 
ATOM      4  C   LIG    1        5.068   3.348  -1.087  0.00  0.00    +0.170 A 
ATOM      5  N   LIG    1        5.404   3.799  -2.272  0.00  0.00    -0.440 NA
ATOM      6  C   LIG    1        4.612   3.225  -3.198  0.00  0.00    +0.090 A 
ATOM      7  C   LIG    1        3.756   2.389  -2.561  0.00  0.00    +0.150 A 
ATOM      8  N   LIG    1        4.041   2.462  -1.203  0.00  0.00    -0.410 N 
ENDROOT
BRANCH   6   9
ATOM      9  C   LIG    1        4.667   3.465  -4.661  0.00  0.00    -0.020 A 
ATOM     10  C   LIG    1        3.789   2.797  -5.513  0.00  0.00    +0.050 A 
ATOM     11  C   LIG    1        3.841   3.027  -6.872  0.00  0.00    -0.010 A 
ATOM     12  C   LIG    1        4.771   3.913  -7.392  0.00  0.00    +0.100 A 
ATOM     13  C   LIG    1        5.649   4.575  -6.550  0.00  0.00    -0.010 A 
ATOM     14  F   LIG    1        4.822   4.131  -8.724  0.00  0.00    -0.140 F 
ATOM     15  C   LIG    1        5.601   4.355  -5.189  0.00  0.00    +0.080 A 
ENDBRANCH   6   9
BRANCH   1  16
ATOM     16  C   LIG    1        2.462   0.920  -0.017  0.00  0.00    +0.180 C 
BRANCH  16  19
ATOM     17  N   LIG    1       -0.011   0.966   0.007  0.00  0.00    -0.630 N 
ATOM     18  H   LIG    1        0.002  -0.004   0.002  0.00  0.00    +0.430 HD
ATOM     19  C   LIG    1        1.147   1.655   0.000  0.00  0.00    +0.500 C 
ATOM     20  O   LIG    1        1.130   2.868   0.007  0.00  0.00    -0.450 OA
BRANCH  17  24
ATOM     21  C   LIG    1       -3.507   2.523   0.031  0.00  0.00    +0.020 A 
ATOM     22  N   LIG    1       -2.547   3.393   0.032  0.00  0.00    -0.230 NA
ATOM     23  N   LIG    1       -1.370   2.936   0.024  0.00  0.00    -0.270 NA
ATOM     24  C   LIG    1       -1.225   1.645   0.017  0.00  0.00    +0.220 A 
ATOM     25  S   LIG    1       -2.776   0.917   0.013  0.00  0.00    +0.110 S 
BRANCH  21  27
ATOM     26  C   LIG    1       -5.488   2.938  -1.401  0.00  0.00    +0.040 C 
ATOM     27  C   LIG    1       -4.983   2.827   0.039  0.00  0.00    +0.150 C 
ENDBRANCH  21  27
ENDBRANCH  17  24
ENDBRANCH  16  19
ENDBRANCH   1  16
TORSDOF 5
