REMARK  Name = ZINCpk000000n3H0.0
REMARK                            x       y       z     vdW  Elec       q    Type
REMARK                         _______ _______ _______ _____ _____    ______ ____
ROOT
ATOM      1  C   LIG    1       -3.675   1.545   0.132  0.00  0.00    +0.210 A 
ATOM      2  C   LIG    1       -4.787   0.791   0.482  0.00  0.00    +0.010 A 
ATOM      3  C   LIG    1       -4.755  -0.584   0.362  0.00  0.00    +0.060 A 
ATOM      4  C   LIG    1       -3.620  -1.221  -0.113  0.00  0.00    -0.010 A 
ATOM      5  C   LIG    1       -2.509  -0.487  -0.470  0.00  0.00    +0.060 A 
ATOM      6  C   LIG    1       -2.526   0.904  -0.354  0.00  0.00    -0.170 A 
ENDROOT
BRANCH   1   8
ATOM      7  C   LIG    1       -4.795   3.622  -0.127  0.00  0.00    +0.530 C 
ATOM      8  N   LIG    1       -3.703   2.932   0.258  0.00  0.00    -0.660 N 
ATOM      9  H   LIG    1       -2.936   3.401   0.623  0.00  0.00    +0.420 HD
ATOM     10  O   LIG    1       -5.789   3.030  -0.491  0.00  0.00    -0.520 OA
BRANCH   7  12
ATOM     11  C   LIG    1       -6.133   5.659  -0.586  0.00  0.00    +0.050 C 
ATOM     12  C   LIG    1       -4.780   5.129  -0.105  0.00  0.00    -0.080 C 
ATOM     13  C   LIG    1       -3.674   5.642  -1.029  0.00  0.00    +0.060 C 
ATOM     14  C   LIG    1       -4.520   5.616   1.322  0.00  0.00    +0.050 C 
ENDBRANCH   7  12
ENDBRANCH   1   8
BRANCH   6  15
ATOM     15  C   LIG    1       -1.340   1.695  -0.735  0.00  0.00    +0.570 C 
ATOM     16  N   LIG    1       -0.225   1.072  -1.164  0.00  0.00    -0.720 N 
ATOM     17  H   LIG    1       -0.201   0.104  -1.222  0.00  0.00    +0.400 HD
ATOM     18  O   LIG    1       -1.369   2.908  -0.661  0.00  0.00    -0.540 OA
BRANCH  16  19
ATOM     19  C   LIG    1        0.951   1.858  -1.547  0.00  0.00    +0.250 C 
BRANCH  19  20
ATOM     20  C   LIG    1        2.069   0.916  -1.999  0.00  0.00    +0.330 C 
BRANCH  20  21
ATOM     21  N   LIG    1        3.244   1.701  -2.383  0.00  0.00    -0.990 NA
ATOM     22  C   LIG    1        3.495   2.307  -3.699  0.00  0.00    +0.260 C 
ATOM     23  C   LIG    1        4.362   3.574  -3.540  0.00  0.00    +0.080 C 
ATOM     24  C   LIG    1        5.491   3.142  -2.559  0.00  0.00    -0.320 C 
ATOM     25  S   LIG    1        4.550   2.067  -1.408  0.00  0.00    +2.570 S 
ATOM     26  O   LIG    1        5.215   0.830  -1.199  0.00  0.00    -0.950 OA
ATOM     27  O   LIG    1        4.009   2.818  -0.330  0.00  0.00    -0.950 OA
ENDBRANCH  20  21
ENDBRANCH  19  20
ENDBRANCH  16  19
ENDBRANCH   6  15
TORSDOF 6
