REMARK  Name = ZINCpe000000X3cJ.0
REMARK                            x       y       z     vdW  Elec       q    Type
REMARK                         _______ _______ _______ _____ _____    ______ ____
ROOT
ATOM      1  N   LIG    1       -3.725   3.429   3.670  0.00  0.00    -0.670 N 
ATOM      2  H   LIG    1       -4.044   2.768   4.304  0.00  0.00    +0.430 HD
ENDROOT
BRANCH   1   3
ATOM      3  C   LIG    1       -4.036   4.768   3.849  0.00  0.00    +0.580 A 
ATOM      4  N   LIG    1       -4.777   5.120   4.893  0.00  0.00    -0.510 NA
ATOM      5  C   LIG    1       -5.097   6.386   5.111  0.00  0.00    +0.170 A 
ATOM      6  C   LIG    1       -4.652   7.349   4.219  0.00  0.00    -0.090 A 
ATOM      7  N   LIG    1       -4.780   8.720   4.113  0.00  0.00    -0.580 N 
ATOM      8  H   LIG    1       -5.262   9.302   4.721  0.00  0.00    +0.430 HD
ATOM      9  C   LIG    1       -4.107   9.099   3.003  0.00  0.00    +0.570 A 
ATOM     10  N   LIG    1       -3.575   8.060   2.421  0.00  0.00    -0.500 NA
ATOM     11  C   LIG    1       -3.871   6.946   3.118  0.00  0.00    +0.360 A 
ATOM     12  N   LIG    1       -3.589   5.651   2.973  0.00  0.00    -0.520 NA
BRANCH   5  13
ATOM     13  C   LIG    1       -5.934   6.772   6.303  0.00  0.00    +0.520 C 
ATOM     14  F   LIG    1       -5.594   8.066   6.712  0.00  0.00    -0.170 F 
ATOM     15  F   LIG    1       -5.696   5.875   7.350  0.00  0.00    -0.150 F 
ATOM     16  F   LIG    1       -7.288   6.733   5.954  0.00  0.00    -0.160 F 
ENDBRANCH   5  13
ENDBRANCH   1   3
BRANCH   1  17
ATOM     17  C   LIG    1       -2.913   3.013   2.524  0.00  0.00    +0.260 C 
BRANCH  17  23
ATOM     18  C   LIG    1        0.392   1.094   0.582  0.00  0.00    +0.050 C 
ATOM     19  C   LIG    1       -0.557   1.573   1.683  0.00  0.00    +0.100 C 
ATOM     20  C   LIG    1       -0.077   1.044   3.037  0.00  0.00    +0.220 C 
ATOM     21  O   LIG    1       -1.008   1.432   4.051  0.00  0.00    -0.380 OA
ATOM     22  C   LIG    1       -2.338   0.957   3.824  0.00  0.00    +0.250 C 
ATOM     23  C   LIG    1       -2.840   1.486   2.478  0.00  0.00    +0.070 C 
ATOM     24  N   LIG    1       -1.912   1.069   1.417  0.00  0.00    -0.510 NA
ATOM     25  C   LIG    1       -2.388   1.509   0.099  0.00  0.00    +0.200 C 
BRANCH  23  26
ATOM     26  C   LIG    1       -4.231   0.917   2.192  0.00  0.00    +0.200 C 
BRANCH  26  27
ATOM     27  O   LIG    1       -5.132   1.318   3.227  0.00  0.00    -0.570 OA
ATOM     28  H   LIG    1       -6.035   0.992   3.111  0.00  0.00    +0.390 HD
ENDBRANCH  26  27
ENDBRANCH  23  26
ENDBRANCH  17  23
ENDBRANCH   1  17
TORSDOF 6
