REMARK  Name = ZINCpe000000STFu.2
REMARK                            x       y       z     vdW  Elec       q    Type
REMARK                         _______ _______ _______ _____ _____    ______ ____
ROOT
ATOM      1  N   LIG    1        2.122   5.300  -0.397  0.00  0.00    -0.660 N 
ATOM      2  H   LIG    1        2.131   6.032  -1.034  0.00  0.00    +0.410 HD
ATOM      3  C   LIG    1        3.246   4.973   0.270  0.00  0.00    +0.590 C 
ATOM      4  O   LIG    1        3.250   4.016   1.021  0.00  0.00    -0.510 OA
ENDROOT
BRANCH   3   5
ATOM      5  C   LIG    1        4.469   5.773   0.090  0.00  0.00    -0.050 A 
ATOM      6  C   LIG    1        5.648   5.371   0.652  0.00  0.00    +0.180 A 
ATOM      7  C   LIG    1        6.845   6.207   0.437  0.00  0.00    +0.550 A 
ATOM      8  N   LIG    1        6.727   7.335  -0.293  0.00  0.00    -0.650 N 
ATOM      9  H   LIG    1        7.505   7.896  -0.439  0.00  0.00    +0.440 HD
ATOM     10  C   LIG    1        5.543   7.690  -0.819  0.00  0.00    +0.700 A 
ATOM     11  O   LIG    1        5.471   8.713  -1.473  0.00  0.00    -0.540 OA
ATOM     12  O   LIG    1        7.917   5.887   0.913  0.00  0.00    -0.480 OA
ATOM     13  N   LIG    1        4.437   6.948  -0.646  0.00  0.00    -0.620 N 
ATOM     14  H   LIG    1        3.601   7.239  -1.043  0.00  0.00    +0.430 HD
BRANCH   6  15
ATOM     15  N   LIG    1        5.719   4.205   1.402  0.00  0.00    -0.810 N 
ATOM     16  H   LIG    1        6.579   3.878   1.710  0.00  0.00    +0.410 HD
ATOM     17  H   LIG    1        4.909   3.717   1.617  0.00  0.00    +0.430 HD
ENDBRANCH   6  15
ENDBRANCH   3   5
BRANCH   1  24
ATOM     18  N   LIG    1       -2.052   6.821  -0.113  0.00  0.00    -0.490 NA
ATOM     19  C   LIG    1       -2.622   5.458  -0.207  0.00  0.00    +0.260 C 
ATOM     20  C   LIG    1       -1.453   4.514  -0.042  0.00  0.00    -0.100 A 
ATOM     21  C   LIG    1       -1.394   3.168   0.267  0.00  0.00    +0.020 A 
ATOM     22  C   LIG    1       -0.171   2.529   0.364  0.00  0.00    +0.030 A 
ATOM     23  C   LIG    1        0.997   3.233   0.143  0.00  0.00    +0.030 A 
ATOM     24  C   LIG    1        0.942   4.585  -0.172  0.00  0.00    +0.160 A 
ATOM     25  C   LIG    1       -0.287   5.224  -0.264  0.00  0.00    -0.150 A 
ATOM     26  C   LIG    1       -0.657   6.655  -0.582  0.00  0.00    +0.260 C 
BRANCH  18  27
ATOM     27  C   LIG    1       -2.087   7.312   1.270  0.00  0.00    +0.160 C 
BRANCH  27  29
ATOM     28  C   LIG    1       -3.577   7.937   3.176  0.00  0.00    +0.020 C 
ATOM     29  C   LIG    1       -3.540   7.415   1.738  0.00  0.00    -0.030 C 
ATOM     30  C   LIG    1       -4.303   8.378   0.826  0.00  0.00    +0.030 C 
ENDBRANCH  27  29
ENDBRANCH  18  27
ENDBRANCH   1  24
TORSDOF 5
