REMARK  Name = ZINCrD000000AmWx.0
REMARK                            x       y       z     vdW  Elec       q    Type
REMARK                         _______ _______ _______ _____ _____    ______ ____
ROOT
ATOM      1  C   LIG    1       -3.043  -0.394  -3.320  0.00  0.00    +0.130 A 
ATOM      2  C   LIG    1       -2.416  -1.380  -4.071  0.00  0.00    +0.060 A 
ATOM      3  C   LIG    1       -1.514  -2.236  -3.471  0.00  0.00    -0.030 A 
ATOM      4  C   LIG    1       -1.234  -2.112  -2.118  0.00  0.00    +0.100 A 
ATOM      5  C   LIG    1       -1.860  -1.128  -1.367  0.00  0.00    -0.070 A 
ATOM      6  C   LIG    1       -2.766  -0.274  -1.964  0.00  0.00    +0.030 A 
ENDROOT
BRANCH   1   9
ATOM      7  O   LIG    1       -4.710  -1.132  -5.259  0.00  0.00    -0.500 OA
ATOM      8  C   LIG    1       -4.734   0.037  -4.939  0.00  0.00    +0.490 C 
ATOM      9  N   LIG    1       -3.957   0.475  -3.928  0.00  0.00    -0.670 N 
ATOM     10  H   LIG    1       -4.032   1.393  -3.622  0.00  0.00    +0.410 HD
BRANCH   8  11
ATOM     11  C   LIG    1       -5.631   1.001  -5.672  0.00  0.00    +0.350 C 
BRANCH  11  12
ATOM     12  N   LIG    1       -6.366   0.285  -6.718  0.00  0.00    -0.600 N 
ATOM     13  C   LIG    1       -7.673  -0.328  -6.441  0.00  0.00    +0.380 C 
ATOM     14  S   LIG    1       -7.896  -1.487  -7.849  0.00  0.00    -0.230 S 
ATOM     15  C   LIG    1       -6.715  -0.598  -8.942  0.00  0.00    +0.170 C 
ATOM     16  C   LIG    1       -5.873   0.174  -7.946  0.00  0.00    +0.520 C 
ATOM     17  O   LIG    1       -4.806   0.662  -8.253  0.00  0.00    -0.510 OA
ENDBRANCH  11  12
ENDBRANCH   8  11
ENDBRANCH   1   9
BRANCH   5  18
ATOM     18  C   LIG    1       -1.555  -0.994   0.103  0.00  0.00    +0.140 C 
BRANCH  18  19
ATOM     19  C   LIG    1       -0.322  -0.147   0.285  0.00  0.00    -0.080 A 
ATOM     20  C   LIG    1       -0.439   1.224   0.421  0.00  0.00    +0.010 A 
ATOM     21  C   LIG    1        0.692   2.001   0.588  0.00  0.00    +0.000 A 
ATOM     22  C   LIG    1        1.940   1.408   0.619  0.00  0.00    +0.000 A 
ATOM     23  C   LIG    1        2.057   0.037   0.484  0.00  0.00    +0.000 A 
ATOM     24  C   LIG    1        0.926  -0.740   0.317  0.00  0.00    +0.010 A 
ENDBRANCH  18  19
ENDBRANCH   5  18
BRANCH   4  25
ATOM     25  O   LIG    1       -0.347  -2.956  -1.528  0.00  0.00    -0.320 OA
BRANCH  25  26
ATOM     26  C   LIG    1        0.260  -3.946  -2.361  0.00  0.00    +0.590 C 
ATOM     27  F   LIG    1        0.967  -3.318  -3.392  0.00  0.00    -0.200 F 
ATOM     28  F   LIG    1       -0.732  -4.767  -2.908  0.00  0.00    -0.200 F 
ENDBRANCH  25  26
ENDBRANCH   4  25
TORSDOF 7
