REMARK  Name = ZINCqH0000001FPD.0
REMARK                            x       y       z     vdW  Elec       q    Type
REMARK                         _______ _______ _______ _____ _____    ______ ____
ROOT
ATOM      1  N   LIG    1       -2.609  -2.579  -0.112  0.00  0.00    -0.730 N 
ATOM      2  H   LIG    1       -3.432  -2.064  -0.112  0.00  0.00    +0.400 HD
ATOM      3  C   LIG    1       -1.420  -1.949  -0.034  0.00  0.00    +0.710 C 
ATOM      4  N   LIG    1       -1.374  -0.604   0.043  0.00  0.00    -0.680 N 
ATOM      5  H   LIG    1       -2.195  -0.094   0.121  0.00  0.00    +0.410 HD
ATOM      6  O   LIG    1       -0.390  -2.594  -0.034  0.00  0.00    -0.570 OA
ENDROOT
BRANCH   4   7
ATOM      7  C   LIG    1       -0.140   0.056   0.011  0.00  0.00    +0.200 A 
ATOM      8  C   LIG    1        0.906  -0.462  -0.741  0.00  0.00    -0.010 A 
ATOM      9  C   LIG    1        2.124   0.190  -0.773  0.00  0.00    +0.060 A 
ATOM     10  C   LIG    1        2.305   1.358  -0.058  0.00  0.00    -0.050 A 
ATOM     11  C   LIG    1        1.262   1.881   0.696  0.00  0.00    +0.210 A 
ATOM     12  C   LIG    1        0.038   1.229   0.731  0.00  0.00    -0.030 A 
BRANCH  11  13
ATOM     13  N   LIG    1        1.446   3.065   1.420  0.00  0.00    -0.570 N 
ATOM     14  C   LIG    1        2.648   3.910   1.380  0.00  0.00    +0.270 C 
ATOM     15  C   LIG    1        2.320   5.065   2.346  0.00  0.00    +0.270 C 
ATOM     16  N   LIG    1        0.971   4.743   2.835  0.00  0.00    -0.740 N 
ATOM     17  H   LIG    1        0.463   5.271   3.470  0.00  0.00    +0.430 HD
ATOM     18  C   LIG    1        0.557   3.604   2.264  0.00  0.00    +0.700 C 
ATOM     19  O   LIG    1       -0.529   3.106   2.492  0.00  0.00    -0.570 OA
ENDBRANCH  11  13
ENDBRANCH   4   7
BRANCH   1  20
ATOM     20  C   LIG    1       -2.660  -4.040  -0.196  0.00  0.00    +0.310 C 
BRANCH  20  21
ATOM     21  C   LIG    1       -3.942  -4.461  -0.867  0.00  0.00    -0.090 A 
ATOM     22  C   LIG    1       -5.123  -3.805  -0.574  0.00  0.00    +0.010 A 
ATOM     23  C   LIG    1       -6.298  -4.188  -1.192  0.00  0.00    +0.000 A 
ATOM     24  C   LIG    1       -6.295  -5.232  -2.098  0.00  0.00    +0.000 A 
ATOM     25  C   LIG    1       -5.115  -5.892  -2.387  0.00  0.00    +0.000 A 
ATOM     26  C   LIG    1       -3.938  -5.506  -1.772  0.00  0.00    +0.020 A 
ENDBRANCH  20  21
BRANCH  20  28
ATOM     27  C   LIG    1       -3.858  -4.231   1.988  0.00  0.00    +0.020 C 
ATOM     28  C   LIG    1       -2.603  -4.635   1.212  0.00  0.00    -0.020 C 
ATOM     29  C   LIG    1       -2.530  -6.160   1.120  0.00  0.00    +0.030 C 
ENDBRANCH  20  28
ENDBRANCH   1  20
TORSDOF 5
