REMARK  Name = ZINCrH000004uzGZ.0
REMARK                            x       y       z     vdW  Elec       q    Type
REMARK                         _______ _______ _______ _____ _____    ______ ____
ROOT
ATOM      1  O   LIG    1       -4.786   3.596  -1.012  0.00  0.00    -0.570 OA
ATOM      2  C   LIG    1       -5.082   2.441  -0.777  0.00  0.00    +0.710 C 
ATOM      3  N   LIG    1       -4.168   1.606  -0.243  0.00  0.00    -0.730 N 
ATOM      4  H   LIG    1       -4.405   0.684  -0.056  0.00  0.00    +0.400 HD
ATOM      5  N   LIG    1       -6.324   1.995  -1.051  0.00  0.00    -0.740 N 
ATOM      6  H   LIG    1       -6.560   1.073  -0.864  0.00  0.00    +0.400 HD
ENDROOT
BRANCH   3   7
ATOM      7  C   LIG    1       -2.818   2.091   0.054  0.00  0.00    +0.280 C 
ATOM      8  C   LIG    1       -2.208   1.239   1.170  0.00  0.00    +0.040 C 
ATOM      9  C   LIG    1       -0.720   1.575   1.273  0.00  0.00    +0.050 C 
ATOM     10  C   LIG    1       -0.013   1.086   0.008  0.00  0.00    +0.260 C 
ATOM     11  N   LIG    1       -0.710   1.565  -1.179  0.00  0.00    -0.560 N 
ATOM     12  C   LIG    1       -1.971   1.998  -1.182  0.00  0.00    +0.500 C 
ATOM     13  O   LIG    1       -2.460   2.334  -2.240  0.00  0.00    -0.510 OA
BRANCH  11  14
ATOM     14  C   LIG    1       -0.011   1.570  -2.393  0.00  0.00    +0.100 A 
ATOM     15  C   LIG    1       -0.043   0.455  -3.218  0.00  0.00    +0.050 A 
ATOM     16  C   LIG    1        0.642   0.465  -4.418  0.00  0.00    +0.020 A 
ATOM     17  C   LIG    1        1.369   1.580  -4.793  0.00  0.00    +0.060 A 
ATOM     18  C   LIG    1        1.409   2.691  -3.971  0.00  0.00    -0.010 A 
ATOM     19  C   LIG    1        0.720   2.691  -2.772  0.00  0.00    +0.110 A 
ATOM     20  F   LIG    1        0.758   3.777  -1.969  0.00  0.00    -0.130 F 
ENDBRANCH  11  14
ENDBRANCH   3   7
BRANCH   5  21
ATOM     21  C   LIG    1       -7.317   2.902  -1.631  0.00  0.00    +0.340 C 
BRANCH  21  22
ATOM     22  C   LIG    1       -8.613   2.162  -1.838  0.00  0.00    -0.070 A 
ATOM     23  C   LIG    1       -9.562   2.137  -0.834  0.00  0.00    +0.030 A 
ATOM     24  C   LIG    1      -10.754   1.457  -1.025  0.00  0.00    +0.110 A 
ATOM     25  C   LIG    1      -10.993   0.803  -2.221  0.00  0.00    +0.030 A 
ATOM     26  C   LIG    1      -10.042   0.830  -3.225  0.00  0.00    -0.070 A 
ATOM     27 BR   LIG    1      -10.368  -0.064  -4.859  0.00  0.00    -0.030 Br
ATOM     28  F   LIG    1      -11.682   1.432  -0.043  0.00  0.00    -0.130 F 
ATOM     29  C   LIG    1       -8.854   1.513  -3.035  0.00  0.00    +0.060 A 
ENDBRANCH  21  22
ENDBRANCH   5  21
TORSDOF 4
