REMARK  Name = ZINCpk00000Fhhl8.0
REMARK                            x       y       z     vdW  Elec       q    Type
REMARK                         _______ _______ _______ _____ _____    ______ ____
ROOT
ATOM      1  C   LIG    1        1.254  -0.681  -0.082  0.00  0.00    -0.090 A 
ATOM      2  C   LIG    1        0.060  -0.020   0.148  0.00  0.00    +0.040 A 
ATOM      3  C   LIG    1        0.027   1.359   0.179  0.00  0.00    +0.080 A 
ATOM      4  C   LIG    1        1.200   2.087  -0.022  0.00  0.00    -0.120 A 
ATOM      5  C   LIG    1        2.401   1.414  -0.252  0.00  0.00    +0.030 A 
ATOM      6  C   LIG    1        2.421   0.035  -0.281  0.00  0.00    +0.040 A 
ENDROOT
BRANCH   4   7
ATOM      7  C   LIG    1        1.172   3.565   0.009  0.00  0.00    +0.570 C 
ATOM      8  N   LIG    1        2.128   4.244   0.673  0.00  0.00    -0.620 N 
ATOM      9  C   LIG    1        2.088   5.711   0.787  0.00  0.00    +0.300 C 
ATOM     10  C   LIG    1        1.986   6.067   2.276  0.00  0.00    +0.260 C 
ATOM     11  N   LIG    1        2.952   5.305   3.056  0.00  0.00    -0.720 N 
ATOM     12  H   LIG    1        3.213   5.658   3.921  0.00  0.00    +0.400 HD
ATOM     13  C   LIG    1        3.503   4.155   2.664  0.00  0.00    +0.510 C 
ATOM     14  O   LIG    1        4.236   3.572   3.434  0.00  0.00    -0.540 OA
ATOM     15  C   LIG    1        3.258   3.549   1.309  0.00  0.00    +0.330 C 
ATOM     16  O   LIG    1        0.285   4.168  -0.564  0.00  0.00    -0.520 OA
ENDBRANCH   4   7
BRANCH   1  17
ATOM     17  C   LIG    1        1.283  -2.187  -0.114  0.00  0.00    +0.320 C 
BRANCH  17  19
ATOM     18  C   LIG    1        1.027  -3.972  -1.753  0.00  0.00    +0.550 C 
ATOM     19  N   LIG    1        1.045  -2.651  -1.483  0.00  0.00    -0.720 N 
ATOM     20  H   LIG    1        0.901  -2.009  -2.194  0.00  0.00    +0.400 HD
ATOM     21  O   LIG    1        1.207  -4.776  -0.863  0.00  0.00    -0.500 OA
BRANCH  18  23
ATOM     22  C   LIG    1       -0.181  -3.596  -3.989  0.00  0.00    +0.110 C 
ATOM     23  C   LIG    1        0.782  -4.449  -3.161  0.00  0.00    -0.130 C 
ATOM     24  C   LIG    1        1.950  -5.110  -3.896  0.00  0.00    +0.140 C 
ATOM     25  C   LIG    1        0.775  -5.960  -3.404  0.00  0.00    +0.020 C 
ATOM     26 CL   LIG    1       -0.368  -6.598  -4.644  0.00  0.00    -0.080 Cl
ATOM     27 CL   LIG    1        1.061  -7.032  -1.983  0.00  0.00    -0.050 Cl
ENDBRANCH  18  23
ENDBRANCH  17  19
ENDBRANCH   1  17
TORSDOF 4
