REMARK  Name = ZINCpe000000TgNB.0
REMARK                            x       y       z     vdW  Elec       q    Type
REMARK                         _______ _______ _______ _____ _____    ______ ____
ROOT
ATOM      1  C   LIG    1       -0.016   1.344   0.009  0.00  0.00    +0.510 C 
ATOM      2  N   LIG    1        0.002  -0.004   0.002  0.00  0.00    -0.620 N 
ATOM      3  C   LIG    1        1.274  -0.742  -0.020  0.00  0.00    +0.280 C 
ATOM      4  C   LIG    1        1.250  -1.780   1.113  0.00  0.00    +0.170 C 
ATOM      5  N   LIG    1        0.047  -2.613   0.980  0.00  0.00    -0.530 NA
ATOM      6  C   LIG    1       -1.175  -1.813   1.136  0.00  0.00    +0.190 C 
ATOM      7  C   LIG    1       -1.250  -0.776   0.010  0.00  0.00    +0.300 C 
ATOM      8  O   LIG    1       -1.075   1.936   0.018  0.00  0.00    -0.520 OA
ENDROOT
BRANCH   1  14
ATOM      9  C   LIG    1        0.344   4.237   0.956  0.00  0.00    +0.540 C 
ATOM     10  N   LIG    1        1.000   3.558  -0.006  0.00  0.00    -0.610 N 
ATOM     11  C   LIG    1        1.559   4.141  -1.240  0.00  0.00    +0.250 C 
ATOM     12  C   LIG    1        2.687   3.167  -1.663  0.00  0.00    +0.040 C 
ATOM     13  C   LIG    1        2.072   1.794  -1.283  0.00  0.00    +0.040 C 
ATOM     14  C   LIG    1        1.278   2.115   0.001  0.00  0.00    +0.220 C 
ATOM     15  O   LIG    1       -0.075   3.652   1.932  0.00  0.00    -0.520 OA
BRANCH   9  16
ATOM     16  C   LIG    1        0.129   5.722   0.817  0.00  0.00    +0.050 C 
BRANCH  16  18
ATOM     17  C   LIG    1       -0.855   7.750   1.895  0.00  0.00    +0.010 C 
ATOM     18  C   LIG    1       -0.637   6.242   2.035  0.00  0.00    +0.030 C 
ENDBRANCH  16  18
ENDBRANCH   9  16
ENDBRANCH   1  14
BRANCH   5  19
ATOM     19  C   LIG    1        0.071  -3.728   1.936  0.00  0.00    +0.330 C 
BRANCH  19  20
ATOM     20  C   LIG    1        1.432  -4.375   1.920  0.00  0.00    +0.180 A 
ATOM     21  N   LIG    1        2.446  -4.051   2.665  0.00  0.00    -0.380 NA
ATOM     22  O   LIG    1        3.397  -4.761   2.412  0.00  0.00    +0.080 OA
ATOM     23  C   LIG    1        3.070  -5.630   1.451  0.00  0.00    +0.180 A 
ATOM     24  C   LIG    1        3.966  -6.683   0.850  0.00  0.00    +0.260 C 
ATOM     25  N   LIG    1        1.819  -5.395   1.134  0.00  0.00    -0.470 NA
ENDBRANCH  19  20
ENDBRANCH   5  19
TORSDOF 5
