REMARK  Name = ZINCtV00001bB3DW.0
REMARK                            x       y       z     vdW  Elec       q    Type
REMARK                         _______ _______ _______ _____ _____    ______ ____
ROOT
ATOM      1  N   LIG    1        0.064  -2.104   3.609  0.00  0.00    -0.230 NA
ATOM      2  C   LIG    1        0.181  -2.760   4.723  0.00  0.00    +0.140 C 
ATOM      3  C   LIG    1        0.188  -2.055   6.069  0.00  0.00    +0.060 C 
ATOM      4  C   LIG    1        1.244  -2.753   6.939  0.00  0.00    +0.240 C 
ATOM      5  O   LIG    1        0.911  -4.134   7.070  0.00  0.00    -0.300 OA
ATOM      6  C   LIG    1        0.685  -4.860   5.947  0.00  0.00    +0.160 A 
ATOM      7  C   LIG    1        0.817  -6.240   5.976  0.00  0.00    -0.010 A 
ATOM      8  C   LIG    1        0.583  -6.983   4.834  0.00  0.00    +0.060 A 
ATOM      9  C   LIG    1        0.214  -6.363   3.653  0.00  0.00    -0.020 A 
ATOM     10  C   LIG    1        0.079  -4.989   3.604  0.00  0.00    +0.090 A 
ATOM     11  C   LIG    1        0.308  -4.234   4.750  0.00  0.00    -0.120 A 
ENDROOT
BRANCH   4  12
ATOM     12  C   LIG    1        1.275  -2.111   8.302  0.00  0.00    -0.090 A 
ATOM     13  C   LIG    1        0.385  -2.519   9.278  0.00  0.00    +0.040 A 
ATOM     14  C   LIG    1        0.417  -1.934  10.530  0.00  0.00    +0.010 A 
ATOM     15  C   LIG    1        1.331  -0.934  10.803  0.00  0.00    +0.020 A 
ATOM     16  C   LIG    1        2.218  -0.523   9.826  0.00  0.00    +0.010 A 
ATOM     17  C   LIG    1        2.189  -1.111   8.575  0.00  0.00    +0.010 A 
ENDBRANCH   4  12
BRANCH   1  18
ATOM     18  N   LIG    1        0.035  -0.703   3.620  0.00  0.00    -0.580 N 
ATOM     19  H   LIG    1        0.023  -0.225   4.464  0.00  0.00    +0.400 HD
BRANCH  18  24
ATOM     20  C   LIG    1        0.026   0.025   0.018  0.00  0.00    -0.140 A 
ATOM     21  C   LIG    1        0.003   1.407   0.031  0.00  0.00    +0.050 A 
ATOM     22  C   LIG    1       -0.019   2.091   1.233  0.00  0.00    +0.080 A 
ATOM     23  C   LIG    1       -0.007   1.395   2.426  0.00  0.00    -0.080 A 
ATOM     24  C   LIG    1        0.022   0.004   2.417  0.00  0.00    +0.230 A 
ATOM     25 CL   LIG    1       -0.027   2.254   3.934  0.00  0.00    -0.060 Cl
ATOM     26  C   LIG    1        0.038  -0.679   1.207  0.00  0.00    +0.060 A 
BRANCH  20  28
ATOM     27  F   LIG    1       -1.269  -0.972  -1.703  0.00  0.00    -0.170 F 
ATOM     28  C   LIG    1        0.044  -0.716  -1.294  0.00  0.00    +0.510 C 
ATOM     29  F   LIG    1        0.728  -1.926  -1.137  0.00  0.00    -0.170 F 
ATOM     30  F   LIG    1        0.689   0.063  -2.260  0.00  0.00    -0.170 F 
ENDBRANCH  20  28
ENDBRANCH  18  24
ENDBRANCH   1  18
TORSDOF 4
