REMARK  Name = ZINCvU0000000AZE.1
REMARK                            x       y       z     vdW  Elec       q    Type
REMARK                         _______ _______ _______ _____ _____    ______ ____
ROOT
ATOM      1  O   LIG    1        5.974   3.659   0.801  0.00  0.00    -0.530 OA
ATOM      2  C   LIG    1        5.318   3.272   1.745  0.00  0.00    +0.520 C 
ATOM      3  N   LIG    1        4.460   2.245   1.593  0.00  0.00    -0.740 N 
ATOM      4  H   LIG    1        3.935   1.935   2.348  0.00  0.00    +0.400 HD
ENDROOT
BRANCH   3   5
ATOM      5  C   LIG    1        4.318   1.595   0.288  0.00  0.00    +0.250 C 
BRANCH   5   6
ATOM      6  C   LIG    1        3.411   0.371   0.423  0.00  0.00    +0.200 C 
BRANCH   6   7
ATOM      7  C   LIG    1        3.103  -0.180  -0.945  0.00  0.00    -0.070 A 
ATOM      8  C   LIG    1        1.948   0.203  -1.601  0.00  0.00    +0.060 A 
ATOM      9  C   LIG    1        1.668  -0.298  -2.858  0.00  0.00    +0.010 A 
ATOM     10  C   LIG    1        2.537  -1.192  -3.456  0.00  0.00    +0.030 A 
ATOM     11  C   LIG    1        3.689  -1.580  -2.799  0.00  0.00    +0.020 A 
ATOM     12  C   LIG    1        3.973  -1.074  -1.543  0.00  0.00    -0.030 A 
ATOM     13 CL   LIG    1        5.421  -1.561  -0.718  0.00  0.00    -0.070 Cl
ENDBRANCH   6   7
BRANCH   6  14
ATOM     14  N   LIG    1        2.159   0.760   1.087  0.00  0.00    -0.520 NA
ATOM     15  C   LIG    1        2.266   0.600   2.554  0.00  0.00    +0.170 C 
ATOM     16  C   LIG    1        1.399   1.742   3.140  0.00  0.00    +0.030 C 
ATOM     17  C   LIG    1        1.685   2.896   2.143  0.00  0.00    +0.000 C 
ATOM     18  C   LIG    1        1.818   2.163   0.791  0.00  0.00    +0.170 C 
ENDBRANCH   6  14
ENDBRANCH   5   6
ENDBRANCH   3   5
BRANCH   2  19
ATOM     19  C   LIG    1        5.464   3.941   3.088  0.00  0.00    +0.070 C 
BRANCH  19  20
ATOM     20  C   LIG    1        6.494   5.068   2.987  0.00  0.00    +0.210 C 
BRANCH  20  21
ATOM     21  C   LIG    1        6.640   5.736   4.330  0.00  0.00    +0.200 A 
ATOM     22  N   LIG    1        7.480   5.386   5.263  0.00  0.00    -0.470 NA
ATOM     23  C   LIG    1        7.330   6.206   6.314  0.00  0.00    +0.170 A 
ATOM     24  C   LIG    1        6.346   7.088   6.006  0.00  0.00    -0.010 A 
ATOM     25  O   LIG    1        5.922   6.783   4.760  0.00  0.00    -0.190 OA
BRANCH  24  26
ATOM     26  C   LIG    1        5.836   8.175   6.868  0.00  0.00    -0.030 A 
ATOM     27  C   LIG    1        4.817   9.013   6.411  0.00  0.00    +0.070 A 
ATOM     28  C   LIG    1        4.343  10.023   7.221  0.00  0.00    -0.010 A 
ATOM     29  C   LIG    1        4.881  10.213   8.484  0.00  0.00    +0.110 A 
ATOM     30  C   LIG    1        5.896   9.387   8.941  0.00  0.00    +0.000 A 
ATOM     31  F   LIG    1        4.416  11.207   9.272  0.00  0.00    -0.130 F 
ATOM     32  C   LIG    1        6.375   8.371   8.141  0.00  0.00    +0.070 A 
ENDBRANCH  24  26
ENDBRANCH  20  21
ENDBRANCH  19  20
ENDBRANCH   2  19
TORSDOF 8
