REMARK  Name = ZINCpe000000Wm2R.0
REMARK                            x       y       z     vdW  Elec       q    Type
REMARK                         _______ _______ _______ _____ _____    ______ ____
ROOT
ATOM      1  C   LIG    1        4.602  10.125   0.204  0.00  0.00    +0.350 A 
ATOM      2  N   LIG    1        4.978   8.968  -0.304  0.00  0.00    -0.510 NA
ATOM      3  C   LIG    1        4.071   8.033  -0.012  0.00  0.00    +0.200 A 
ATOM      4  N   LIG    1        3.100   8.581   0.682  0.00  0.00    -0.320 NA
ATOM      5  N   LIG    1        3.424   9.938   0.840  0.00  0.00    -0.470 N 
ATOM      6  H   LIG    1        2.904  10.608   1.310  0.00  0.00    +0.440 HD
ENDROOT
BRANCH   1  10
ATOM      7  C   LIG    1        6.720  13.796  -0.105  0.00  0.00    +0.150 A 
ATOM      8  C   LIG    1        7.236  12.647  -0.692  0.00  0.00    -0.010 A 
ATOM      9  C   LIG    1        6.552  11.455  -0.594  0.00  0.00    +0.130 A 
ATOM     10  C   LIG    1        5.340  11.402   0.097  0.00  0.00    -0.080 A 
ATOM     11  C   LIG    1        4.822  12.560   0.680  0.00  0.00    +0.080 A 
ATOM     12  C   LIG    1        5.515  13.748   0.582  0.00  0.00    -0.070 A 
BRANCH   7  14
ATOM     13  C   LIG    1        6.810  16.112   0.422  0.00  0.00    +0.240 C 
ATOM     14  O   LIG    1        7.397  14.970  -0.204  0.00  0.00    -0.310 OA
ENDBRANCH   7  14
ENDBRANCH   1  10
BRANCH   3  15
ATOM     15  S   LIG    1        4.159   6.338  -0.487  0.00  0.00    +0.110 S 
BRANCH  15  16
ATOM     16  C   LIG    1        2.642   5.638   0.217  0.00  0.00    +0.090 C 
BRANCH  16  17
ATOM     17  C   LIG    1        2.569   4.168  -0.109  0.00  0.00    +0.540 C 
ATOM     18  N   LIG    1        1.520   3.435   0.316  0.00  0.00    -0.720 N 
ATOM     19  H   LIG    1        0.813   3.853   0.831  0.00  0.00    +0.410 HD
ATOM     20  O   LIG    1        3.453   3.645  -0.752  0.00  0.00    -0.510 OA
BRANCH  18  21
ATOM     21  C   LIG    1        1.449   2.006  -0.001  0.00  0.00    +0.280 C 
ATOM     22  C   LIG    1       -0.019   1.546   0.011  0.00  0.00    +0.080 C 
ATOM     23  C   LIG    1        0.002  -0.004   0.002  0.00  0.00    -0.300 C 
ATOM     24  S   LIG    1        1.339  -0.391   1.194  0.00  0.00    +2.390 S 
ATOM     25  O   LIG    1        2.153  -1.431   0.668  0.00  0.00    -0.930 OA
ATOM     26  O   LIG    1        0.787  -0.513   2.498  0.00  0.00    -0.930 OA
ATOM     27  C   LIG    1        2.228   1.202   1.058  0.00  0.00    -0.330 C 
ENDBRANCH  18  21
ENDBRANCH  16  17
ENDBRANCH  15  16
ENDBRANCH   3  15
TORSDOF 6
