REMARK  Name = ZINCpe000000Wm2R.1
REMARK                            x       y       z     vdW  Elec       q    Type
REMARK                         _______ _______ _______ _____ _____    ______ ____
ROOT
ATOM      1  C   LIG    1        3.195   9.818   0.942  0.00  0.00    +0.290 A 
ATOM      2  N   LIG    1        4.327  10.168   0.374  0.00  0.00    -0.300 NA
ATOM      3  N   LIG    1        4.859   9.014  -0.223  0.00  0.00    -0.460 N 
ATOM      4  H   LIG    1        5.689   8.948  -0.721  0.00  0.00    +0.450 HD
ATOM      5  C   LIG    1        3.988   8.013   0.032  0.00  0.00    +0.250 A 
ATOM      6  N   LIG    1        2.989   8.510   0.728  0.00  0.00    -0.540 NA
ENDROOT
BRANCH   1  10
ATOM      7  C   LIG    1        0.601  12.412   3.094  0.00  0.00    +0.150 A 
ATOM      8  C   LIG    1        1.773  12.908   2.540  0.00  0.00    -0.020 A 
ATOM      9  C   LIG    1        2.616  12.070   1.841  0.00  0.00    +0.100 A 
ATOM     10  C   LIG    1        2.291  10.723   1.693  0.00  0.00    -0.060 A 
ATOM     11  C   LIG    1        1.111  10.228   2.246  0.00  0.00    +0.110 A 
ATOM     12  C   LIG    1        0.274  11.071   2.948  0.00  0.00    -0.070 A 
BRANCH   7  14
ATOM     13  C   LIG    1       -1.416  12.664   4.326  0.00  0.00    +0.240 C 
ATOM     14  O   LIG    1       -0.227  13.241   3.782  0.00  0.00    -0.310 OA
ENDBRANCH   7  14
ENDBRANCH   1  10
BRANCH   5  15
ATOM     15  S   LIG    1        4.156   6.337  -0.486  0.00  0.00    +0.090 S 
BRANCH  15  16
ATOM     16  C   LIG    1        2.642   5.638   0.217  0.00  0.00    +0.110 C 
BRANCH  16  17
ATOM     17  C   LIG    1        2.569   4.168  -0.109  0.00  0.00    +0.540 C 
ATOM     18  N   LIG    1        1.520   3.435   0.316  0.00  0.00    -0.710 N 
ATOM     19  H   LIG    1        0.813   3.853   0.831  0.00  0.00    +0.410 HD
ATOM     20  O   LIG    1        3.453   3.645  -0.752  0.00  0.00    -0.520 OA
BRANCH  18  21
ATOM     21  C   LIG    1        1.449   2.006  -0.001  0.00  0.00    +0.280 C 
ATOM     22  C   LIG    1       -0.019   1.546   0.011  0.00  0.00    +0.080 C 
ATOM     23  C   LIG    1        0.002  -0.004   0.002  0.00  0.00    -0.300 C 
ATOM     24  S   LIG    1        1.339  -0.391   1.194  0.00  0.00    +2.400 S 
ATOM     25  O   LIG    1        2.153  -1.431   0.668  0.00  0.00    -0.930 OA
ATOM     26  O   LIG    1        0.787  -0.513   2.498  0.00  0.00    -0.930 OA
ATOM     27  C   LIG    1        2.228   1.202   1.058  0.00  0.00    -0.330 C 
ENDBRANCH  18  21
ENDBRANCH  16  17
ENDBRANCH  15  16
ENDBRANCH   5  15
TORSDOF 6
