REMARK  Name = ZINC9p0000001xmk.0
REMARK                            x       y       z     vdW  Elec       q    Type
REMARK                         _______ _______ _______ _____ _____    ______ ____
ROOT
ATOM      1  C   LIG    1       -0.013   1.086   0.008  0.00  0.00    +0.160 C 
ATOM      2  C   LIG    1       -0.753   1.593  -1.232  0.00  0.00    +0.040 C 
ATOM      3  C   LIG    1       -0.037   1.099  -2.490  0.00  0.00    +0.030 C 
ATOM      4  C   LIG    1        1.399   1.629  -2.501  0.00  0.00    +0.020 C 
ATOM      5  C   LIG    1        2.139   1.122  -1.262  0.00  0.00    +0.040 C 
ATOM      6  C   LIG    1        1.423   1.615  -0.003  0.00  0.00    +0.040 C 
ENDROOT
BRANCH   1   7
ATOM      7  N   LIG    1       -0.700   1.560   1.217  0.00  0.00    -0.510 N 
ATOM      8  H   LIG    1       -0.787   2.564   1.182  0.00  0.00    +0.430 HD
ATOM      9  H   LIG    1       -0.168   1.295   2.032  0.00  0.00    +0.430 HD
BRANCH   7  11
ATOM     10  C   LIG    1       -2.753   1.449   2.547  0.00  0.00    +0.080 C 
ATOM     11  C   LIG    1       -2.037   0.955   1.288  0.00  0.00    +0.250 C 
ENDBRANCH   7  11
ENDBRANCH   1   7
TORSDOF 2
