REMARK  Name = ZINCpk00000Fe82m.0
REMARK                            x       y       z     vdW  Elec       q    Type
REMARK                         _______ _______ _______ _____ _____    ______ ____
ROOT
ATOM      1  C   LIG    1       -4.002  -0.692  -1.132  0.00  0.00    +0.360 A 
ATOM      2  C   LIG    1       -2.960   0.227  -1.172  0.00  0.00    -0.050 A 
ATOM      3  C   LIG    1       -2.417   0.682   0.017  0.00  0.00    -0.040 A 
ATOM      4  C   LIG    1       -2.945   0.207   1.210  0.00  0.00    -0.040 A 
ATOM      5  C   LIG    1       -3.984  -0.702   1.175  0.00  0.00    +0.300 A 
ATOM      6  N   LIG    1       -4.478  -1.121   0.026  0.00  0.00    -0.470 NA
ENDROOT
BRANCH   1   8
ATOM      7  C   LIG    1       -5.493  -2.129  -2.295  0.00  0.00    +0.520 C 
ATOM      8  N   LIG    1       -4.554  -1.163  -2.323  0.00  0.00    -0.660 N 
ATOM      9  H   LIG    1       -4.263  -0.794  -3.171  0.00  0.00    +0.420 HD
ATOM     10  O   LIG    1       -5.924  -2.525  -1.232  0.00  0.00    -0.460 OA
BRANCH   7  14
ATOM     11  C   LIG    1       -8.442  -4.667  -5.258  0.00  0.00    +0.040 C 
ATOM     12  C   LIG    1       -8.184  -3.400  -4.440  0.00  0.00    +0.140 C 
ATOM     13  C   LIG    1       -7.174  -3.699  -3.315  0.00  0.00    +0.050 C 
ATOM     14  C   LIG    1       -6.007  -2.718  -3.583  0.00  0.00    -0.030 C 
ATOM     15  C   LIG    1       -6.688  -1.633  -4.455  0.00  0.00    +0.230 C 
ATOM     16  O   LIG    1       -7.603  -2.387  -5.278  0.00  0.00    -0.370 OA
ENDBRANCH   7  14
ENDBRANCH   1   8
BRANCH   3  17
ATOM     17  C   LIG    1       -1.284   1.675   0.017  0.00  0.00    +0.330 C 
BRANCH  17  18
ATOM     18  N   LIG    1       -0.006   0.957   0.006  0.00  0.00    -0.730 N 
ATOM     19  H   LIG    1        0.005  -0.013   0.000  0.00  0.00    +0.400 HD
ATOM     20  C   LIG    1        1.153   1.645  -0.002  0.00  0.00    +0.530 C 
ATOM     21  O   LIG    1        1.138   2.858   0.005  0.00  0.00    -0.530 OA
BRANCH  20  22
ATOM     22  C   LIG    1        2.467   0.907  -0.019  0.00  0.00    -0.040 C 
ATOM     23  C   LIG    1        2.621   0.030   1.242  0.00  0.00    +0.210 C 
ATOM     24  O   LIG    1        3.979   0.140   1.682  0.00  0.00    -0.370 OA
ATOM     25  C   LIG    1        4.719   0.984   0.786  0.00  0.00    +0.140 C 
ATOM     26  C   LIG    1        5.731   1.827   1.564  0.00  0.00    +0.050 C 
ATOM     27  C   LIG    1        3.657   1.895   0.119  0.00  0.00    +0.050 C 
ENDBRANCH  20  22
ENDBRANCH  17  18
ENDBRANCH   3  17
TORSDOF 5
