REMARK  Name = ZINCvU00000009Cy.0
REMARK                            x       y       z     vdW  Elec       q    Type
REMARK                         _______ _______ _______ _____ _____    ______ ____
ROOT
ATOM      1  C   LIG    1        4.613   4.130   0.047  0.00  0.00    -0.140 A 
ATOM      2  C   LIG    1        4.013   5.391  -0.020  0.00  0.00    +0.080 A 
ATOM      3  C   LIG    1        4.794   6.524  -0.040  0.00  0.00    +0.010 A 
ATOM      4  C   LIG    1        6.182   6.414  -0.003  0.00  0.00    +0.170 A 
ATOM      5  C   LIG    1        6.783   5.160   0.059  0.00  0.00    +0.010 A 
ATOM      6  C   LIG    1        6.006   4.024   0.083  0.00  0.00    +0.120 A 
ENDROOT
BRANCH   1   9
ATOM      7  N   LIG    1        2.435   3.019   0.038  0.00  0.00    -0.630 N 
ATOM      8  H   LIG    1        2.017   3.894  -0.004  0.00  0.00    +0.420 HD
ATOM      9  C   LIG    1        3.778   2.915   0.073  0.00  0.00    +0.560 C 
ATOM     10  O   LIG    1        4.301   1.819   0.127  0.00  0.00    -0.460 OA
BRANCH   7  17
ATOM     11  C   LIG    1       -2.039  -3.147   0.163  0.00  0.00    +0.110 C 
ATOM     12  C   LIG    1       -0.900  -2.160   0.153  0.00  0.00    -0.070 A 
ATOM     13  C   LIG    1        0.410  -2.612   0.200  0.00  0.00    +0.040 A 
ATOM     14  C   LIG    1        1.457  -1.725   0.191  0.00  0.00    +0.080 A 
ATOM     15  C   LIG    1        1.215  -0.336   0.135  0.00  0.00    +0.100 A 
ATOM     16  N   LIG    1        2.106   0.675   0.118  0.00  0.00    -0.460 NA
ATOM     17  C   LIG    1        1.651   1.879   0.063  0.00  0.00    +0.330 A 
ATOM     18  S   LIG    1       -0.107   1.867   0.023  0.00  0.00    +0.060 S 
ATOM     19  C   LIG    1       -0.110   0.107   0.088  0.00  0.00    -0.170 A 
ATOM     20  C   LIG    1       -1.160  -0.808   0.097  0.00  0.00    +0.060 A 
ENDBRANCH   7  17
ENDBRANCH   1   9
BRANCH   4  21
ATOM     21  N   LIG    1        6.969   7.560  -0.028  0.00  0.00    -1.050 N 
ATOM     22  H   LIG    1        7.708   7.654   0.593  0.00  0.00    +0.430 HD
BRANCH  21  23
ATOM     23  S   LIG    1        6.645   8.763  -1.118  0.00  0.00    +2.690 S 
ATOM     24  O   LIG    1        7.678   9.727  -0.971  0.00  0.00    -0.940 OA
ATOM     25  O   LIG    1        5.266   9.075  -0.974  0.00  0.00    -0.940 OA
BRANCH  23  26
ATOM     26  C   LIG    1        6.833   8.073  -2.729  0.00  0.00    -0.670 A 
ATOM     27  C   LIG    1        8.083   8.024  -3.317  0.00  0.00    +0.160 A 
ATOM     28  C   LIG    1        8.233   7.478  -4.578  0.00  0.00    +0.040 A 
ATOM     29  C   LIG    1        7.131   6.990  -5.256  0.00  0.00    +0.020 A 
ATOM     30  C   LIG    1        5.878   7.044  -4.669  0.00  0.00    -0.050 A 
ATOM     31 CL   LIG    1        4.494   6.432  -5.518  0.00  0.00    -0.030 Cl
ATOM     32 CL   LIG    1        7.318   6.311  -6.843  0.00  0.00    -0.030 Cl
ATOM     33  C   LIG    1        5.731   7.586  -3.405  0.00  0.00    +0.160 A 
ENDBRANCH  23  26
ENDBRANCH  21  23
ENDBRANCH   4  21
TORSDOF 5
