REMARK  Name = ZINCrH000004nCnv.0
REMARK                            x       y       z     vdW  Elec       q    Type
REMARK                         _______ _______ _______ _____ _____    ______ ____
ROOT
ATOM      1  C   LIG    1       -0.746   1.580   1.277  0.00  0.00    +0.260 C 
ENDROOT
BRANCH   1   4
ATOM      2  N   LIG    1       -0.031  -0.358   2.638  0.00  0.00    -0.660 N 
ATOM      3  H   LIG    1       -0.480  -0.934   1.999  0.00  0.00    +0.420 HD
ATOM      4  C   LIG    1       -0.080   0.981   2.489  0.00  0.00    +0.510 C 
ATOM      5  O   LIG    1        0.412   1.703   3.330  0.00  0.00    -0.510 OA
BRANCH   2  11
ATOM      6  C   LIG    1        1.337  -2.131   3.559  0.00  0.00    +0.110 A 
ATOM      7  C   LIG    1        2.030  -2.677   4.626  0.00  0.00    -0.060 A 
ATOM      8  C   LIG    1        2.050  -2.025   5.846  0.00  0.00    +0.040 A 
ATOM      9  C   LIG    1        1.382  -0.825   6.002  0.00  0.00    -0.010 A 
ATOM     10  C   LIG    1        0.692  -0.270   4.941  0.00  0.00    +0.070 A 
ATOM     11  C   LIG    1        0.668  -0.918   3.715  0.00  0.00    +0.110 A 
BRANCH   6  13
ATOM     12  C   LIG    1        2.020  -4.012   2.275  0.00  0.00    +0.250 C 
ATOM     13  O   LIG    1        1.312  -2.773   2.361  0.00  0.00    -0.320 OA
ENDBRANCH   6  13
ENDBRANCH   2  11
ENDBRANCH   1   4
BRANCH   1  14
ATOM     14  N   LIG    1       -0.667   3.042   1.350  0.00  0.00    -0.710 N 
ATOM     15  H   LIG    1        0.040   3.464   1.862  0.00  0.00    +0.410 HD
ATOM     16  C   LIG    1       -1.576   3.798   0.704  0.00  0.00    +0.600 C 
ATOM     17  O   LIG    1       -2.463   3.268   0.061  0.00  0.00    -0.500 OA
BRANCH  16  18
ATOM     18  C   LIG    1       -1.497   5.260   0.777  0.00  0.00    -0.270 A 
ATOM     19  C   LIG    1       -2.356   6.132   0.168  0.00  0.00    +0.100 A 
ATOM     20  C   LIG    1       -2.049   7.451   0.403  0.00  0.00    +0.000 A 
ATOM     21  C   LIG    1       -0.976   7.655   1.177  0.00  0.00    -0.060 A 
ATOM     22  S   LIG    1       -0.286   6.173   1.666  0.00  0.00    +0.200 S 
ENDBRANCH  16  18
ENDBRANCH   1  14
BRANCH   1  23
ATOM     23  C   LIG    1       -0.036   1.093   0.012  0.00  0.00    +0.080 C 
BRANCH  23  24
ATOM     24  C   LIG    1       -0.775   1.593  -1.202  0.00  0.00    -0.070 A 
ATOM     25  C   LIG    1       -1.784   0.831  -1.760  0.00  0.00    +0.020 A 
ATOM     26  C   LIG    1       -2.466   1.291  -2.871  0.00  0.00    +0.010 A 
ATOM     27  C   LIG    1       -2.131   2.510  -3.431  0.00  0.00    +0.000 A 
ATOM     28  C   LIG    1       -1.118   3.270  -2.876  0.00  0.00    +0.010 A 
ATOM     29  C   LIG    1       -0.440   2.812  -1.762  0.00  0.00    +0.000 A 
ENDBRANCH  23  24
ENDBRANCH   1  23
TORSDOF 7
