REMARK  Name = ZINCpe00000bk7wN.0
REMARK                            x       y       z     vdW  Elec       q    Type
REMARK                         _______ _______ _______ _____ _____    ______ ____
ROOT
ATOM      1  N   LIG    1       -0.740   1.578   1.181  0.00  0.00    -0.720 N 
ATOM      2  H   LIG    1       -0.460   2.399   1.616  0.00  0.00    +0.400 HD
ATOM      3  C   LIG    1       -1.798   0.890   1.655  0.00  0.00    +0.590 C 
ATOM      4  O   LIG    1       -2.148  -0.139   1.109  0.00  0.00    -0.510 OA
ENDROOT
BRANCH   3   5
ATOM      5  C   LIG    1       -2.528   1.385   2.833  0.00  0.00    -0.030 A 
ATOM      6  C   LIG    1       -3.615   0.806   3.432  0.00  0.00    -0.160 A 
ATOM      7  C   LIG    1       -4.369  -0.453   3.104  0.00  0.00    +0.330 C 
ATOM      8  O   LIG    1       -5.187  -0.778   4.239  0.00  0.00    -0.380 OA
ATOM      9  C   LIG    1       -5.995   0.298   4.718  0.00  0.00    +0.230 C 
ATOM     10  C   LIG    1       -5.117   1.345   5.419  0.00  0.00    +0.120 C 
ATOM     11  C   LIG    1       -3.951   1.645   4.507  0.00  0.00    +0.040 A 
ATOM     12  N   LIG    1       -3.110   2.632   4.519  0.00  0.00    -0.250 NA
ATOM     13  N   LIG    1       -2.257   2.516   3.559  0.00  0.00    -0.390 N 
ATOM     14  H   LIG    1       -1.534   3.136   3.376  0.00  0.00    +0.440 HD
ENDBRANCH   3   5
BRANCH   1  23
ATOM     15  C   LIG    1        1.658   2.541   1.213  0.00  0.00    +0.050 C 
ATOM     16  C   LIG    1        1.426   1.642  -0.003  0.00  0.00    -0.080 C 
ATOM     17  C   LIG    1        1.526   2.464  -1.306  0.00  0.00    +0.280 C 
ATOM     18  N   LIG    1        0.127   2.833  -1.623  0.00  0.00    -0.620 N 
ATOM     19  C   LIG    1       -0.656   1.621  -1.289  0.00  0.00    +0.270 C 
ATOM     20  C   LIG    1       -0.330   4.006  -2.106  0.00  0.00    +0.560 C 
ATOM     21  O   LIG    1        0.445   4.912  -2.330  0.00  0.00    -0.520 OA
ATOM     22  C   LIG    1        2.439   0.495  -0.016  0.00  0.00    +0.070 C 
ATOM     23  C   LIG    1       -0.013   1.086   0.008  0.00  0.00    +0.260 C 
BRANCH  20  24
ATOM     24  C   LIG    1       -1.802   4.191  -2.366  0.00  0.00    -0.080 C 
ATOM     25  C   LIG    1       -2.252   4.312  -3.824  0.00  0.00    +0.070 C 
ATOM     26  C   LIG    1       -2.258   5.544  -2.916  0.00  0.00    +0.190 C 
ATOM     27  F   LIG    1       -1.275   6.515  -3.138  0.00  0.00    -0.160 F 
ENDBRANCH  20  24
ENDBRANCH   1  23
TORSDOF 3
