REMARK  Name = ZINCpk00000khZxl.0
REMARK                            x       y       z     vdW  Elec       q    Type
REMARK                         _______ _______ _______ _____ _____    ______ ____
ROOT
ATOM      1  C   LIG    1       -1.224   1.744  -0.032  0.00  0.00    +0.120 A 
ATOM      2  C   LIG    1       -1.244   3.131  -0.018  0.00  0.00    -0.050 A 
ATOM      3  C   LIG    1       -0.059   3.844  -0.010  0.00  0.00    +0.060 A 
ATOM      4  C   LIG    1        1.155   3.175  -0.010  0.00  0.00    +0.060 A 
ATOM      5  O   LIG    1        2.314   3.887  -0.006  0.00  0.00    -0.310 OA
ATOM      6  C   LIG    1        3.502   3.223   0.430  0.00  0.00    +0.250 C 
ATOM      7  C   LIG    1        3.619   1.881  -0.307  0.00  0.00    +0.260 C 
ATOM      8  N   LIG    1        2.405   1.103  -0.009  0.00  0.00    -0.560 N 
ATOM      9  C   LIG    1        2.471  -0.216   0.263  0.00  0.00    +0.500 C 
ATOM     10  O   LIG    1        1.474  -0.815   0.608  0.00  0.00    -0.490 OA
ATOM     11  C   LIG    1        1.175   1.783  -0.016  0.00  0.00    +0.120 A 
ATOM     12  C   LIG    1       -0.013   1.069  -0.025  0.00  0.00    +0.020 A 
ENDROOT
BRANCH   1  14
ATOM     13  C   LIG    1       -3.601   1.808  -0.054  0.00  0.00    +0.250 C 
ATOM     14  O   LIG    1       -2.392   1.048  -0.048  0.00  0.00    -0.310 OA
ENDBRANCH   1  14
BRANCH   9  15
ATOM     15  C   LIG    1        3.783  -0.946   0.136  0.00  0.00    +0.340 C 
BRANCH  15  16
ATOM     16  N   LIG    1        3.592  -2.357   0.483  0.00  0.00    -0.590 N 
ATOM     17  C   LIG    1        3.231  -3.325  -0.566  0.00  0.00    +0.280 C 
ATOM     18  C   LIG    1        1.771  -3.737  -0.371  0.00  0.00    +0.020 C 
ATOM     19  C   LIG    1        1.661  -4.892   0.608  0.00  0.00    +0.010 C 
ATOM     20  C   LIG    1        2.051  -4.530   2.029  0.00  0.00    +0.060 C 
ATOM     21  C   LIG    1        3.545  -4.210   2.116  0.00  0.00    +0.170 C 
ATOM     22  C   LIG    1        3.751  -2.756   1.745  0.00  0.00    +0.500 C 
ATOM     23  O   LIG    1        4.058  -1.952   2.599  0.00  0.00    -0.520 OA
BRANCH  21  24
ATOM     24  O   LIG    1        4.008  -4.438   3.449  0.00  0.00    -0.360 OA
ATOM     25  C   LIG    1        5.379  -4.833   3.528  0.00  0.00    +0.200 C 
ENDBRANCH  21  24
ENDBRANCH  15  16
ENDBRANCH   9  15
TORSDOF 4
