REMARK  Name = ZINCpe000000YBhY.0
REMARK                            x       y       z     vdW  Elec       q    Type
REMARK                         _______ _______ _______ _____ _____    ______ ____
ROOT
ATOM      1  N   LIG    1       -3.716  -0.278   0.036  0.00  0.00    -0.710 N 
ATOM      2  H   LIG    1       -3.880  -1.234   0.033  0.00  0.00    +0.400 HD
ATOM      3  C   LIG    1       -2.451   0.189   0.026  0.00  0.00    +0.520 C 
ATOM      4  O   LIG    1       -2.246   1.384   0.031  0.00  0.00    -0.490 OA
ENDROOT
BRANCH   1   5
ATOM      5  C   LIG    1       -4.842   0.659   0.052  0.00  0.00    +0.290 C 
BRANCH   5   6
ATOM      6  C   LIG    1       -6.057  -0.006  -0.541  0.00  0.00    -0.100 A 
ATOM      7  C   LIG    1       -6.327  -1.332  -0.257  0.00  0.00    +0.010 A 
ATOM      8  C   LIG    1       -7.444  -1.941  -0.797  0.00  0.00    +0.020 A 
ATOM      9  C   LIG    1       -8.287  -1.227  -1.628  0.00  0.00    +0.020 A 
ATOM     10  C   LIG    1       -8.014   0.097  -1.916  0.00  0.00    +0.020 A 
ATOM     11  C   LIG    1       -6.899   0.708  -1.372  0.00  0.00    +0.020 A 
ENDBRANCH   5   6
BRANCH   5  15
ATOM     12  N   LIG    1       -6.138   1.931   1.732  0.00  0.00    -0.850 N 
ATOM     13  H   LIG    1       -6.327   2.194   2.646  0.00  0.00    +0.400 HD
ATOM     14  H   LIG    1       -6.670   2.288   1.004  0.00  0.00    +0.400 HD
ATOM     15  C   LIG    1       -5.135   1.068   1.472  0.00  0.00    +0.510 C 
ATOM     16  O   LIG    1       -4.469   0.621   2.382  0.00  0.00    -0.530 OA
ENDBRANCH   5  15
ENDBRANCH   1   5
BRANCH   3  17
ATOM     17  C   LIG    1       -1.293  -0.775   0.010  0.00  0.00    +0.180 C 
BRANCH  17  18
ATOM     18  C   LIG    1        0.002  -0.004   0.002  0.00  0.00    +0.120 A 
ATOM     19  N   LIG    1       -0.015   1.296   0.009  0.00  0.00    -0.160 NA
ATOM     20  N   LIG    1        1.148   2.065   0.002  0.00  0.00    -0.540 N 
ATOM     21  H   LIG    1        1.075   3.032   0.008  0.00  0.00    +0.440 HD
ATOM     22  C   LIG    1        2.373   1.500  -0.013  0.00  0.00    +0.530 A 
ATOM     23  C   LIG    1        2.475   0.035  -0.021  0.00  0.00    -0.130 A 
ATOM     24  C   LIG    1        3.706  -0.619  -0.036  0.00  0.00    +0.090 A 
ATOM     25  C   LIG    1        3.743  -1.996  -0.044  0.00  0.00    +0.030 A 
ATOM     26  C   LIG    1        2.569  -2.738  -0.037  0.00  0.00    +0.050 A 
ATOM     27  C   LIG    1        1.342  -2.113  -0.022  0.00  0.00    +0.040 A 
ATOM     28  O   LIG    1        3.376   2.191  -0.019  0.00  0.00    -0.520 OA
ATOM     29  C   LIG    1        1.279  -0.719  -0.013  0.00  0.00    -0.050 A 
ENDBRANCH  17  18
ENDBRANCH   3  17
TORSDOF 5
