REMARK  Name = ZINCrH000004oj11.0
REMARK                            x       y       z     vdW  Elec       q    Type
REMARK                         _______ _______ _______ _____ _____    ______ ____
ROOT
ATOM      1  N   LIG    1       -3.238  -1.960  -2.877  0.00  0.00    -0.740 N 
ATOM      2  H   LIG    1       -2.707  -1.626  -3.618  0.00  0.00    +0.390 HD
ATOM      3  C   LIG    1       -2.843  -1.732  -1.609  0.00  0.00    +0.710 C 
ATOM      4  N   LIG    1       -1.711  -1.040  -1.369  0.00  0.00    -0.740 N 
ATOM      5  H   LIG    1       -1.181  -0.706  -2.110  0.00  0.00    +0.400 HD
ATOM      6  O   LIG    1       -3.508  -2.150  -0.681  0.00  0.00    -0.580 OA
ENDROOT
BRANCH   1   8
ATOM      7  C   LIG    1       -4.163  -4.211  -3.118  0.00  0.00    +0.040 C 
ATOM      8  C   LIG    1       -4.468  -2.711  -3.138  0.00  0.00    +0.310 C 
BRANCH   8   9
ATOM      9  C   LIG    1       -5.015  -2.327  -4.488  0.00  0.00    -0.080 A 
ATOM     10  C   LIG    1       -4.167  -1.833  -5.462  0.00  0.00    +0.050 A 
ATOM     11  C   LIG    1       -4.668  -1.481  -6.701  0.00  0.00    +0.040 A 
ATOM     12  C   LIG    1       -6.018  -1.624  -6.968  0.00  0.00    -0.030 A 
ATOM     13  C   LIG    1       -6.867  -2.119  -5.994  0.00  0.00    +0.050 A 
ATOM     14 CL   LIG    1       -6.647  -1.181  -8.524  0.00  0.00    -0.050 Cl
ATOM     15  C   LIG    1       -6.364  -2.476  -4.756  0.00  0.00    -0.020 A 
ATOM     16 CL   LIG    1       -7.427  -3.104  -3.536  0.00  0.00    -0.040 Cl
ENDBRANCH   8   9
ENDBRANCH   1   8
BRANCH   4  17
ATOM     17  C   LIG    1       -1.282  -0.792   0.010  0.00  0.00    +0.340 C 
BRANCH  17  18
ATOM     18  C   LIG    1        0.002  -0.004   0.002  0.00  0.00    -0.040 A 
ATOM     19  C   LIG    1       -0.017   1.384   0.010  0.00  0.00    -0.040 A 
ATOM     20  C   LIG    1        1.178   2.077   0.002  0.00  0.00    +0.290 A 
ATOM     21  N   LIG    1        2.331   1.436  -0.012  0.00  0.00    -0.510 NA
ATOM     22  C   LIG    1        2.391   0.113  -0.020  0.00  0.00    +0.310 A 
ATOM     23  C   LIG    1        1.227  -0.648  -0.013  0.00  0.00    -0.030 A 
BRANCH  22  24
ATOM     24  N   LIG    1        3.628  -0.520  -0.035  0.00  0.00    -0.480 N 
ATOM     25  C   LIG    1        3.761  -1.443   1.101  0.00  0.00    +0.180 C 
ATOM     26  C   LIG    1        5.110  -2.162   1.013  0.00  0.00    +0.230 C 
ATOM     27  O   LIG    1        6.160  -1.191   0.977  0.00  0.00    -0.380 OA
ATOM     28  C   LIG    1        6.062  -0.277  -0.118  0.00  0.00    +0.230 C 
ATOM     29  C   LIG    1        4.723   0.461  -0.041  0.00  0.00    +0.190 C 
ENDBRANCH  22  24
ENDBRANCH  17  18
ENDBRANCH   4  17
TORSDOF 5
