REMARK  Name = ZINCpk00001AZiI2.0
REMARK                            x       y       z     vdW  Elec       q    Type
REMARK                         _______ _______ _______ _____ _____    ______ ____
ROOT
ATOM      1  C   LIG    1        1.186   1.792   0.000  0.00  0.00    +0.160 A 
ATOM      2  C   LIG    1       -0.013   1.076   0.008  0.00  0.00    +0.040 A 
ATOM      3  C   LIG    1       -1.216   1.751   0.017  0.00  0.00    +0.200 A 
ATOM      4  C   LIG    1       -1.236   3.134   0.031  0.00  0.00    -0.670 A 
ATOM      5  C   LIG    1       -0.052   3.850   0.023  0.00  0.00    +0.230 A 
ATOM      6  C   LIG    1        1.158   3.188   0.008  0.00  0.00    -0.020 A 
ENDROOT
BRANCH   4   7
ATOM      7  S   LIG    1       -2.777   3.988   0.051  0.00  0.00    +2.710 S 
ATOM      8  O   LIG    1       -2.517   5.273   0.600  0.00  0.00    -0.950 OA
ATOM      9  O   LIG    1       -3.729   3.087   0.599  0.00  0.00    -0.950 OA
BRANCH   7  10
ATOM     10  N   LIG    1       -3.221   4.235  -1.525  0.00  0.00    -1.250 NA
ATOM     11  H   LIG    1       -4.051   4.695  -1.729  0.00  0.00    +0.430 HD
ATOM     12  H   LIG    1       -2.652   3.920  -2.245  0.00  0.00    +0.420 HD
ENDBRANCH   7  10
ENDBRANCH   4   7
BRANCH   6  13
ATOM     13  N   LIG    1        2.423   3.955   0.001  0.00  0.00    +0.020 N 
ATOM     14  O   LIG    1        3.491   3.369  -0.012  0.00  0.00    -0.100 OA
ATOM     15  O   LIG    1        2.397   5.173   0.007  0.00  0.00    -0.160 OA
ENDBRANCH   6  13
BRANCH   1  17
ATOM     16  N   LIG    1        2.406  -0.112  -0.022  0.00  0.00    -0.180 NA
ATOM     17  N   LIG    1        2.384   1.128  -0.015  0.00  0.00    -0.190 NA
BRANCH  16  19
ATOM     18  C   LIG    1        4.442  -0.544   1.263  0.00  0.00    +0.080 C 
ATOM     19  C   LIG    1        3.687  -0.822  -0.039  0.00  0.00    +0.220 C 
BRANCH  19  20
ATOM     20  C   LIG    1        3.439  -2.303  -0.169  0.00  0.00    -0.120 A 
ATOM     21  C   LIG    1        2.205  -2.828   0.164  0.00  0.00    +0.070 A 
ATOM     22  C   LIG    1        1.974  -4.185   0.041  0.00  0.00    -0.020 A 
ATOM     23  C   LIG    1        2.983  -5.025  -0.407  0.00  0.00    +0.130 A 
ATOM     24  C   LIG    1        4.224  -4.501  -0.736  0.00  0.00    -0.030 A 
ATOM     25  C   LIG    1        4.452  -3.139  -0.618  0.00  0.00    +0.140 A 
BRANCH  23  26
ATOM     26  O   LIG    1        2.756  -6.360  -0.522  0.00  0.00    -0.500 OA
ATOM     27  H   LIG    1        2.961  -6.864   0.278  0.00  0.00    +0.400 HD
ENDBRANCH  23  26
BRANCH  25  28
ATOM     28  O   LIG    1        5.668  -2.623  -0.939  0.00  0.00    -0.490 OA
ATOM     29  H   LIG    1        6.290  -2.592  -0.200  0.00  0.00    +0.390 HD
ENDBRANCH  25  28
ENDBRANCH  19  20
ENDBRANCH  16  19
ENDBRANCH   1  17
TORSDOF 8
