REMARK  Name = ZINCue00000007RH.0
REMARK                            x       y       z     vdW  Elec       q    Type
REMARK                         _______ _______ _______ _____ _____    ______ ____
ROOT
ATOM      1  C   LIG    1        4.583   5.777   0.107  0.00  0.00    +0.040 C 
ENDROOT
BRANCH   1   8
ATOM      2  C   LIG    1        7.125   8.649   0.087  0.00  0.00    +0.220 C 
ATOM      3  C   LIG    1        7.032   9.659   1.235  0.00  0.00    +0.010 C 
ATOM      4  C   LIG    1        5.783  10.523   1.048  0.00  0.00    +0.010 C 
ATOM      5  C   LIG    1        4.536   9.636   1.085  0.00  0.00    +0.010 C 
ATOM      6  C   LIG    1        4.601   8.624  -0.070  0.00  0.00    +0.270 C 
ATOM      7  N   LIG    1        5.869   7.888   0.024  0.00  0.00    -0.610 N 
ATOM      8  C   LIG    1        5.881   6.540   0.047  0.00  0.00    +0.520 C 
ATOM      9  O   LIG    1        6.935   5.942   0.019  0.00  0.00    -0.510 OA
BRANCH   2  10
ATOM     10  C   LIG    1        8.292   7.691   0.336  0.00  0.00    +0.090 C 
BRANCH  10  11
ATOM     11  C   LIG    1        9.593   8.490   0.442  0.00  0.00    +0.030 C 
BRANCH  11  15
ATOM     12  C   LIG    1       13.143   7.099   0.786  0.00  0.00    +0.280 C 
ATOM     13  N   LIG    1       12.011   8.022   0.669  0.00  0.00    -0.740 N 
ATOM     14  H   LIG    1       12.165   8.980   0.668  0.00  0.00    +0.400 HD
ATOM     15  C   LIG    1       10.757   7.540   0.562  0.00  0.00    +0.510 C 
ATOM     16  O   LIG    1       10.565   6.343   0.564  0.00  0.00    -0.520 OA
ENDBRANCH  11  15
ENDBRANCH  10  11
ENDBRANCH   2  10
ENDBRANCH   1   8
BRANCH   1  17
ATOM     17  C   LIG    1        4.875   4.275   0.122  0.00  0.00    +0.300 C 
BRANCH  17  18
ATOM     18  N   LIG    1        3.613   3.533   0.180  0.00  0.00    -0.730 N 
ATOM     19  H   LIG    1        2.770   4.011   0.202  0.00  0.00    +0.400 HD
ATOM     20  C   LIG    1        3.625   2.185   0.203  0.00  0.00    +0.570 C 
ATOM     21  O   LIG    1        4.682   1.586   0.175  0.00  0.00    -0.540 OA
BRANCH  20  22
ATOM     22  C   LIG    1        2.353   1.437   0.262  0.00  0.00    -0.160 A 
ATOM     23  C   LIG    1        1.137   2.125   0.293  0.00  0.00    +0.030 A 
ATOM     24  C   LIG    1       -0.048   1.426   0.347  0.00  0.00    +0.020 A 
ATOM     25  C   LIG    1       -0.035   0.032   0.371  0.00  0.00    +0.080 A 
ATOM     26  C   LIG    1        1.177  -0.657   0.339  0.00  0.00    +0.030 A 
ATOM     27  C   LIG    1        2.364   0.040   0.285  0.00  0.00    +0.070 A 
BRANCH  25  28
ATOM     28  C   LIG    1       -1.313  -0.720   0.430  0.00  0.00    +0.070 A 
ATOM     29  N   LIG    1       -2.537  -0.203   0.471  0.00  0.00    -0.370 NA
ATOM     30  N   LIG    1       -3.372  -1.185   0.512  0.00  0.00    -0.190 NA
ATOM     31  N   LIG    1       -2.719  -2.294   0.507  0.00  0.00    -0.190 NA
ATOM     32  N   LIG    1       -1.456  -2.041   0.458  0.00  0.00    -0.360 NA
ENDBRANCH  25  28
ENDBRANCH  20  22
ENDBRANCH  17  18
ENDBRANCH   1  17
TORSDOF 8
