REMARK  Name = ZINCue00000007RH.1
REMARK                            x       y       z     vdW  Elec       q    Type
REMARK                         _______ _______ _______ _____ _____    ______ ____
ROOT
ATOM      1  C   LIG    1        4.582   5.779   0.106  0.00  0.00    +0.040 C 
ENDROOT
BRANCH   1   8
ATOM      2  C   LIG    1        7.123   8.652   0.088  0.00  0.00    +0.220 C 
ATOM      3  C   LIG    1        7.029   9.663   1.235  0.00  0.00    +0.010 C 
ATOM      4  C   LIG    1        5.780  10.526   1.047  0.00  0.00    +0.010 C 
ATOM      5  C   LIG    1        4.534   9.638   1.083  0.00  0.00    +0.010 C 
ATOM      6  C   LIG    1        4.600   8.627  -0.071  0.00  0.00    +0.270 C 
ATOM      7  N   LIG    1        5.868   7.891   0.024  0.00  0.00    -0.610 N 
ATOM      8  C   LIG    1        5.880   6.543   0.047  0.00  0.00    +0.520 C 
ATOM      9  O   LIG    1        6.935   5.945   0.020  0.00  0.00    -0.510 OA
BRANCH   2  10
ATOM     10  C   LIG    1        8.291   7.695   0.338  0.00  0.00    +0.090 C 
BRANCH  10  11
ATOM     11  C   LIG    1        9.591   8.494   0.444  0.00  0.00    +0.030 C 
BRANCH  11  15
ATOM     12  C   LIG    1       13.141   7.104   0.791  0.00  0.00    +0.280 C 
ATOM     13  N   LIG    1       12.009   8.027   0.672  0.00  0.00    -0.740 N 
ATOM     14  H   LIG    1       12.163   8.985   0.671  0.00  0.00    +0.400 HD
ATOM     15  C   LIG    1       10.755   7.545   0.565  0.00  0.00    +0.510 C 
ATOM     16  O   LIG    1       10.564   6.347   0.567  0.00  0.00    -0.520 OA
ENDBRANCH  11  15
ENDBRANCH  10  11
ENDBRANCH   2  10
ENDBRANCH   1   8
BRANCH   1  17
ATOM     17  C   LIG    1        4.875   4.277   0.122  0.00  0.00    +0.300 C 
BRANCH  17  18
ATOM     18  N   LIG    1        3.613   3.535   0.180  0.00  0.00    -0.730 N 
ATOM     19  H   LIG    1        2.770   4.013   0.202  0.00  0.00    +0.400 HD
ATOM     20  C   LIG    1        3.625   2.187   0.203  0.00  0.00    +0.570 C 
ATOM     21  O   LIG    1        4.683   1.588   0.176  0.00  0.00    -0.540 OA
BRANCH  20  22
ATOM     22  C   LIG    1        2.353   1.438   0.261  0.00  0.00    -0.160 A 
ATOM     23  C   LIG    1        1.137   2.126   0.293  0.00  0.00    +0.030 A 
ATOM     24  C   LIG    1       -0.048   1.427   0.347  0.00  0.00    +0.020 A 
ATOM     25  C   LIG    1       -0.035   0.032   0.371  0.00  0.00    +0.080 A 
ATOM     26  C   LIG    1        1.179  -0.656   0.340  0.00  0.00    +0.030 A 
ATOM     27  C   LIG    1        2.365   0.041   0.285  0.00  0.00    +0.070 A 
BRANCH  25  28
ATOM     28  C   LIG    1       -1.310  -0.719   0.429  0.00  0.00    +0.070 A 
ATOM     29  N   LIG    1       -2.539  -0.202   0.470  0.00  0.00    -0.360 NA
ATOM     30  N   LIG    1       -3.372  -1.186   0.510  0.00  0.00    -0.190 NA
ATOM     31  N   LIG    1       -2.719  -2.295   0.506  0.00  0.00    -0.190 NA
ATOM     32  N   LIG    1       -1.455  -2.044   0.457  0.00  0.00    -0.360 NA
ENDBRANCH  25  28
ENDBRANCH  20  22
ENDBRANCH  17  18
ENDBRANCH   1  17
TORSDOF 8
