REMARK  Name = ZINCpe000000WJ0O.0
REMARK                            x       y       z     vdW  Elec       q    Type
REMARK                         _______ _______ _______ _____ _____    ______ ____
ROOT
ATOM      1  N   LIG    1        3.305  -1.527   2.470  0.00  0.00    -0.680 N 
ATOM      2  H   LIG    1        2.539  -2.112   2.356  0.00  0.00    +0.410 HD
ATOM      3  C   LIG    1        3.188  -0.208   2.220  0.00  0.00    +0.710 C 
ATOM      4  N   LIG    1        1.986   0.314   1.906  0.00  0.00    -0.620 N 
ATOM      5  C   LIG    1        0.771  -0.515   1.937  0.00  0.00    +0.280 C 
ATOM      6  C   LIG    1        0.034  -0.347   0.603  0.00  0.00    +0.170 C 
ATOM      7  N   LIG    1       -0.195   1.081   0.350  0.00  0.00    -0.530 NA
ATOM      8  C   LIG    1        1.074   1.808   0.208  0.00  0.00    +0.170 C 
ATOM      9  C   LIG    1        1.853   1.729   1.526  0.00  0.00    +0.310 C 
ATOM     10  O   LIG    1        4.167   0.510   2.277  0.00  0.00    -0.570 OA
ENDROOT
BRANCH   1  14
ATOM     11  C   LIG    1        6.874  -3.130   3.765  0.00  0.00    -0.460 A 
ATOM     12  C   LIG    1        6.916  -2.081   2.866  0.00  0.00    +0.100 A 
ATOM     13  C   LIG    1        5.728  -1.530   2.413  0.00  0.00    +0.060 A 
ATOM     14  C   LIG    1        4.531  -2.054   2.893  0.00  0.00    +0.170 A 
ATOM     15  C   LIG    1        4.571  -3.109   3.795  0.00  0.00    +0.230 A 
ATOM     16  N   LIG    1        5.723  -3.607   4.196  0.00  0.00    -0.370 NA
BRANCH  11  18
ATOM     17  C   LIG    1        8.739  -5.165   3.154  0.00  0.00    -0.250 C 
ATOM     18  S   LIG    1        8.380  -3.841   4.341  0.00  0.00    +2.510 S 
ATOM     19  O   LIG    1        8.047  -4.386   5.611  0.00  0.00    -0.920 OA
ATOM     20  O   LIG    1        9.331  -2.792   4.221  0.00  0.00    -0.930 OA
ENDBRANCH  11  18
ENDBRANCH   1  14
BRANCH   7  21
ATOM     21  C   LIG    1       -1.047   1.276  -0.830  0.00  0.00    +0.200 C 
BRANCH  21  22
ATOM     22  C   LIG    1       -2.456   0.759  -0.533  0.00  0.00    +0.150 C 
ATOM     23  C   LIG    1       -3.371   0.953  -1.763  0.00  0.00    +0.010 C 
ATOM     24  C   LIG    1       -4.740   1.333  -1.156  0.00  0.00    +0.000 C 
ATOM     25  C   LIG    1       -4.490   1.324   0.369  0.00  0.00    +0.190 C 
ATOM     26  O   LIG    1       -3.069   1.543   0.513  0.00  0.00    -0.350 OA
ENDBRANCH  21  22
ENDBRANCH   7  21
TORSDOF 4
