REMARK  Name = ZINCtV00000L6k4u.0
REMARK                            x       y       z     vdW  Elec       q    Type
REMARK                         _______ _______ _______ _____ _____    ______ ____
ROOT
ATOM      1  C   LIG    1       -1.160   7.408  -0.455  0.00  0.00    +0.110 C 
ENDROOT
BRANCH   1   2
ATOM      2  C   LIG    1       -1.176   5.904  -0.356  0.00  0.00    +0.550 C 
ATOM      3  N   LIG    1       -0.067   5.243   0.030  0.00  0.00    -0.690 N 
ATOM      4  H   LIG    1        0.719   5.737   0.313  0.00  0.00    +0.420 HD
ATOM      5  O   LIG    1       -2.187   5.290  -0.622  0.00  0.00    -0.500 OA
BRANCH   3   6
ATOM      6  C   LIG    1       -0.049   3.843   0.022  0.00  0.00    +0.200 A 
ATOM      7  C   LIG    1       -0.555   3.134   1.105  0.00  0.00    -0.030 A 
ATOM      8  C   LIG    1       -0.540   1.752   1.091  0.00  0.00    +0.080 A 
ATOM      9  C   LIG    1       -0.012   1.076   0.007  0.00  0.00    +0.050 A 
ATOM     10  C   LIG    1        0.493   1.779  -1.071  0.00  0.00    +0.090 A 
ATOM     11 CL   LIG    1       -1.213   3.983   2.469  0.00  0.00    -0.040 Cl
ATOM     12  C   LIG    1        0.476   3.160  -1.067  0.00  0.00    -0.170 A 
BRANCH  12  13
ATOM     13  C   LIG    1        1.027   3.925  -2.242  0.00  0.00    +0.510 C 
ATOM     14  F   LIG    1        2.081   4.741  -1.816  0.00  0.00    -0.170 F 
ATOM     15  F   LIG    1        0.018   4.719  -2.797  0.00  0.00    -0.170 F 
ATOM     16  F   LIG    1        1.495   3.025  -3.206  0.00  0.00    -0.170 F 
ENDBRANCH  12  13
ENDBRANCH   3   6
ENDBRANCH   1   2
BRANCH   1  17
ATOM     17  S   LIG    1       -2.785   7.995  -0.994  0.00  0.00    +0.070 S 
BRANCH  17  22
ATOM     18  C   LIG    1       -0.433  12.685  -0.602  0.00  0.00    +0.140 C 
ATOM     19  C   LIG    1       -1.501  11.652  -0.856  0.00  0.00    +0.010 A 
ATOM     20  C   LIG    1       -2.758  11.903  -1.258  0.00  0.00    -0.010 A 
ATOM     21  N   LIG    1       -3.393  10.687  -1.373  0.00  0.00    -0.430 N 
ATOM     22  C   LIG    1       -2.489   9.731  -1.024  0.00  0.00    +0.180 A 
ATOM     23  C   LIG    1       -3.357  13.258  -1.537  0.00  0.00    +0.130 C 
ATOM     24  N   LIG    1       -1.358  10.323  -0.720  0.00  0.00    -0.490 NA
BRANCH  21  25
ATOM     25  C   LIG    1       -4.780  10.464  -1.789  0.00  0.00    +0.230 C 
ATOM     26  C   LIG    1       -5.543   9.760  -0.665  0.00  0.00    +0.010 C 
ATOM     27  C   LIG    1       -6.992   9.528  -1.099  0.00  0.00    +0.030 C 
ATOM     28  C   LIG    1       -7.014   8.654  -2.355  0.00  0.00    +0.010 C 
ATOM     29  C   LIG    1       -6.251   9.358  -3.479  0.00  0.00    +0.030 C 
ATOM     30  C   LIG    1       -4.803   9.591  -3.045  0.00  0.00    +0.010 C 
ENDBRANCH  21  25
ENDBRANCH  17  22
ENDBRANCH   1  17
TORSDOF 6
