REMARK  Name = ZINCrH000004mwRn.0
REMARK                            x       y       z     vdW  Elec       q    Type
REMARK                         _______ _______ _______ _____ _____    ______ ____
ROOT
ATOM      1  C   LIG    1        0.298  -2.896   4.859  0.00  0.00    +0.240 C 
ATOM      2  C   LIG    1        1.773  -3.318   5.021  0.00  0.00    +0.070 C 
ATOM      3  C   LIG    1        2.359  -2.186   5.912  0.00  0.00    +0.050 C 
ATOM      4  C   LIG    1        1.160  -1.868   6.840  0.00  0.00    +0.260 C 
ATOM      5  N   LIG    1       -0.030  -2.002   5.979  0.00  0.00    -0.600 N 
ATOM      6  C   LIG    1       -1.220  -1.404   6.185  0.00  0.00    +0.620 C 
ATOM      7  O   LIG    1       -2.154  -1.637   5.441  0.00  0.00    -0.520 OA
ENDROOT
BRANCH   6   8
ATOM      8  C   LIG    1       -1.388  -0.472   7.304  0.00  0.00    -0.270 A 
ATOM      9  C   LIG    1       -2.492   0.283   7.540  0.00  0.00    +0.120 A 
ATOM     10  C   LIG    1       -2.399   1.083   8.675  0.00  0.00    -0.140 A 
ATOM     11  C   LIG    1       -1.229   0.971   9.328  0.00  0.00    -0.230 A 
ATOM     12  C   LIG    1       -1.213   1.883  10.549  0.00  0.00    +0.120 C 
ATOM     13  C   LIG    1       -2.694   2.230  10.803  0.00  0.00    +0.040 C 
ATOM     14  C   LIG    1       -3.298   2.089   9.393  0.00  0.00    +0.100 C 
ATOM     15  S   LIG    1       -0.193  -0.151   8.548  0.00  0.00    +0.230 S 
ENDBRANCH   6   8
BRANCH   1  18
ATOM     16  N   LIG    1       -0.005  -2.865   2.404  0.00  0.00    -0.660 N 
ATOM     17  H   LIG    1       -0.052  -3.834   2.427  0.00  0.00    +0.410 HD
ATOM     18  C   LIG    1        0.114  -2.169   3.552  0.00  0.00    +0.510 C 
ATOM     19  O   LIG    1        0.073  -0.957   3.533  0.00  0.00    -0.500 OA
BRANCH  16  26
ATOM     20  C   LIG    1       -0.675  -2.788   0.079  0.00  0.00    +0.090 A 
ATOM     21  C   LIG    1       -0.728  -2.115  -1.131  0.00  0.00    -0.050 A 
ATOM     22  C   LIG    1       -0.179  -0.852  -1.245  0.00  0.00    +0.030 A 
ATOM     23  C   LIG    1        0.434  -0.260  -0.156  0.00  0.00    -0.100 A 
ATOM     24  C   LIG    1        0.491  -0.924   1.055  0.00  0.00    +0.050 A 
ATOM     25  C   LIG    1        1.035   1.116  -0.288  0.00  0.00    +0.100 C 
ATOM     26  C   LIG    1       -0.062  -2.190   1.178  0.00  0.00    +0.130 A 
BRANCH  20  28
ATOM     27  C   LIG    1       -1.831  -4.579  -0.975  0.00  0.00    +0.250 C 
ATOM     28  O   LIG    1       -1.219  -4.029   0.193  0.00  0.00    -0.320 OA
ENDBRANCH  20  28
ENDBRANCH  16  26
ENDBRANCH   1  18
TORSDOF 4
