REMARK  Name = ZINCqH00000048li.0
REMARK                            x       y       z     vdW  Elec       q    Type
REMARK                         _______ _______ _______ _____ _____    ______ ____
ROOT
ATOM      1  C   LIG    1       -4.729   1.006   0.575  0.00  0.00    +0.460 A 
ATOM      2  C   LIG    1       -5.753   1.334   1.483  0.00  0.00    -0.270 A 
ATOM      3  C   LIG    1       -5.885   2.265   2.537  0.00  0.00    +0.330 A 
ATOM      4  N   LIG    1       -7.073   2.137   3.055  0.00  0.00    -0.240 NA
ATOM      5  N   LIG    1       -7.781   1.138   2.374  0.00  0.00    -0.330 N 
ATOM      6  C   LIG    1       -6.970   0.629   1.401  0.00  0.00    +0.350 A 
ATOM      7  N   LIG    1       -7.099  -0.323   0.479  0.00  0.00    -0.540 NA
ATOM      8  C   LIG    1       -6.111  -0.598  -0.345  0.00  0.00    +0.570 A 
ATOM      9  N   LIG    1       -4.955   0.040  -0.309  0.00  0.00    -0.580 NA
ENDROOT
BRANCH   5  10
ATOM     10  C   LIG    1       -9.089   0.723   2.653  0.00  0.00    +0.150 A 
ATOM     11  C   LIG    1       -9.928   0.323   1.621  0.00  0.00    +0.020 A 
ATOM     12  C   LIG    1      -11.215  -0.092   1.900  0.00  0.00    +0.030 A 
ATOM     13  C   LIG    1      -11.673  -0.098   3.205  0.00  0.00    +0.010 A 
ATOM     14  C   LIG    1      -10.843   0.306   4.235  0.00  0.00    +0.030 A 
ATOM     15  C   LIG    1       -9.552   0.716   3.962  0.00  0.00    +0.020 A 
ENDBRANCH   5  10
BRANCH   1  16
ATOM     16  N   LIG    1       -3.517   1.667   0.605  0.00  0.00    -0.480 N 
ATOM     17  C   LIG    1       -2.577   1.003   1.518  0.00  0.00    +0.250 C 
BRANCH  16  18
ATOM     18  C   LIG    1       -2.947   1.784  -0.744  0.00  0.00    +0.210 C 
BRANCH  18  19
ATOM     19  C   LIG    1       -1.509   2.224  -0.645  0.00  0.00    -0.040 A 
ATOM     20  C   LIG    1       -0.518   1.581  -1.372  0.00  0.00    -0.020 A 
ATOM     21  C   LIG    1        0.789   2.016  -1.260  0.00  0.00    +0.260 A 
ATOM     22  N   LIG    1        1.099   3.025  -0.470  0.00  0.00    -0.480 NA
ATOM     23  C   LIG    1        0.184   3.656   0.240  0.00  0.00    +0.260 A 
ATOM     24  C   LIG    1       -1.144   3.278   0.179  0.00  0.00    -0.010 A 
ENDBRANCH  18  19
BRANCH  18  26
ATOM     25  C   LIG    1       -5.179   2.323  -1.728  0.00  0.00    +0.020 C 
ATOM     26  C   LIG    1       -3.742   2.816  -1.546  0.00  0.00    +0.030 C 
ENDBRANCH  18  26
ENDBRANCH  16  18
ENDBRANCH   1  16
TORSDOF 5
