REMARK  Name = ZINCrH000004tmNm.0
REMARK                            x       y       z     vdW  Elec       q    Type
REMARK                         _______ _______ _______ _____ _____    ______ ____
ROOT
ATOM      1  N   LIG    1       -4.397  -3.750  -0.344  0.00  0.00    -0.670 N 
ATOM      2  H   LIG    1       -4.658  -4.128   0.510  0.00  0.00    +0.420 HD
ATOM      3  C   LIG    1       -3.226  -3.092  -0.461  0.00  0.00    +0.520 C 
ATOM      4  O   LIG    1       -2.862  -2.691  -1.546  0.00  0.00    -0.510 OA
ENDROOT
BRANCH   1   9
ATOM      5  C   LIG    1       -5.535  -4.184  -3.826  0.00  0.00    -0.030 A 
ATOM      6  C   LIG    1       -6.921  -4.160  -3.654  0.00  0.00    +0.100 A 
ATOM      7  C   LIG    1       -7.457  -4.003  -2.394  0.00  0.00    -0.020 A 
ATOM      8  C   LIG    1       -6.623  -3.866  -1.293  0.00  0.00    +0.110 A 
ATOM      9  C   LIG    1       -5.237  -3.889  -1.458  0.00  0.00    +0.130 A 
ATOM     10  C   LIG    1       -4.693  -4.042  -2.720  0.00  0.00    +0.120 A 
BRANCH   5  12
ATOM     11  N   LIG    1       -4.535  -4.478  -6.174  0.00  0.00    -0.410 NA
ATOM     12  C   LIG    1       -4.977  -4.348  -5.135  0.00  0.00    +0.250 C 
ENDBRANCH   5  12
BRANCH   8  13
ATOM     13  O   LIG    1       -7.156  -3.710  -0.054  0.00  0.00    -0.320 OA
BRANCH  13  14
ATOM     14  C   LIG    1       -8.581  -3.696   0.042  0.00  0.00    +0.600 C 
ATOM     15  F   LIG    1       -9.093  -4.907  -0.438  0.00  0.00    -0.190 F 
ATOM     16  F   LIG    1       -9.090  -2.640  -0.722  0.00  0.00    -0.190 F 
ENDBRANCH  13  14
ENDBRANCH   8  13
ENDBRANCH   1   9
BRANCH   3  17
ATOM     17  C   LIG    1       -2.370  -2.856   0.756  0.00  0.00    +0.150 C 
BRANCH  17  18
ATOM     18  C   LIG    1       -1.126  -2.105   0.357  0.00  0.00    -0.060 A 
ATOM     19  C   LIG    1        0.008  -2.800  -0.020  0.00  0.00    +0.050 A 
ATOM     20  C   LIG    1        1.152  -2.114  -0.386  0.00  0.00    -0.030 A 
ATOM     21  C   LIG    1        1.164  -0.727  -0.375  0.00  0.00    +0.060 A 
ATOM     22  O   LIG    1        2.300  -0.066  -0.732  0.00  0.00    -0.290 OA
ATOM     23  C   LIG    1        2.159   1.319  -1.066  0.00  0.00    +0.230 C 
ATOM     24  C   LIG    1        1.286   1.986   0.005  0.00  0.00    +0.230 C 
ATOM     25  O   LIG    1        0.012   1.332   0.015  0.00  0.00    -0.300 OA
ATOM     26  C   LIG    1        0.023  -0.029   0.002  0.00  0.00    +0.070 A 
ATOM     27 CL   LIG    1        2.574  -2.990  -0.859  0.00  0.00    -0.050 Cl
ATOM     28  C   LIG    1       -1.120  -0.723   0.369  0.00  0.00    +0.050 A 
ENDBRANCH  17  18
ENDBRANCH   3  17
TORSDOF 6
