REMARK  Name = ZINCpk000000oFCu.0
REMARK                            x       y       z     vdW  Elec       q    Type
REMARK                         _______ _______ _______ _____ _____    ______ ____
ROOT
ATOM      1  N   LIG    1       -0.391   1.395   3.863  0.00  0.00    -0.610 N 
ATOM      2  C   LIG    1       -0.365   2.699   4.201  0.00  0.00    +0.520 C 
ATOM      3  O   LIG    1        0.178   3.504   3.474  0.00  0.00    -0.530 OA
ENDROOT
BRANCH   2   4
ATOM      4  C   LIG    1       -1.013   3.158   5.482  0.00  0.00    +0.000 C 
ATOM      5  C   LIG    1       -2.535   3.129   5.323  0.00  0.00    +0.040 C 
ATOM      6  C   LIG    1       -3.190   3.563   6.638  0.00  0.00    +0.270 C 
ATOM      7  N   LIG    1       -2.648   4.873   7.027  0.00  0.00    -0.630 N 
ATOM      8  C   LIG    1       -1.191   5.035   7.121  0.00  0.00    +0.300 C 
ATOM      9  C   LIG    1       -3.473   5.905   7.292  0.00  0.00    +0.710 C 
ATOM     10  O   LIG    1       -3.018   6.957   7.701  0.00  0.00    -0.590 OA
ATOM     11  N   LIG    1       -4.801   5.773   7.104  0.00  0.00    -0.870 N 
ATOM     12  H   LIG    1       -5.386   6.537   7.224  0.00  0.00    +0.420 HD
ATOM     13  H   LIG    1       -5.171   4.914   6.849  0.00  0.00    +0.400 HD
ATOM     14  C   LIG    1       -0.558   4.585   5.800  0.00  0.00    +0.040 C 
ENDBRANCH   2   4
BRANCH   1  16
ATOM     15  C   LIG    1       -0.179  -0.232   5.677  0.00  0.00    +0.020 C 
ATOM     16  C   LIG    1       -1.134   0.439   4.687  0.00  0.00    +0.270 C 
ENDBRANCH   1  16
BRANCH   1  17
ATOM     17  C   LIG    1        0.326   0.933   2.671  0.00  0.00    +0.330 C 
BRANCH  17  18
ATOM     18  C   LIG    1       -0.605   1.002   1.458  0.00  0.00    +0.130 C 
ATOM     19  C   LIG    1        0.140   0.519   0.207  0.00  0.00    +0.230 C 
ATOM     20  O   LIG    1       -0.760   0.584  -0.905  0.00  0.00    -0.300 OA
ATOM     21  C   LIG    1       -2.009   0.079  -0.710  0.00  0.00    +0.050 A 
ATOM     22  C   LIG    1       -2.801  -0.222  -1.808  0.00  0.00    +0.020 A 
ATOM     23  C   LIG    1       -4.072  -0.732  -1.626  0.00  0.00    +0.010 A 
ATOM     24  C   LIG    1       -4.558  -0.945  -0.350  0.00  0.00    +0.010 A 
ATOM     25  C   LIG    1       -3.774  -0.648   0.749  0.00  0.00    +0.010 A 
ATOM     26  C   LIG    1       -2.497  -0.136   0.574  0.00  0.00    +0.050 A 
ATOM     27  O   LIG    1       -1.734   0.145   1.665  0.00  0.00    -0.300 OA
ENDBRANCH  17  18
ENDBRANCH   1  17
TORSDOF 4
