REMARK  Name = ZINCnE000001PK4J.0
REMARK                            x       y       z     vdW  Elec       q    Type
REMARK                         _______ _______ _______ _____ _____    ______ ____
ROOT
ATOM      1  N   LIG    1        2.063   4.915   1.594  0.00  0.00    -0.750 N 
ATOM      2  H   LIG    1        1.966   4.300   2.337  0.00  0.00    +0.400 HD
ENDROOT
BRANCH   1   7
ATOM      3  C   LIG    1        5.173   9.636   2.160  0.00  0.00    +0.080 C 
ATOM      4  C   LIG    1        4.349   8.383   2.014  0.00  0.00    -0.120 A 
ATOM      5  C   LIG    1        3.725   8.104   0.816  0.00  0.00    +0.020 A 
ATOM      6  C   LIG    1        2.972   6.953   0.674  0.00  0.00    -0.100 A 
ATOM      7  C   LIG    1        2.829   6.074   1.741  0.00  0.00    +0.200 A 
ATOM      8  C   LIG    1        3.451   6.344   2.950  0.00  0.00    -0.050 A 
ATOM      9  C   LIG    1        4.216   7.504   3.092  0.00  0.00    -0.070 A 
BRANCH   9  10
ATOM     10  C   LIG    1        4.883   7.799   4.375  0.00  0.00    +0.530 C 
ATOM     11  O   LIG    1        4.234   7.817   5.411  0.00  0.00    -0.690 OA
ATOM     12  O   LIG    1        6.084   8.025   4.402  0.00  0.00    -0.680 OA
ENDBRANCH   9  10
ENDBRANCH   1   7
BRANCH   1  13
ATOM     13  C   LIG    1        1.405   4.630   0.316  0.00  0.00    +0.360 C 
BRANCH  13  14
ATOM     14  C   LIG    1        0.648   3.331   0.420  0.00  0.00    +0.070 A 
ATOM     15  N   LIG    1        1.147   2.135   0.237  0.00  0.00    -0.270 NA
ATOM     16  N   LIG    1        0.122   1.199   0.423  0.00  0.00    -0.320 N 
ATOM     17  C   LIG    1       -1.010   1.876   0.720  0.00  0.00    +0.230 A 
ATOM     18  C   LIG    1       -0.710   3.195   0.730  0.00  0.00    -0.080 A 
BRANCH  16  19
ATOM     19  C   LIG    1        0.247  -0.194   0.316  0.00  0.00    +0.160 A 
ATOM     20  C   LIG    1       -0.855  -1.009   0.533  0.00  0.00    -0.010 A 
ATOM     21  C   LIG    1       -0.731  -2.380   0.420  0.00  0.00    +0.040 A 
ATOM     22  C   LIG    1        0.493  -2.941   0.104  0.00  0.00    +0.000 A 
ATOM     23  C   LIG    1        1.594  -2.132  -0.106  0.00  0.00    +0.040 A 
ATOM     24  C   LIG    1        1.474  -0.760  -0.002  0.00  0.00    +0.020 A 
ENDBRANCH  16  19
ENDBRANCH  13  14
ENDBRANCH   1  13
TORSDOF 5
