REMARK  Name = ZINCtj00000044A1.1
REMARK                            x       y       z     vdW  Elec       q    Type
REMARK                         _______ _______ _______ _____ _____    ______ ____
ROOT
ATOM      1  O   LIG    1       -2.623   7.378  -1.853  0.00  0.00    -0.510 OA
ATOM      2  C   LIG    1       -2.682   8.321  -1.093  0.00  0.00    +0.520 C 
ATOM      3  N   LIG    1       -3.608   9.282  -1.281  0.00  0.00    -0.730 N 
ATOM      4  H   LIG    1       -3.655  10.036  -0.674  0.00  0.00    +0.410 HD
ENDROOT
BRANCH   3   5
ATOM      5  C   LIG    1       -4.544   9.187  -2.405  0.00  0.00    +0.260 C 
BRANCH   5   6
ATOM      6  C   LIG    1       -5.482  10.395  -2.390  0.00  0.00    +0.200 C 
BRANCH   6   7
ATOM      7  O   LIG    1       -4.729  11.586  -2.626  0.00  0.00    -0.550 OA
ATOM      8  H   LIG    1       -4.264  11.596  -3.474  0.00  0.00    +0.390 HD
ENDBRANCH   6   7
BRANCH   6   9
ATOM      9  C   LIG    1       -6.538  10.234  -3.486  0.00  0.00    +0.250 C 
BRANCH   9  10
ATOM     10  N   LIG    1       -7.439  11.394  -3.472  0.00  0.00    -0.380 N 
ATOM     11  C   LIG    1       -8.386  11.295  -4.593  0.00  0.00    +0.270 C 
ATOM     12  C   LIG    1       -9.101  12.638  -4.747  0.00  0.00    +0.110 C 
ATOM     13  C   LIG    1       -9.658  13.075  -3.417  0.00  0.00    -0.090 A 
ATOM     14  C   LIG    1      -10.620  14.073  -3.394  0.00  0.00    +0.040 A 
ATOM     15  C   LIG    1      -11.148  14.504  -2.193  0.00  0.00    +0.050 A 
ATOM     16  C   LIG    1      -10.716  13.937  -1.009  0.00  0.00    +0.040 A 
ATOM     17  C   LIG    1       -9.760  12.941  -1.031  0.00  0.00    +0.040 A 
ATOM     18  C   LIG    1       -9.228  12.507  -2.236  0.00  0.00    -0.130 A 
ATOM     19  C   LIG    1       -8.189  11.418  -2.213  0.00  0.00    +0.320 C 
ATOM     20  H   LIG    1       -6.899  12.242  -3.560  0.00  0.00    +0.430 HD
ENDBRANCH   9  10
ENDBRANCH   6   9
ENDBRANCH   5   6
ENDBRANCH   3   5
BRANCH   2  21
ATOM     21  C   LIG    1       -1.719   8.419   0.063  0.00  0.00    +0.190 C 
BRANCH  21  22
ATOM     22  C   LIG    1       -0.795   7.229   0.049  0.00  0.00    +0.010 A 
ATOM     23  N   LIG    1       -1.137   5.960   0.040  0.00  0.00    -0.260 NA
ATOM     24  N   LIG    1       -0.069   5.244   0.031  0.00  0.00    -0.100 N 
ATOM     25  N   LIG    1        0.979   5.989   0.025  0.00  0.00    -0.280 NA
ATOM     26  C   LIG    1        0.602   7.248   0.035  0.00  0.00    +0.190 A 
BRANCH  24  27
ATOM     27  C   LIG    1       -0.050   3.842   0.023  0.00  0.00    +0.140 A 
ATOM     28  C   LIG    1        1.161   3.163   0.008  0.00  0.00    +0.040 A 
ATOM     29  C   LIG    1        1.176   1.782   0.000  0.00  0.00    +0.040 A 
ATOM     30  C   LIG    1       -0.013   1.076   0.008  0.00  0.00    +0.030 A 
ATOM     31  C   LIG    1       -1.220   1.750   0.017  0.00  0.00    +0.040 A 
ATOM     32  C   LIG    1       -1.242   3.130   0.031  0.00  0.00    +0.040 A 
ENDBRANCH  24  27
ENDBRANCH  21  22
ENDBRANCH   2  21
TORSDOF 8
