REMARK  Name = ZINCtj00000044A1.0
REMARK                            x       y       z     vdW  Elec       q    Type
REMARK                         _______ _______ _______ _____ _____    ______ ____
ROOT
ATOM      1  O   LIG    1        7.915   7.919   0.933  0.00  0.00    -0.510 OA
ATOM      2  C   LIG    1        7.017   8.058   1.736  0.00  0.00    +0.520 C 
ATOM      3  N   LIG    1        6.011   7.162   1.783  0.00  0.00    -0.730 N 
ATOM      4  H   LIG    1        5.293   7.272   2.425  0.00  0.00    +0.410 HD
ENDROOT
BRANCH   3   5
ATOM      5  C   LIG    1        6.003   6.020   0.864  0.00  0.00    +0.260 C 
BRANCH   5   6
ATOM      6  C   LIG    1        4.763   5.164   1.125  0.00  0.00    +0.200 C 
BRANCH   6   7
ATOM      7  O   LIG    1        3.590   5.915   0.805  0.00  0.00    -0.550 OA
ATOM      8  H   LIG    1        3.548   6.205  -0.117  0.00  0.00    +0.390 HD
ENDBRANCH   6   7
BRANCH   6   9
ATOM      9  C   LIG    1        4.817   3.908   0.254  0.00  0.00    +0.250 C 
BRANCH   9  10
ATOM     10  N   LIG    1        3.624   3.087   0.502  0.00  0.00    -0.380 N 
ATOM     11  C   LIG    1        3.657   2.575   1.880  0.00  0.00    +0.260 C 
ATOM     12  C   LIG    1        2.283   1.995   2.217  0.00  0.00    +0.130 C 
ATOM     13  C   LIG    1        1.857   1.032   1.138  0.00  0.00    -0.090 A 
ATOM     14  C   LIG    1        0.823   0.149   1.405  0.00  0.00    +0.040 A 
ATOM     15  C   LIG    1        0.408  -0.750   0.442  0.00  0.00    +0.050 A 
ATOM     16  C   LIG    1        1.020  -0.761  -0.797  0.00  0.00    +0.030 A 
ATOM     17  C   LIG    1        2.050   0.118  -1.064  0.00  0.00    +0.040 A 
ATOM     18  C   LIG    1        2.473   1.017  -0.096  0.00  0.00    -0.140 A 
ATOM     19  C   LIG    1        3.604   1.954  -0.428  0.00  0.00    +0.330 C 
ATOM     20  H   LIG    1        2.796   3.648   0.369  0.00  0.00    +0.430 HD
ENDBRANCH   9  10
ENDBRANCH   6   9
ENDBRANCH   5   6
ENDBRANCH   3   5
BRANCH   2  21
ATOM     21  C   LIG    1        7.025   9.232   2.680  0.00  0.00    +0.190 C 
BRANCH  21  22
ATOM     22  C   LIG    1        8.247  10.075   2.423  0.00  0.00    +0.010 A 
ATOM     23  N   LIG    1        9.499   9.676   2.425  0.00  0.00    -0.260 NA
ATOM     24  N   LIG    1       10.254  10.684   2.163  0.00  0.00    -0.100 N 
ATOM     25  N   LIG    1        9.551  11.746   1.987  0.00  0.00    -0.280 NA
ATOM     26  C   LIG    1        8.281  11.441   2.129  0.00  0.00    +0.190 A 
BRANCH  24  27
ATOM     27  C   LIG    1       11.653  10.631   2.083  0.00  0.00    +0.140 A 
ATOM     28  C   LIG    1       12.317   9.431   2.297  0.00  0.00    +0.040 A 
ATOM     29  C   LIG    1       13.695   9.382   2.212  0.00  0.00    +0.040 A 
ATOM     30  C   LIG    1       14.413  10.528   1.923  0.00  0.00    +0.030 A 
ATOM     31  C   LIG    1       13.754  11.726   1.715  0.00  0.00    +0.040 A 
ATOM     32  C   LIG    1       12.376  11.780   1.794  0.00  0.00    +0.040 A 
ENDBRANCH  24  27
ENDBRANCH  21  22
ENDBRANCH   2  21
TORSDOF 8
