REMARK  Name = ZINCpk000000p5g5.0
REMARK                            x       y       z     vdW  Elec       q    Type
REMARK                         _______ _______ _______ _____ _____    ______ ____
ROOT
ATOM      1  C   LIG    1        2.064   1.114   1.238  0.00  0.00    +0.270 C 
ENDROOT
BRANCH   1   2
ATOM      2  N   LIG    1        1.406   1.632   2.440  0.00  0.00    -0.700 N 
ATOM      3  H   LIG    1        0.459   1.841   2.423  0.00  0.00    +0.410 HD
ATOM      4  C   LIG    1        2.117   1.818   3.570  0.00  0.00    +0.570 C 
ATOM      5  O   LIG    1        3.304   1.556   3.591  0.00  0.00    -0.520 OA
BRANCH   4   6
ATOM      6  C   LIG    1        1.453   2.341   4.783  0.00  0.00    -0.100 A 
ATOM      7  C   LIG    1        0.092   2.648   4.760  0.00  0.00    +0.010 A 
ATOM      8  C   LIG    1       -0.525   3.130   5.896  0.00  0.00    +0.060 A 
ATOM      9  C   LIG    1        0.203   3.322   7.055  0.00  0.00    -0.040 A 
ATOM     10  C   LIG    1        1.559   3.024   7.086  0.00  0.00    +0.120 A 
ATOM     11  C   LIG    1        2.187   2.534   5.954  0.00  0.00    +0.060 A 
BRANCH  10  12
ATOM     12  O   LIG    1        2.270   3.215   8.229  0.00  0.00    -0.310 OA
ATOM     13  C   LIG    1        1.558   3.723   9.359  0.00  0.00    +0.250 C 
ENDBRANCH  10  12
ENDBRANCH   4   6
ENDBRANCH   1   2
BRANCH   1  14
ATOM     14  C   LIG    1        2.097  -0.392   1.293  0.00  0.00    +0.440 C 
ATOM     15  O   LIG    1        1.621  -0.972   2.239  0.00  0.00    -0.480 OA
BRANCH  14  16
ATOM     16  O   LIG    1        2.656  -1.088   0.290  0.00  0.00    -0.350 OA
BRANCH  16  18
ATOM     17  C   LIG    1        3.328  -3.150  -0.817  0.00  0.00    +0.070 C 
ATOM     18  C   LIG    1        2.653  -2.535   0.410  0.00  0.00    +0.200 C 
ENDBRANCH  16  18
ENDBRANCH  14  16
ENDBRANCH   1  14
BRANCH   1  19
ATOM     19  C   LIG    1        1.286   1.562  -0.002  0.00  0.00    +0.290 C 
BRANCH  19  20
ATOM     20  C   LIG    1        2.028   1.134  -1.242  0.00  0.00    -0.090 A 
ATOM     21  C   LIG    1        1.864  -0.140  -1.763  0.00  0.00    +0.010 A 
ATOM     22  C   LIG    1        2.557  -0.495  -2.905  0.00  0.00    +0.260 A 
ATOM     23  N   LIG    1        3.375   0.358  -3.490  0.00  0.00    -0.470 NA
ATOM     24  C   LIG    1        3.560   1.575  -3.019  0.00  0.00    +0.260 A 
ATOM     25  C   LIG    1        2.896   2.003  -1.885  0.00  0.00    -0.010 A 
ENDBRANCH  19  20
BRANCH  19  26
ATOM     26  O   LIG    1       -0.011   0.963   0.007  0.00  0.00    -0.540 OA
ATOM     27  H   LIG    1        0.002  -0.004   0.002  0.00  0.00    +0.380 HD
ENDBRANCH  19  26
ENDBRANCH   1  19
TORSDOF 9
