REMARK  Name = ZINCpk00000xI6Us.0
REMARK                            x       y       z     vdW  Elec       q    Type
REMARK                         _______ _______ _______ _____ _____    ______ ____
ROOT
ATOM      1  N   LIG    1        3.183   0.972   1.198  0.00  0.00    -1.100 NA
ATOM      2  S   LIG    1        2.333   0.910  -0.028  0.00  0.00    +2.560 S 
ATOM      3  C   LIG    1        1.318  -0.544  -0.030  0.00  0.00    -0.520 A 
ATOM      4  C   LIG    1        1.565  -1.886  -0.039  0.00  0.00    +0.180 A 
ATOM      5  C   LIG    1        0.502  -2.780  -0.037  0.00  0.00    +0.070 A 
ATOM      6  C   LIG    1       -0.794  -2.296  -0.025  0.00  0.00    +0.080 A 
ATOM      7  C   LIG    1       -1.046  -0.943  -0.016  0.00  0.00    +0.120 A 
ATOM      8  C   LIG    1        0.016  -0.022  -0.018  0.00  0.00    -0.120 A 
ATOM      9  C   LIG    1       -0.008   1.447  -0.009  0.00  0.00    +0.530 C 
ATOM     10  O   LIG    1       -1.063   2.050  -0.004  0.00  0.00    -0.460 OA
ATOM     11  O   LIG    1        3.127   0.983  -1.204  0.00  0.00    -0.920 OA
ATOM     12  N   LIG    1        1.161   2.108  -0.013  0.00  0.00    -0.910 N 
ATOM     13  C   LIG    1        1.367   3.558  -0.006  0.00  0.00    +0.380 C 
ENDROOT
BRANCH   1  14
ATOM     14  C   LIG    1        4.011   1.990   1.378  0.00  0.00    +0.560 C 
ATOM     15  O   LIG    1        4.079   2.873   0.546  0.00  0.00    -0.560 OA
BRANCH  14  21
ATOM     16  C   LIG    1        6.798  -0.010   4.734  0.00  0.00    +0.550 C 
ATOM     17  N   LIG    1        6.699   0.964   3.807  0.00  0.00    -0.610 N 
ATOM     18  C   LIG    1        7.508   2.185   3.915  0.00  0.00    +0.260 C 
ATOM     19  C   LIG    1        6.578   3.400   3.848  0.00  0.00    +0.020 C 
ATOM     20  C   LIG    1        5.729   3.319   2.577  0.00  0.00    +0.050 C 
ATOM     21  C   LIG    1        4.870   2.053   2.615  0.00  0.00    +0.020 C 
ATOM     22  C   LIG    1        5.781   0.823   2.669  0.00  0.00    +0.310 C 
ATOM     23  O   LIG    1        6.057  -0.973   4.686  0.00  0.00    -0.540 OA
BRANCH  16  25
ATOM     24  C   LIG    1        7.968  -0.912   6.659  0.00  0.00    +0.140 C 
ATOM     25  C   LIG    1        7.803   0.092   5.803  0.00  0.00    -0.090 C 
ENDBRANCH  16  25
ENDBRANCH  14  21
ENDBRANCH   1  14
TORSDOF 3
