REMARK  Name = ZINCkj000018RDEw.0
REMARK                            x       y       z     vdW  Elec       q    Type
REMARK                         _______ _______ _______ _____ _____    ______ ____
ROOT
ATOM      1  C   LIG    1       -2.233   1.742   0.606  0.00  0.00    +0.140 C 
ATOM      2  C   LIG    1       -1.900   1.235  -0.812  0.00  0.00    +0.050 C 
ATOM      3  C   LIG    1       -0.401   1.581  -0.997  0.00  0.00    +0.050 C 
ATOM      4  C   LIG    1        0.190   1.301   0.407  0.00  0.00    +0.050 C 
ATOM      5  C   LIG    1       -0.901   1.785   1.384  0.00  0.00    +0.170 C 
ENDROOT
BRANCH   1   9
ATOM      6  C   LIG    1       -5.524   0.237   1.177  0.00  0.00    +0.160 C 
ATOM      7  C   LIG    1       -5.111   0.605   2.620  0.00  0.00    +0.020 C 
ATOM      8  C   LIG    1       -3.850   1.479   2.407  0.00  0.00    +0.160 C 
ATOM      9  N   LIG    1       -3.169   0.820   1.263  0.00  0.00    -0.540 NA
ATOM     10  C   LIG    1       -4.246   0.409   0.336  0.00  0.00    +0.230 C 
BRANCH   6  11
ATOM     11  O   LIG    1       -5.976  -1.118   1.121  0.00  0.00    -0.560 OA
ATOM     12  H   LIG    1       -6.779  -1.286   1.632  0.00  0.00    +0.390 HD
ENDBRANCH   6  11
ENDBRANCH   1   9
BRANCH   5  13
ATOM     13  N   LIG    1       -0.966   0.891   2.548  0.00  0.00    -0.500 N 
ATOM     14  H   LIG    1       -1.145  -0.052   2.238  0.00  0.00    +0.430 HD
ATOM     15  H   LIG    1       -1.710   1.191   3.161  0.00  0.00    +0.420 HD
BRANCH  13  16
ATOM     16  C   LIG    1        0.312   0.935   3.271  0.00  0.00    +0.240 C 
BRANCH  16  17
ATOM     17  C   LIG    1        0.244   0.004   4.483  0.00  0.00    +0.040 C 
BRANCH  17  18
ATOM     18  C   LIG    1        1.575   0.050   5.236  0.00  0.00    -0.010 C 
ATOM     19  C   LIG    1        2.685  -0.526   4.351  0.00  0.00    -0.010 C 
ATOM     20  C   LIG    1        3.996  -0.551   5.141  0.00  0.00    +0.210 C 
ATOM     21  O   LIG    1        3.820  -1.319   6.332  0.00  0.00    -0.380 OA
ATOM     22  C   LIG    1        2.828  -0.800   7.221  0.00  0.00    +0.210 C 
ATOM     23  C   LIG    1        1.470  -0.786   6.515  0.00  0.00    +0.010 C 
ENDBRANCH  17  18
ENDBRANCH  16  17
ENDBRANCH  13  16
ENDBRANCH   5  13
TORSDOF 6
