REMARK  Name = ZINCvU0000000J8j.0
REMARK                            x       y       z     vdW  Elec       q    Type
REMARK                         _______ _______ _______ _____ _____    ______ ____
ROOT
ATOM      1  C   LIG    1        0.672  -0.785  -0.032  0.00  0.00    +0.190 A 
ATOM      2  C   LIG    1        1.534  -0.133  -0.904  0.00  0.00    +0.060 A 
ATOM      3  C   LIG    1        1.579   1.246  -0.927  0.00  0.00    +0.090 A 
ATOM      4  C   LIG    1        0.763   1.982  -0.079  0.00  0.00    +0.130 A 
ATOM      5  C   LIG    1       -0.099   1.330   0.794  0.00  0.00    +0.080 A 
ATOM      6  C   LIG    1       -0.144  -0.049   0.817  0.00  0.00    -0.200 A 
ENDROOT
BRANCH   1   8
ATOM      7  C   LIG    1        1.716  -2.900  -0.349  0.00  0.00    +0.600 C 
ATOM      8  N   LIG    1        0.627  -2.184  -0.007  0.00  0.00    -0.670 N 
ATOM      9  H   LIG    1       -0.189  -2.638   0.255  0.00  0.00    +0.410 HD
ATOM     10  O   LIG    1        2.715  -2.333  -0.754  0.00  0.00    -0.500 OA
BRANCH   7  18
ATOM     11  C   LIG    1        3.899 -10.082  -0.360  0.00  0.00    +0.030 C 
ATOM     12  C   LIG    1        3.025  -8.909   0.088  0.00  0.00    -0.020 C 
ATOM     13  C   LIG    1        1.562  -9.198  -0.261  0.00  0.00    +0.030 C 
ATOM     14  C   LIG    1        0.672  -8.158   0.425  0.00  0.00    +0.120 C 
ATOM     15  C   LIG    1        1.217  -6.774   0.122  0.00  0.00    -0.180 A 
ATOM     16  C   LIG    1        2.461  -6.531  -0.347  0.00  0.00    -0.120 A 
ATOM     17  C   LIG    1        2.731  -5.190  -0.552  0.00  0.00    +0.130 A 
ATOM     18  C   LIG    1        1.700  -4.361  -0.234  0.00  0.00    -0.280 A 
ATOM     19  S   LIG    1        0.343  -5.322   0.330  0.00  0.00    +0.200 S 
ATOM     20  C   LIG    1        3.472  -7.635  -0.631  0.00  0.00    +0.110 C 
ENDBRANCH   7  18
ENDBRANCH   1   8
BRANCH   4  21
ATOM     21  N   LIG    1        0.809   3.381  -0.103  0.00  0.00    -0.660 N 
ATOM     22  H   LIG    1       -0.003   3.896   0.032  0.00  0.00    +0.420 HD
ATOM     23  C   LIG    1        1.980   4.014  -0.312  0.00  0.00    +0.610 C 
ATOM     24  O   LIG    1        2.983   3.371  -0.562  0.00  0.00    -0.500 OA
BRANCH  23  25
ATOM     25  C   LIG    1        2.047   5.477  -0.239  0.00  0.00    -0.090 A 
ATOM     26  C   LIG    1        3.164   6.239  -0.423  0.00  0.00    +0.050 A 
ATOM     27  C   LIG    1        2.771   7.577  -0.265  0.00  0.00    -0.070 A 
ATOM     28  C   LIG    1        1.448   7.572   0.014  0.00  0.00    +0.210 A 
ATOM     29  O   LIG    1        1.016   6.305   0.029  0.00  0.00    -0.170 OA
ENDBRANCH  23  25
ENDBRANCH   4  21
BRANCH   6  30
ATOM     30  C   LIG    1       -1.079  -0.756   1.764  0.00  0.00    +0.510 C 
ATOM     31  F   LIG    1       -0.340  -1.571   2.628  0.00  0.00    -0.170 F 
ATOM     32  F   LIG    1       -1.975  -1.544   1.033  0.00  0.00    -0.180 F 
ATOM     33  F   LIG    1       -1.791   0.190   2.510  0.00  0.00    -0.170 F 
ENDBRANCH   6  30
TORSDOF 5
