REMARK  Name = ZINCqH00000059rC.0
REMARK                            x       y       z     vdW  Elec       q    Type
REMARK                         _______ _______ _______ _____ _____    ______ ____
ROOT
ATOM      1  C   LIG    1       -0.649   1.726  -1.226  0.00  0.00    +0.490 C 
ATOM      2  N   LIG    1       -0.288   1.272  -2.443  0.00  0.00    -0.670 N 
ATOM      3  H   LIG    1        0.479   0.687  -2.534  0.00  0.00    +0.420 HD
ATOM      4  O   LIG    1       -1.549   2.533  -1.122  0.00  0.00    -0.500 OA
ENDROOT
BRANCH   2   5
ATOM      5  C   LIG    1       -1.022   1.647  -3.575  0.00  0.00    +0.150 A 
ATOM      6  C   LIG    1       -2.392   1.853  -3.479  0.00  0.00    +0.070 A 
ATOM      7  C   LIG    1       -3.113   2.222  -4.598  0.00  0.00    +0.060 A 
ATOM      8  C   LIG    1       -2.471   2.387  -5.813  0.00  0.00    -0.010 A 
ATOM      9  C   LIG    1       -1.106   2.183  -5.911  0.00  0.00    -0.160 A 
ATOM     10 CL   LIG    1       -3.381   2.851  -7.217  0.00  0.00    -0.040 Cl
ATOM     11  C   LIG    1       -0.380   1.818  -4.795  0.00  0.00    +0.060 A 
BRANCH   9  12
ATOM     12  C   LIG    1       -0.411   2.364  -7.236  0.00  0.00    +0.510 C 
ATOM     13  F   LIG    1       -0.589   3.679  -7.679  0.00  0.00    -0.170 F 
ATOM     14  F   LIG    1       -0.954   1.478  -8.172  0.00  0.00    -0.170 F 
ATOM     15  F   LIG    1        0.955   2.103  -7.085  0.00  0.00    -0.170 F 
ENDBRANCH   9  12
ENDBRANCH   2   5
BRANCH   1  16
ATOM     16  C   LIG    1        0.065   1.230   0.005  0.00  0.00    +0.350 C 
BRANCH  16  18
ATOM     17  C   LIG    1       -1.633   1.240   1.891  0.00  0.00    +0.310 C 
ATOM     18  N   LIG    1       -0.508   1.868   1.192  0.00  0.00    -0.580 N 
BRANCH  18  19
ATOM     19  C   LIG    1        0.014   3.070   1.656  0.00  0.00    +0.450 A 
ATOM     20  C   LIG    1        1.015   3.711   0.934  0.00  0.00    -0.090 A 
ATOM     21  C   LIG    1        1.522   4.909   1.405  0.00  0.00    +0.190 A 
ATOM     22  C   LIG    1        1.017   5.421   2.592  0.00  0.00    -0.160 A 
ATOM     23  C   LIG    1        0.027   4.729   3.260  0.00  0.00    +0.430 A 
ATOM     24  N   LIG    1       -0.441   3.591   2.785  0.00  0.00    -0.520 NA
BRANCH  22  25
ATOM     25  N   LIG    1        1.535   6.697   3.135  0.00  0.00    +0.040 N 
ATOM     26  O   LIG    1        2.408   7.303   2.540  0.00  0.00    -0.170 OA
ATOM     27  O   LIG    1        1.087   7.142   4.177  0.00  0.00    -0.160 OA
ENDBRANCH  22  25
ENDBRANCH  18  19
ENDBRANCH  16  18
ENDBRANCH   1  16
TORSDOF 6
