REMARK  Name = ZINCpk00000KfL0H.0
REMARK                            x       y       z     vdW  Elec       q    Type
REMARK                         _______ _______ _______ _____ _____    ______ ____
ROOT
ATOM      1  N   LIG    1        3.879  -0.503   0.768  0.00  0.00    -0.740 N 
ATOM      2  H   LIG    1        3.361  -1.321   0.824  0.00  0.00    +0.390 HD
ATOM      3  C   LIG    1        5.074  -0.417   1.386  0.00  0.00    +0.700 C 
ATOM      4  N   LIG    1        5.549  -1.468   2.082  0.00  0.00    -0.740 N 
ATOM      5  H   LIG    1        5.031  -2.287   2.139  0.00  0.00    +0.400 HD
ATOM      6  O   LIG    1        5.722   0.609   1.315  0.00  0.00    -0.590 OA
ENDROOT
BRANCH   1   7
ATOM      7  C   LIG    1        3.362   0.640   0.011  0.00  0.00    +0.340 C 
BRANCH   7   8
ATOM      8  C   LIG    1        1.856   0.617   0.032  0.00  0.00    -0.250 A 
ATOM      9  C   LIG    1        1.048   1.654   0.352  0.00  0.00    +0.100 A 
ATOM     10  N   LIG    1       -0.229   1.228   0.251  0.00  0.00    -0.370 N 
ATOM     11  N   LIG    1       -0.204  -0.116  -0.145  0.00  0.00    -0.290 NA
ATOM     12  C   LIG    1       -1.428   2.030   0.504  0.00  0.00    +0.360 C 
ATOM     13  C   LIG    1        1.494   3.037   0.751  0.00  0.00    +0.140 C 
ATOM     14  C   LIG    1        1.045  -0.481  -0.276  0.00  0.00    +0.090 A 
ATOM     15  C   LIG    1        1.528  -1.848  -0.688  0.00  0.00    +0.150 C 
ENDBRANCH   7   8
BRANCH   7  17
ATOM     16  C   LIG    1        5.376   0.707  -1.467  0.00  0.00    +0.020 C 
ATOM     17  C   LIG    1        3.853   0.558  -1.436  0.00  0.00    +0.000 C 
ENDBRANCH   7  17
ENDBRANCH   1   7
BRANCH   4  18
ATOM     18  C   LIG    1        6.847  -1.375   2.754  0.00  0.00    +0.270 C 
BRANCH  18  19
ATOM     19  C   LIG    1        7.149  -2.695   3.467  0.00  0.00    +0.210 C 
ATOM     20  C   LIG    1        5.996  -3.039   4.412  0.00  0.00    +0.070 C 
BRANCH  19  21
ATOM     21  C   LIG    1        8.424  -2.559   4.258  0.00  0.00    -0.270 A 
ATOM     22  C   LIG    1        9.299  -3.553   4.535  0.00  0.00    +0.260 A 
ATOM     23  N   LIG    1       10.305  -3.024   5.263  0.00  0.00    -0.370 N 
ATOM     24  N   LIG    1       10.039  -1.660   5.440  0.00  0.00    -0.290 NA
ATOM     25  C   LIG    1       11.470  -3.749   5.777  0.00  0.00    +0.360 C 
ATOM     26  C   LIG    1        8.915  -1.381   4.832  0.00  0.00    +0.240 A 
ENDBRANCH  19  21
BRANCH  19  27
ATOM     27  O   LIG    1        7.298  -3.736   2.499  0.00  0.00    -0.550 OA
ATOM     28  H   LIG    1        8.012  -3.584   1.865  0.00  0.00    +0.380 HD
ENDBRANCH  19  27
ENDBRANCH  18  19
ENDBRANCH   4  18
TORSDOF 7
