REMARK  Name = ZINCrH00000tj1nu.0
REMARK                            x       y       z     vdW  Elec       q    Type
REMARK                         _______ _______ _______ _____ _____    ______ ____
ROOT
ATOM      1  N   LIG    1       -2.938   7.771  -0.255  0.00  0.00    -0.740 N 
ATOM      2  H   LIG    1       -3.635   7.097  -0.240  0.00  0.00    +0.410 HD
ENDROOT
BRANCH   1   6
ATOM      3  C   LIG    1       -3.947  11.805  -0.553  0.00  0.00    +0.080 A 
ATOM      4  C   LIG    1       -4.945  10.839  -0.532  0.00  0.00    +0.070 A 
ATOM      5  C   LIG    1       -4.611   9.503  -0.434  0.00  0.00    -0.040 A 
ATOM      6  C   LIG    1       -3.276   9.125  -0.355  0.00  0.00    +0.210 A 
ATOM      7  C   LIG    1       -2.279  10.091  -0.369  0.00  0.00    -0.060 A 
ATOM      8  C   LIG    1       -2.613  11.427  -0.474  0.00  0.00    +0.030 A 
BRANCH   3  10
ATOM      9  C   LIG    1       -5.403  13.622  -0.056  0.00  0.00    +0.510 C 
ATOM     10  N   LIG    1       -4.287  13.161  -0.653  0.00  0.00    -0.670 N 
ATOM     11  H   LIG    1       -3.718  13.768  -1.152  0.00  0.00    +0.410 HD
ATOM     12  O   LIG    1       -6.160  12.849   0.494  0.00  0.00    -0.520 OA
BRANCH   9  13
ATOM     13  C   LIG    1       -5.712  15.097  -0.071  0.00  0.00    +0.060 C 
BRANCH  13  15
ATOM     14  C   LIG    1       -6.857  14.988   2.147  0.00  0.00    +0.010 C 
ATOM     15  C   LIG    1       -7.026  15.350   0.670  0.00  0.00    +0.000 C 
ATOM     16  C   LIG    1       -7.404  16.828   0.548  0.00  0.00    +0.020 C 
ENDBRANCH  13  15
ENDBRANCH   9  13
ENDBRANCH   3  10
ENDBRANCH   1   6
BRANCH   1  17
ATOM     17  C   LIG    1       -1.530   7.373  -0.171  0.00  0.00    +0.300 C 
BRANCH  17  18
ATOM     18  C   LIG    1       -1.439   5.872  -0.072  0.00  0.00    +0.510 C 
ATOM     19  N   LIG    1       -0.234   5.275   0.016  0.00  0.00    -0.660 N 
ATOM     20  H   LIG    1        0.570   5.813   0.096  0.00  0.00    +0.420 HD
ATOM     21  O   LIG    1       -2.449   5.201  -0.071  0.00  0.00    -0.510 OA
BRANCH  19  22
ATOM     22  C   LIG    1       -0.141   3.882  -0.009  0.00  0.00    +0.190 A 
ATOM     23  C   LIG    1       -1.116   3.143  -0.608  0.00  0.00    +0.040 A 
ATOM     24  C   LIG    1       -1.050   1.752  -0.653  0.00  0.00    +0.070 A 
ATOM     25  C   LIG    1       -0.020   1.069  -0.096  0.00  0.00    +0.050 A 
ATOM     26  C   LIG    1        1.032   1.771   0.545  0.00  0.00    +0.100 A 
ATOM     27  N   LIG    1        2.127   1.333   1.147  0.00  0.00    -0.590 NA
ATOM     28  S   LIG    1        2.942   2.546   1.680  0.00  0.00    +0.810 S 
ATOM     29  N   LIG    1        2.027   3.716   1.222  0.00  0.00    -0.600 NA
ATOM     30  C   LIG    1        0.972   3.229   0.591  0.00  0.00    +0.060 A 
ENDBRANCH  19  22
ENDBRANCH  17  18
ENDBRANCH   1  17
TORSDOF 7
