REMARK  Name = ZINCAx0000000k00.0
REMARK                            x       y       z     vdW  Elec       q    Type
REMARK                         _______ _______ _______ _____ _____    ______ ____
ROOT
ATOM      1  O   LIG    1       -2.198   1.711   0.091  0.00  0.00    -0.510 OA
ATOM      2  C   LIG    1       -1.093   2.202   0.000  0.00  0.00    +0.500 C 
ATOM      3  N   LIG    1       -0.002   1.410   0.005  0.00  0.00    -0.650 N 
ATOM      4  H   LIG    1        0.884   1.805  -0.006  0.00  0.00    +0.430 HD
ENDROOT
BRANCH   3   5
ATOM      5  C   LIG    1       -0.147   0.025   0.019  0.00  0.00    +0.210 A 
ATOM      6  C   LIG    1       -1.190  -0.560   0.723  0.00  0.00    +0.020 A 
ATOM      7  C   LIG    1       -1.335  -1.933   0.731  0.00  0.00    +0.060 A 
ATOM      8  C   LIG    1       -0.437  -2.737   0.049  0.00  0.00    -0.010 A 
ATOM      9  C   LIG    1        0.609  -2.174  -0.651  0.00  0.00    +0.060 A 
ATOM     10  C   LIG    1        0.765  -0.786  -0.673  0.00  0.00    -0.170 A 
BRANCH  10  11
ATOM     11  C   LIG    1        1.882  -0.177  -1.420  0.00  0.00    +0.570 C 
ATOM     12  N   LIG    1        2.696  -0.951  -2.165  0.00  0.00    -0.720 N 
ATOM     13  H   LIG    1        2.547  -1.909  -2.210  0.00  0.00    +0.400 HD
ATOM     14  O   LIG    1        2.067   1.023  -1.364  0.00  0.00    -0.550 OA
BRANCH  12  15
ATOM     15  C   LIG    1        3.805  -0.346  -2.907  0.00  0.00    +0.320 C 
BRANCH  15  16
ATOM     16  C   LIG    1        4.555  -1.419  -3.653  0.00  0.00    -0.110 A 
ATOM     17  C   LIG    1        5.620  -2.063  -3.051  0.00  0.00    +0.020 A 
ATOM     18  C   LIG    1        6.305  -3.051  -3.733  0.00  0.00    +0.010 A 
ATOM     19  C   LIG    1        5.932  -3.388  -5.021  0.00  0.00    +0.010 A 
ATOM     20  C   LIG    1        4.870  -2.741  -5.625  0.00  0.00    +0.010 A 
ATOM     21  C   LIG    1        4.182  -1.756  -4.941  0.00  0.00    +0.020 A 
ENDBRANCH  15  16
ENDBRANCH  12  15
ENDBRANCH  10  11
ENDBRANCH   3   5
BRANCH   2  22
ATOM     22  C   LIG    1       -0.939   3.696  -0.117  0.00  0.00    +0.370 C 
BRANCH  22  23
ATOM     23  N   LIG    1       -2.262   4.326  -0.098  0.00  0.00    -0.560 N 
ATOM     24  C   LIG    1       -2.886   4.731   1.014  0.00  0.00    +0.710 C 
ATOM     25  N   LIG    1       -4.090   5.279   0.758  0.00  0.00    -0.710 N 
ATOM     26  H   LIG    1       -4.715   5.639   1.406  0.00  0.00    +0.440 HD
ATOM     27  C   LIG    1       -4.269   5.223  -0.699  0.00  0.00    +0.180 C 
ATOM     28  C   LIG    1       -4.408   6.628  -1.275  0.00  0.00    +0.050 C 
ATOM     29  C   LIG    1       -5.821   7.141  -0.965  0.00  0.00    +0.260 C 
ATOM     30  O   LIG    1       -6.763   6.306  -1.639  0.00  0.00    -0.310 OA
ATOM     31  C   LIG    1       -6.642   4.961  -1.494  0.00  0.00    +0.160 A 
ATOM     32  C   LIG    1       -7.731   4.156  -1.807  0.00  0.00    -0.010 A 
ATOM     33  C   LIG    1       -7.640   2.784  -1.680  0.00  0.00    +0.060 A 
ATOM     34  C   LIG    1       -6.463   2.208  -1.240  0.00  0.00    -0.020 A 
ATOM     35  C   LIG    1       -5.379   3.005  -0.927  0.00  0.00    +0.070 A 
ATOM     36  C   LIG    1       -5.464   4.382  -1.051  0.00  0.00    -0.180 A 
ATOM     37  O   LIG    1       -2.420   4.618   2.131  0.00  0.00    -0.530 OA
ATOM     38  C   LIG    1       -2.999   4.575  -1.200  0.00  0.00    +0.540 C 
ATOM     39  O   LIG    1       -2.705   4.330  -2.351  0.00  0.00    -0.440 OA
ENDBRANCH  22  23
ENDBRANCH   2  22
TORSDOF 6
