REMARK  Name = ZINCpe00000VVH0P.0
REMARK                            x       y       z     vdW  Elec       q    Type
REMARK                         _______ _______ _______ _____ _____    ______ ____
ROOT
ATOM      1  C   LIG    1       -4.143   2.418  -2.301  0.00  0.00    +0.610 C 
ATOM      2  N   LIG    1       -3.050   2.492  -1.515  0.00  0.00    -0.610 N 
ATOM      3  C   LIG    1       -2.476   3.695  -0.868  0.00  0.00    +0.290 C 
ATOM      4  C   LIG    1       -0.946   3.520  -1.007  0.00  0.00    -0.010 C 
ATOM      5  C   LIG    1       -0.734   1.999  -1.161  0.00  0.00    +0.130 C 
ATOM      6  C   LIG    1       -2.151   1.389  -1.103  0.00  0.00    +0.290 C 
ATOM      7  O   LIG    1       -4.489   1.348  -2.761  0.00  0.00    -0.520 OA
ENDROOT
BRANCH   1  10
ATOM      8  N   LIG    1       -5.183   5.884  -2.338  0.00  0.00    -0.340 N 
ATOM      9  N   LIG    1       -4.546   4.795  -2.101  0.00  0.00    -0.170 NA
ATOM     10  C   LIG    1       -4.920   3.639  -2.604  0.00  0.00    +0.020 A 
ATOM     11  C   LIG    1       -6.067   3.559  -3.429  0.00  0.00    +0.130 A 
ATOM     12  C   LIG    1       -6.758   4.706  -3.686  0.00  0.00    -0.010 A 
ATOM     13  C   LIG    1       -6.285   5.907  -3.111  0.00  0.00    +0.480 A 
ATOM     14  O   LIG    1       -6.872   6.957  -3.313  0.00  0.00    -0.520 OA
BRANCH   8  15
ATOM     15  C   LIG    1       -4.702   7.135  -1.747  0.00  0.00    +0.320 C 
BRANCH  15  17
ATOM     16  C   LIG    1       -4.851   8.643   0.239  0.00  0.00    +0.030 C 
ATOM     17  C   LIG    1       -5.354   7.336  -0.378  0.00  0.00    +0.000 C 
ENDBRANCH  15  17
ENDBRANCH   8  15
ENDBRANCH   1  10
BRANCH   5  18
ATOM     18  N   LIG    1        0.089   1.484  -0.058  0.00  0.00    -0.520 NA
ATOM     19  C   LIG    1        1.520   1.679  -0.334  0.00  0.00    +0.150 C 
ATOM     20  C   LIG    1        2.337   1.184   0.863  0.00  0.00    +0.220 C 
ATOM     21  O   LIG    1        2.015  -0.186   1.120  0.00  0.00    -0.380 OA
ATOM     22  C   LIG    1        0.630  -0.411   1.393  0.00  0.00    +0.220 C 
ATOM     23  C   LIG    1       -0.204   0.067   0.201  0.00  0.00    +0.150 C 
ENDBRANCH   5  18
BRANCH   4  24
ATOM     24  C   LIG    1       -0.234   4.032   0.247  0.00  0.00    +0.040 C 
ATOM     25  C   LIG    1       -0.393   5.551   0.338  0.00  0.00    -0.010 C 
ENDBRANCH   4  24
TORSDOF 5
