REMARK  Name = ZINCrH000004kuvd.0
REMARK                            x       y       z     vdW  Elec       q    Type
REMARK                         _______ _______ _______ _____ _____    ______ ____
ROOT
ATOM      1  N   LIG    1       -0.856   3.655   0.136  0.00  0.00    -0.690 N 
ATOM      2  H   LIG    1        0.022   4.056   0.230  0.00  0.00    +0.410 HD
ATOM      3  C   LIG    1       -0.972   2.332  -0.097  0.00  0.00    +0.700 C 
ATOM      4  N   LIG    1        0.126   1.550  -0.099  0.00  0.00    -0.740 N 
ATOM      5  H   LIG    1        0.999   1.939   0.064  0.00  0.00    +0.400 HD
ATOM      6  O   LIG    1       -2.066   1.845  -0.306  0.00  0.00    -0.570 OA
ENDROOT
BRANCH   1  10
ATOM      7  C   LIG    1       -4.270   6.021   0.456  0.00  0.00    -0.130 A 
ATOM      8  C   LIG    1       -4.296   4.710   0.895  0.00  0.00    +0.060 A 
ATOM      9  C   LIG    1       -3.166   3.923   0.790  0.00  0.00    +0.020 A 
ATOM     10  C   LIG    1       -2.003   4.449   0.243  0.00  0.00    +0.180 A 
ATOM     11  C   LIG    1       -1.979   5.768  -0.192  0.00  0.00    -0.020 A 
ATOM     12  C   LIG    1       -3.114   6.548  -0.090  0.00  0.00    +0.060 A 
BRANCH   7  13
ATOM     13  C   LIG    1       -5.505   6.877   0.572  0.00  0.00    +0.340 C 
BRANCH  13  15
ATOM     14  C   LIG    1       -6.515   8.393   2.190  0.00  0.00    +0.640 C 
ATOM     15  N   LIG    1       -5.501   7.567   1.864  0.00  0.00    -0.710 N 
ATOM     16  H   LIG    1       -4.769   7.429   2.485  0.00  0.00    +0.410 HD
ATOM     17  O   LIG    1       -7.432   8.566   1.412  0.00  0.00    -0.570 OA
BRANCH  14  19
ATOM     18  C   LIG    1       -7.635   9.902   3.661  0.00  0.00    +0.280 C 
ATOM     19  O   LIG    1       -6.511   9.027   3.378  0.00  0.00    -0.370 OA
ENDBRANCH  14  19
ENDBRANCH  13  15
ENDBRANCH   7  13
ENDBRANCH   1  10
BRANCH   4  20
ATOM     20  C   LIG    1       -0.000   0.112  -0.352  0.00  0.00    +0.290 C 
BRANCH  20  21
ATOM     21  C   LIG    1        1.393  -0.516  -0.426  0.00  0.00    +0.030 C 
ATOM     22  C   LIG    1        2.148   0.072  -1.616  0.00  0.00    +0.020 C 
ATOM     23  C   LIG    1        3.448  -0.721  -1.802  0.00  0.00    +0.020 C 
ATOM     24  C   LIG    1        3.092  -2.117  -2.308  0.00  0.00    +0.080 C 
ATOM     25  C   LIG    1        2.040  -2.745  -1.432  0.00  0.00    -0.070 A 
ATOM     26  C   LIG    1        1.867  -4.121  -1.512  0.00  0.00    +0.000 A 
ATOM     27  C   LIG    1        0.917  -4.755  -0.739  0.00  0.00    +0.000 A 
ATOM     28  C   LIG    1        0.129  -4.016   0.123  0.00  0.00    +0.000 A 
ATOM     29  C   LIG    1        0.299  -2.650   0.206  0.00  0.00    +0.000 A 
ATOM     30  C   LIG    1        1.257  -2.009  -0.571  0.00  0.00    -0.070 A 
ENDBRANCH  20  21
ENDBRANCH   4  20
TORSDOF 6
