REMARK  Name = ZINCrD0000071Xes.0
REMARK                            x       y       z     vdW  Elec       q    Type
REMARK                         _______ _______ _______ _____ _____    ______ ____
ROOT
ATOM      1  N   LIG    1        7.380   2.384  -1.061  0.00  0.00    -0.660 N 
ATOM      2  H   LIG    1        7.184   2.363  -2.010  0.00  0.00    +0.430 HD
ATOM      3  C   LIG    1        6.648   1.644  -0.205  0.00  0.00    +0.520 C 
ATOM      4  O   LIG    1        6.955   1.592   0.967  0.00  0.00    -0.510 OA
ENDROOT
BRANCH   1  10
ATOM      5  C   LIG    1        9.492   3.518  -1.419  0.00  0.00    -0.170 A 
ATOM      6  C   LIG    1       10.524   4.321  -0.928  0.00  0.00    +0.100 A 
ATOM      7  C   LIG    1       10.487   4.766   0.376  0.00  0.00    -0.020 A 
ATOM      8  C   LIG    1        9.428   4.426   1.202  0.00  0.00    +0.080 A 
ATOM      9  C   LIG    1        8.398   3.637   0.729  0.00  0.00    +0.010 A 
ATOM     10  C   LIG    1        8.418   3.180  -0.582  0.00  0.00    +0.220 A 
BRANCH   5  11
ATOM     11  C   LIG    1        9.528   3.033  -2.811  0.00  0.00    +0.520 C 
ATOM     12  O   LIG    1        8.585   2.415  -3.264  0.00  0.00    -0.520 OA
BRANCH  11  13
ATOM     13  O   LIG    1       10.607   3.276  -3.581  0.00  0.00    -0.350 OA
BRANCH  13  15
ATOM     14  C   LIG    1       11.875   3.139  -5.656  0.00  0.00    +0.070 C 
ATOM     15  C   LIG    1       10.573   2.769  -4.941  0.00  0.00    +0.200 C 
ENDBRANCH  13  15
ENDBRANCH  11  13
ENDBRANCH   5  11
ENDBRANCH   1  10
BRANCH   3  16
ATOM     16  C   LIG    1        5.448   0.881  -0.704  0.00  0.00    +0.060 C 
BRANCH  16  17
ATOM     17  C   LIG    1        4.801   0.130   0.461  0.00  0.00    +0.320 C 
BRANCH  17  18
ATOM     18  N   LIG    1        3.634  -0.611  -0.025  0.00  0.00    -0.540 N 
ATOM     19  C   LIG    1        3.840  -1.856  -0.448  0.00  0.00    +0.520 C 
ATOM     20  C   LIG    1        2.745  -2.751  -0.958  0.00  0.00    +0.150 C 
ATOM     21  S   LIG    1        1.224  -2.414  -0.022  0.00  0.00    -0.080 S 
ATOM     22  C   LIG    1        1.201  -0.650   0.006  0.00  0.00    -0.130 A 
ATOM     23  C   LIG    1       -0.005   0.031   0.034  0.00  0.00    +0.080 A 
ATOM     24  C   LIG    1       -0.016   1.413   0.053  0.00  0.00    +0.010 A 
ATOM     25  C   LIG    1        1.177   2.113   0.043  0.00  0.00    +0.050 A 
ATOM     26  C   LIG    1        2.383   1.440   0.015  0.00  0.00    -0.010 A 
ATOM     27  O   LIG    1        4.972  -2.292  -0.421  0.00  0.00    -0.510 OA
ATOM     28  C   LIG    1        2.408   0.050  -0.002  0.00  0.00    +0.160 A 
ENDBRANCH  17  18
ENDBRANCH  16  17
ENDBRANCH   3  16
TORSDOF 7
