REMARK  Name = ZINCfA000000bmmG.0
REMARK                            x       y       z     vdW  Elec       q    Type
REMARK                         _______ _______ _______ _____ _____    ______ ____
ROOT
ATOM      1  N   LIG    1        1.304   1.924   2.452  0.00  0.00    -0.510 N 
ATOM      2  H   LIG    1        1.207   2.928   2.414  0.00  0.00    +0.430 HD
ATOM      3  H   LIG    1        1.827   1.606   1.649  0.00  0.00    +0.430 HD
ENDROOT
BRANCH   1   4
ATOM      4  C   LIG    1       -0.028   1.304   2.446  0.00  0.00    +0.260 C 
BRANCH   4   5
ATOM      5  C   LIG    1       -0.768   1.697   1.166  0.00  0.00    -0.010 C 
ATOM      6  C   LIG    1       -0.042   1.108  -0.045  0.00  0.00    +0.040 C 
BRANCH   5   7
ATOM      7  C   LIG    1       -2.198   1.155   1.217  0.00  0.00    +0.070 C 
BRANCH   7   9
ATOM      8  C   LIG    1       -4.369   1.246   2.450  0.00  0.00    +0.010 C 
ATOM      9  C   LIG    1       -2.969   1.853   2.340  0.00  0.00    +0.150 C 
BRANCH   9  10
ATOM     10  O   LIG    1       -3.075   3.248   2.049  0.00  0.00    -0.570 OA
ATOM     11  H   LIG    1       -3.553   3.754   2.720  0.00  0.00    +0.390 HD
ENDBRANCH   9  10
ENDBRANCH   7   9
ENDBRANCH   5   7
ENDBRANCH   4   5
ENDBRANCH   1   4
BRANCH   1  12
ATOM     12  C   LIG    1        2.015   1.547   3.680  0.00  0.00    +0.380 C 
BRANCH  12  13
ATOM     13  C   LIG    1        3.381   2.183   3.686  0.00  0.00    -0.280 A 
ATOM     14  C   LIG    1        3.667   3.385   4.190  0.00  0.00    -0.050 A 
ATOM     15  C   LIG    1        4.996   3.760   4.085  0.00  0.00    +0.040 A 
ATOM     16  C   LIG    1        5.786   2.867   3.487  0.00  0.00    +0.030 A 
ATOM     17 BR   LIG    1        2.359   4.490   4.993  0.00  0.00    -0.000 Br
ATOM     18  S   LIG    1        4.840   1.459   3.023  0.00  0.00    +0.210 S 
ENDBRANCH  12  13
ENDBRANCH   1  12
TORSDOF 7
