REMARK  Name = ZINCrD00000e0JFm.0
REMARK                            x       y       z     vdW  Elec       q    Type
REMARK                         _______ _______ _______ _____ _____    ______ ____
ROOT
ATOM      1  N   LIG    1        2.666   2.410   3.519  0.00  0.00    -0.720 N 
ATOM      2  H   LIG    1        3.534   2.775   3.288  0.00  0.00    +0.400 HD
ATOM      3  C   LIG    1        1.810   2.040   2.547  0.00  0.00    +0.600 C 
ATOM      4  O   LIG    1        0.721   1.582   2.837  0.00  0.00    -0.540 OA
ENDROOT
BRANCH   1   9
ATOM      5  C   LIG    1        2.275   3.900   8.854  0.00  0.00    +0.220 C 
ATOM      6  N   LIG    1        2.707   3.689   7.466  0.00  0.00    -0.500 N 
ATOM      7  C   LIG    1        3.135   2.305   7.253  0.00  0.00    +0.200 C 
ATOM      8  C   LIG    1        3.546   2.138   5.785  0.00  0.00    +0.040 C 
ATOM      9  C   LIG    1        2.285   2.261   4.926  0.00  0.00    +0.290 C 
ATOM     10  C   LIG    1        1.490   3.466   5.361  0.00  0.00    -0.140 A 
ATOM     11  C   LIG    1        0.499   3.935   4.514  0.00  0.00    +0.050 A 
ATOM     12  C   LIG    1       -0.262   5.032   4.866  0.00  0.00    -0.040 A 
ATOM     13  C   LIG    1       -0.037   5.669   6.073  0.00  0.00    +0.030 A 
ATOM     14  C   LIG    1        0.949   5.209   6.920  0.00  0.00    -0.040 A 
ATOM     15  C   LIG    1        1.723   4.102   6.569  0.00  0.00    +0.130 A 
ENDBRANCH   1   9
BRANCH   3  16
ATOM     16  C   LIG    1        2.193   2.190   1.131  0.00  0.00    -0.300 A 
ATOM     17  C   LIG    1        1.424   1.856   0.034  0.00  0.00    +0.170 A 
ATOM     18  N   LIG    1        2.138   2.155  -1.063  0.00  0.00    -0.360 N 
ATOM     19  N   LIG    1        3.372   2.678  -0.661  0.00  0.00    -0.290 NA
ATOM     20  C   LIG    1        1.699   1.967  -2.448  0.00  0.00    +0.360 C 
ATOM     21  C   LIG    1        3.417   2.700   0.643  0.00  0.00    +0.270 A 
BRANCH  17  22
ATOM     22  C   LIG    1        0.036   1.270   0.063  0.00  0.00    +0.180 C 
BRANCH  22  23
ATOM     23  C   LIG    1        0.127  -0.235   0.076  0.00  0.00    -0.080 A 
ATOM     24  C   LIG    1        0.143  -0.936  -1.115  0.00  0.00    +0.000 A 
ATOM     25  C   LIG    1        0.231  -2.316  -1.103  0.00  0.00    +0.000 A 
ATOM     26  C   LIG    1        0.292  -2.994   0.100  0.00  0.00    +0.000 A 
ATOM     27  C   LIG    1        0.271  -2.293   1.291  0.00  0.00    +0.000 A 
ATOM     28  C   LIG    1        0.188  -0.913   1.279  0.00  0.00    +0.040 A 
ENDBRANCH  22  23
ENDBRANCH  17  22
ENDBRANCH   3  16
TORSDOF 4
