REMARK  Name = ZINCb80000001yfl.0
REMARK                            x       y       z     vdW  Elec       q    Type
REMARK                         _______ _______ _______ _____ _____    ______ ____
ROOT
ATOM      1  N   LIG    1        2.256   5.348   0.009  0.00  0.00    -0.600 N 
ATOM      2  H   LIG    1        1.389   5.783   0.019  0.00  0.00    +0.430 HD
ATOM      3  C   LIG    1        2.336   4.003   0.001  0.00  0.00    +0.580 C 
ATOM      4  O   LIG    1        3.423   3.459  -0.011  0.00  0.00    -0.490 OA
ENDROOT
BRANCH   3   5
ATOM      5  C   LIG    1        1.103   3.190   0.008  0.00  0.00    -0.190 A 
ATOM      6  C   LIG    1        1.172   1.791   0.001  0.00  0.00    +0.140 A 
ATOM      7  C   LIG    1       -0.013   1.076   0.008  0.00  0.00    -0.030 A 
ATOM      8  C   LIG    1       -1.216   1.758   0.017  0.00  0.00    +0.300 A 
ATOM      9  N   LIG    1       -1.250   3.077   0.030  0.00  0.00    -0.480 NA
ATOM     10  C   LIG    1       -0.151   3.802   0.023  0.00  0.00    +0.300 A 
ENDBRANCH   3   5
BRANCH   1  12
ATOM     11  N   LIG    1        4.336   6.720  -0.003  0.00  0.00    -0.380 NA
ATOM     12  C   LIG    1        3.388   6.094   0.002  0.00  0.00    +0.410 C 
ENDBRANCH   1  12
TORSDOF 2
