REMARK  Name = ZINCtV00000L2Nbx.0
REMARK                            x       y       z     vdW  Elec       q    Type
REMARK                         _______ _______ _______ _____ _____    ______ ____
ROOT
ATOM      1  C   LIG    1       -4.631   5.038  -2.743  0.00  0.00    +0.100 A 
ATOM      2  C   LIG    1       -5.831   5.703  -2.911  0.00  0.00    +0.030 A 
ATOM      3  C   LIG    1       -6.562   6.111  -1.793  0.00  0.00    -0.040 A 
ATOM      4  C   LIG    1       -6.080   5.841  -0.512  0.00  0.00    +0.050 A 
ATOM      5  C   LIG    1       -4.885   5.173  -0.350  0.00  0.00    -0.020 A 
ATOM      6  C   LIG    1       -4.159   4.767  -1.460  0.00  0.00    +0.130 A 
ENDROOT
BRANCH   3   7
ATOM      7  C   LIG    1       -7.843   6.827  -1.968  0.00  0.00    +0.170 A 
ATOM      8  N   LIG    1       -8.370   7.128  -3.107  0.00  0.00    -0.460 NA
ATOM      9  C   LIG    1       -9.547   7.779  -3.104  0.00  0.00    +0.080 A 
ATOM     10  C   LIG    1      -10.321   8.212  -4.202  0.00  0.00    +0.080 A 
ATOM     11  C   LIG    1      -11.496   8.869  -4.004  0.00  0.00    +0.030 A 
ATOM     12  C   LIG    1      -11.959   9.126  -2.721  0.00  0.00    +0.040 A 
ATOM     13  C   LIG    1      -11.226   8.715  -1.630  0.00  0.00    +0.060 A 
ATOM     14  C   LIG    1      -10.020   8.042  -1.813  0.00  0.00    -0.170 A 
ATOM     15  S   LIG    1       -8.863   7.395  -0.653  0.00  0.00    +0.070 S 
ENDBRANCH   3   7
BRANCH   1  17
ATOM     16  C   LIG    1       -4.458   4.955  -5.114  0.00  0.00    +0.240 C 
ATOM     17  O   LIG    1       -3.914   4.644  -3.829  0.00  0.00    -0.300 OA
ENDBRANCH   1  17
BRANCH   6  18
ATOM     18  O   LIG    1       -2.981   4.108  -1.297  0.00  0.00    -0.290 OA
BRANCH  18  19
ATOM     19  C   LIG    1       -2.553   3.868   0.045  0.00  0.00    +0.260 C 
BRANCH  19  20
ATOM     20  C   LIG    1       -1.238   3.133   0.029  0.00  0.00    -0.100 A 
ATOM     21  C   LIG    1       -1.219   1.751   0.017  0.00  0.00    +0.080 A 
ATOM     22  C   LIG    1       -0.013   1.076   0.008  0.00  0.00    +0.020 A 
ATOM     23  C   LIG    1        1.175   1.783   0.000  0.00  0.00    +0.080 A 
ATOM     24  C   LIG    1        1.156   3.166   0.008  0.00  0.00    -0.190 A 
ATOM     25  C   LIG    1       -0.050   3.840   0.022  0.00  0.00    +0.100 A 
BRANCH  24  26
ATOM     26  C   LIG    1        2.451   3.937   0.000  0.00  0.00    +0.510 C 
ATOM     27  F   LIG    1        2.525   4.736   1.146  0.00  0.00    -0.180 F 
ATOM     28  F   LIG    1        2.503   4.748  -1.138  0.00  0.00    -0.170 F 
ATOM     29  F   LIG    1        3.526   3.042  -0.014  0.00  0.00    -0.180 F 
ENDBRANCH  24  26
ENDBRANCH  19  20
ENDBRANCH  18  19
ENDBRANCH   6  18
TORSDOF 6
