REMARK  Name = ZINCpk000000nUzW.0
REMARK                            x       y       z     vdW  Elec       q    Type
REMARK                         _______ _______ _______ _____ _____    ______ ____
ROOT
ATOM      1  N   LIG    1       -2.087  -0.383  -1.242  0.00  0.00    -0.700 N 
ATOM      2  H   LIG    1       -1.217  -0.802  -1.151  0.00  0.00    +0.410 HD
ATOM      3  C   LIG    1       -3.188  -1.143  -1.408  0.00  0.00    +0.590 C 
ATOM      4  O   LIG    1       -4.287  -0.624  -1.431  0.00  0.00    -0.500 OA
ENDROOT
BRANCH   3   5
ATOM      5  C   LIG    1       -3.058  -2.605  -1.564  0.00  0.00    +0.060 A 
ATOM      6  N   LIG    1       -1.877  -3.172  -1.546  0.00  0.00    -0.190 NA
ATOM      7  N   LIG    1       -1.679  -4.430  -1.669  0.00  0.00    -0.460 N 
ATOM      8  H   LIG    1       -0.766  -4.757  -1.639  0.00  0.00    +0.440 HD
ATOM      9  C   LIG    1       -2.672  -5.326  -1.843  0.00  0.00    +0.520 A 
ATOM     10  C   LIG    1       -4.057  -4.837  -1.889  0.00  0.00    -0.140 A 
ATOM     11  C   LIG    1       -5.151  -5.678  -2.065  0.00  0.00    +0.090 A 
ATOM     12  C   LIG    1       -6.420  -5.139  -2.097  0.00  0.00    +0.030 A 
ATOM     13  C   LIG    1       -6.614  -3.771  -1.957  0.00  0.00    +0.060 A 
ATOM     14  C   LIG    1       -5.542  -2.921  -1.782  0.00  0.00    +0.080 A 
ATOM     15  O   LIG    1       -2.427  -6.513  -1.960  0.00  0.00    -0.500 OA
ATOM     16  C   LIG    1       -4.255  -3.443  -1.746  0.00  0.00    -0.040 A 
ENDBRANCH   3   5
BRANCH   1  21
ATOM     17  C   LIG    1       -0.173   1.124   2.623  0.00  0.00    +0.030 C 
ATOM     18  C   LIG    1       -0.891   1.617   1.365  0.00  0.00    -0.070 C 
ATOM     19  C   LIG    1       -0.090   1.207   0.128  0.00  0.00    +0.030 C 
ATOM     20  C   LIG    1       -0.808   1.699  -1.131  0.00  0.00    +0.050 C 
ATOM     21  C   LIG    1       -2.204   1.077  -1.198  0.00  0.00    +0.170 C 
ATOM     22  C   LIG    1       -3.005   1.487   0.040  0.00  0.00    +0.060 C 
ATOM     23  C   LIG    1       -1.014   3.141   1.411  0.00  0.00    +0.030 C 
ATOM     24  C   LIG    1       -2.287   0.994   1.298  0.00  0.00    +0.020 C 
BRANCH  21  25
ATOM     25  C   LIG    1       -2.912   1.562  -2.437  0.00  0.00    +0.530 C 
ATOM     26  O   LIG    1       -3.671   2.505  -2.372  0.00  0.00    -0.530 OA
ATOM     27  N   LIG    1       -2.700   0.947  -3.618  0.00  0.00    -0.850 N 
ATOM     28  H   LIG    1       -3.098   1.303  -4.428  0.00  0.00    +0.400 HD
ATOM     29  H   LIG    1       -2.150   0.149  -3.657  0.00  0.00    +0.400 HD
ENDBRANCH  21  25
ENDBRANCH   1  21
TORSDOF 3
