REMARK  Name = ZINCtj00000mgfCu.0
REMARK                            x       y       z     vdW  Elec       q    Type
REMARK                         _______ _______ _______ _____ _____    ______ ____
ROOT
ATOM      1  N   LIG    1        1.764  -0.390   5.815  0.00  0.00    -0.680 N 
ATOM      2  H   LIG    1        2.159  -1.275   5.814  0.00  0.00    +0.410 HD
ATOM      3  C   LIG    1        1.817   0.372   6.925  0.00  0.00    +0.520 C 
ATOM      4  O   LIG    1        1.250   1.444   6.953  0.00  0.00    -0.500 OA
ENDROOT
BRANCH   1   8
ATOM      5  C   LIG    1       -0.103   1.062   2.379  0.00  0.00    +0.070 A 
ATOM      6  C   LIG    1        1.014   0.244   2.269  0.00  0.00    -0.010 A 
ATOM      7  C   LIG    1        1.635  -0.232   3.407  0.00  0.00    +0.010 A 
ATOM      8  C   LIG    1        1.136   0.098   4.660  0.00  0.00    +0.140 A 
ATOM      9  C   LIG    1        0.016   0.911   4.769  0.00  0.00    +0.060 A 
ATOM     10  C   LIG    1       -0.602   1.391   3.632  0.00  0.00    +0.020 A 
BRANCH   5  14
ATOM     11  N   LIG    1       -0.837   3.051  -1.201  0.00  0.00    -0.390 N 
ATOM     12  C   LIG    1       -0.790   1.583  -1.221  0.00  0.00    +0.280 C 
ATOM     13  C   LIG    1       -0.041   1.079   0.015  0.00  0.00    +0.220 C 
ATOM     14  N   LIG    1       -0.729   1.548   1.226  0.00  0.00    -0.480 N 
ATOM     15  C   LIG    1       -0.807   3.015   1.248  0.00  0.00    +0.230 C 
ATOM     16  C   LIG    1       -1.549   3.503   0.002  0.00  0.00    +0.270 C 
ATOM     17  H   LIG    1        0.103   3.417  -1.192  0.00  0.00    +0.420 HD
BRANCH  11  19
ATOM     18  C   LIG    1       -1.480   5.063  -2.440  0.00  0.00    +0.080 C 
ATOM     19  C   LIG    1       -1.539   3.534  -2.397  0.00  0.00    +0.250 C 
ENDBRANCH  11  19
ENDBRANCH   5  14
ENDBRANCH   1   8
BRANCH   3  20
ATOM     20  C   LIG    1        2.581  -0.108   8.132  0.00  0.00    +0.220 C 
BRANCH  20  21
ATOM     21  N   LIG    1        2.487   0.895   9.202  0.00  0.00    -0.520 NA
ATOM     22  C   LIG    1        3.169   2.138   8.819  0.00  0.00    +0.180 C 
ATOM     23  C   LIG    1        2.896   3.213   9.877  0.00  0.00    +0.290 C 
ATOM     24  N   LIG    1        3.271   2.678  11.195  0.00  0.00    -0.610 N 
ATOM     25  C   LIG    1        2.733   1.368  11.592  0.00  0.00    +0.300 C 
ATOM     26  C   LIG    1        4.085   3.370  12.016  0.00  0.00    +0.550 C 
ATOM     27  O   LIG    1        4.383   2.913  13.099  0.00  0.00    -0.540 OA
ATOM     28  C   LIG    1        3.013   0.365  10.467  0.00  0.00    +0.170 C 
BRANCH  26  29
ATOM     29  C   LIG    1        4.624   4.711  11.589  0.00  0.00    -0.080 C 
ATOM     30  C   LIG    1        6.123   4.810  11.301  0.00  0.00    +0.060 C 
ATOM     31  C   LIG    1        5.543   5.447  12.566  0.00  0.00    +0.080 C 
ENDBRANCH  26  29
ENDBRANCH  20  21
ENDBRANCH   3  20
TORSDOF 6
