REMARK  Name = ZINCpe00000gMPnz.0
REMARK                            x       y       z     vdW  Elec       q    Type
REMARK                         _______ _______ _______ _____ _____    ______ ____
ROOT
ATOM      1  N   LIG    1       -0.018   9.238  -2.570  0.00  0.00    -0.740 N 
ATOM      2  H   LIG    1       -0.906   8.863  -2.678  0.00  0.00    +0.390 HD
ATOM      3  C   LIG    1        0.783   8.800  -1.579  0.00  0.00    +0.710 C 
ATOM      4  N   LIG    1        0.392   7.771  -0.802  0.00  0.00    -0.630 N 
ATOM      5  C   LIG    1        1.294   7.206   0.213  0.00  0.00    +0.310 C 
ATOM      6  C   LIG    1        1.354   5.687   0.020  0.00  0.00    +0.210 C 
ATOM      7  N   LIG    1       -0.009   5.141   0.028  0.00  0.00    -0.470 N 
ATOM      8  C   LIG    1       -0.799   5.664  -1.095  0.00  0.00    +0.200 C 
ATOM      9  C   LIG    1       -0.948   7.182  -0.947  0.00  0.00    +0.290 C 
ATOM     10  O   LIG    1        1.858   9.334  -1.386  0.00  0.00    -0.580 OA
ENDROOT
BRANCH   7  11
ATOM     11  C   LIG    1        0.011   3.751   0.018  0.00  0.00    +0.260 A 
ATOM     12  C   LIG    1       -1.184   3.035   0.024  0.00  0.00    +0.210 A 
ATOM     13  N   LIG    1       -1.161   1.716   0.010  0.00  0.00    -0.420 NA
ATOM     14  C   LIG    1       -0.005   1.074   0.001  0.00  0.00    +0.190 A 
ATOM     15  C   LIG    1        1.183   1.780  -0.005  0.00  0.00    +0.250 A 
ATOM     16  N   LIG    1        1.168   3.102   0.004  0.00  0.00    -0.480 NA
ENDBRANCH   7  11
BRANCH   1  17
ATOM     17  C   LIG    1        0.452  10.282  -3.485  0.00  0.00    +0.360 C 
BRANCH  17  22
ATOM     18  C   LIG    1       -3.647  11.412  -7.368  0.00  0.00    +0.150 C 
ATOM     19  C   LIG    1       -2.576  11.120  -6.348  0.00  0.00    +0.180 A 
ATOM     20  C   LIG    1       -2.486  11.886  -5.236  0.00  0.00    -0.090 A 
ATOM     21  C   LIG    1       -1.495  11.618  -4.281  0.00  0.00    +0.050 A 
ATOM     22  C   LIG    1       -0.625  10.589  -4.493  0.00  0.00    -0.260 A 
ATOM     23  C   LIG    1       -0.748   9.814  -5.659  0.00  0.00    +0.530 A 
ATOM     24  O   LIG    1        0.021   8.888  -5.860  0.00  0.00    -0.540 OA
ATOM     25  C   LIG    1       -1.389  12.460  -3.036  0.00  0.00    +0.120 C 
ATOM     26  N   LIG    1       -1.713  10.094  -6.556  0.00  0.00    -0.610 N 
ATOM     27  H   LIG    1       -1.792   9.555  -7.359  0.00  0.00    +0.410 HD
ENDBRANCH  17  22
ENDBRANCH   1  17
TORSDOF 3
