REMARK  Name = ZINCqH0000051tkM.0
REMARK                            x       y       z     vdW  Elec       q    Type
REMARK                         _______ _______ _______ _____ _____    ______ ____
ROOT
ATOM      1  C   LIG    1        2.406   0.024  -0.015  0.00  0.00    +0.140 A 
ATOM      2  C   LIG    1        1.206  -0.675  -0.010  0.00  0.00    +0.000 A 
ATOM      3  C   LIG    1        0.004   0.007   0.012  0.00  0.00    +0.040 A 
ATOM      4  C   LIG    1       -0.010   1.388   0.029  0.00  0.00    +0.050 A 
ATOM      5  C   LIG    1        1.190   2.098   0.024  0.00  0.00    +0.000 A 
ATOM      6  C   LIG    1        2.400   1.411   0.002  0.00  0.00    +0.070 A 
ENDROOT
BRANCH   5   7
ATOM      7  C   LIG    1        1.176   3.582   0.042  0.00  0.00    +0.270 A 
ATOM      8  N   LIG    1        2.237   4.358   0.039  0.00  0.00    -0.290 NA
ATOM      9  N   LIG    1        1.769   5.682   0.059  0.00  0.00    -0.480 N 
ATOM     10  H   LIG    1        2.309   6.488   0.062  0.00  0.00    +0.440 HD
ATOM     11  C   LIG    1        0.426   5.612   0.073  0.00  0.00    +0.320 A 
ATOM     12  N   LIG    1        0.080   4.352   0.057  0.00  0.00    -0.520 NA
BRANCH  11  13
ATOM     13  C   LIG    1       -0.518   6.787   0.096  0.00  0.00    +0.050 C 
ATOM     14  C   LIG    1        0.058   8.149   0.487  0.00  0.00    +0.030 C 
ATOM     15  C   LIG    1       -0.854   7.396   1.458  0.00  0.00    +0.060 C 
ENDBRANCH  11  13
ENDBRANCH   5   7
BRANCH   1  18
ATOM     16  O   LIG    1        4.592   0.929  -1.235  0.00  0.00    -0.510 OA
ATOM     17  C   LIG    1        4.672  -0.167  -0.715  0.00  0.00    +0.560 C 
ATOM     18  N   LIG    1        3.620  -0.670  -0.038  0.00  0.00    -0.670 N 
ATOM     19  H   LIG    1        3.706  -1.513   0.434  0.00  0.00    +0.410 HD
BRANCH  17  20
ATOM     20  C   LIG    1        5.921  -0.947  -0.825  0.00  0.00    -0.170 A 
ATOM     21  C   LIG    1        6.013  -2.210  -0.225  0.00  0.00    +0.110 A 
ATOM     22  C   LIG    1        7.160  -2.942  -0.319  0.00  0.00    +0.020 A 
ATOM     23  C   LIG    1        8.257  -2.440  -1.014  0.00  0.00    +0.110 A 
ATOM     24  O   LIG    1        9.489  -2.924  -1.267  0.00  0.00    -0.090 OA
ATOM     25  N   LIG    1       10.214  -1.984  -2.033  0.00  0.00    -0.280 NA
ATOM     26  C   LIG    1        9.477  -0.941  -2.261  0.00  0.00    +0.340 A 
ATOM     27  C   LIG    1        8.178  -1.173  -1.621  0.00  0.00    -0.210 A 
ATOM     28  C   LIG    1        7.004  -0.430  -1.528  0.00  0.00    +0.180 A 
ENDBRANCH  17  20
ENDBRANCH   1  18
TORSDOF 4
