REMARK  Name = ZINCrH00000tj1dB.0
REMARK                            x       y       z     vdW  Elec       q    Type
REMARK                         _______ _______ _______ _____ _____    ______ ____
ROOT
ATOM      1  C   LIG    1       -0.925  -2.241   0.636  0.00  0.00    +0.320 C 
ENDROOT
BRANCH   1   8
ATOM      2  C   LIG    1       -1.000  -2.871   3.666  0.00  0.00    +0.130 C 
ATOM      3  C   LIG    1       -2.136  -3.042   2.691  0.00  0.00    +0.020 A 
ATOM      4  C   LIG    1       -3.368  -3.494   2.990  0.00  0.00    -0.030 A 
ATOM      5  C   LIG    1       -4.119  -3.503   1.788  0.00  0.00    -0.110 A 
ATOM      6  C   LIG    1       -3.303  -3.045   0.802  0.00  0.00    +0.070 A 
ATOM      7  C   LIG    1       -3.672  -2.882  -0.649  0.00  0.00    +0.140 C 
ATOM      8  N   LIG    1       -2.090  -2.760   1.357  0.00  0.00    -0.430 N 
BRANCH   5   9
ATOM      9  C   LIG    1       -5.533  -3.932   1.634  0.00  0.00    +0.160 A 
ATOM     10  C   LIG    1       -6.280  -4.376   2.663  0.00  0.00    -0.090 A 
ATOM     11  S   LIG    1       -7.879  -4.773   2.040  0.00  0.00    +0.110 S 
ATOM     12  C   LIG    1       -7.396  -4.309   0.468  0.00  0.00    +0.050 A 
ATOM     13  C   LIG    1       -8.279  -4.356  -0.752  0.00  0.00    +0.180 C 
ATOM     14  N   LIG    1       -6.171  -3.907   0.473  0.00  0.00    -0.470 NA
ENDBRANCH   5   9
ENDBRANCH   1   8
BRANCH   1  15
ATOM     15  C   LIG    1       -0.957  -0.734   0.649  0.00  0.00    +0.490 C 
ATOM     16  N   LIG    1        0.022  -0.034   0.042  0.00  0.00    -0.720 N 
ATOM     17  H   LIG    1        0.747  -0.500  -0.403  0.00  0.00    +0.400 HD
ATOM     18  O   LIG    1       -1.864  -0.151   1.205  0.00  0.00    -0.510 OA
BRANCH  16  19
ATOM     19  C   LIG    1       -0.009   1.430   0.054  0.00  0.00    +0.320 C 
ATOM     20  C   LIG    1       -1.044   1.927  -0.957  0.00  0.00    +0.030 C 
BRANCH  19  21
ATOM     21  C   LIG    1        1.351   1.965  -0.316  0.00  0.00    -0.260 A 
ATOM     22  C   LIG    1        2.034   2.928   0.345  0.00  0.00    +0.110 A 
ATOM     23  N   LIG    1        3.205   3.117  -0.299  0.00  0.00    -0.370 N 
ATOM     24  N   LIG    1        3.238   2.247  -1.396  0.00  0.00    -0.290 NA
ATOM     25  C   LIG    1        4.253   4.068   0.080  0.00  0.00    +0.360 C 
ATOM     26  C   LIG    1        1.571   3.657   1.580  0.00  0.00    +0.140 C 
ATOM     27  C   LIG    1        2.127   1.557  -1.405  0.00  0.00    +0.090 A 
ATOM     28  C   LIG    1        1.748   0.504  -2.415  0.00  0.00    +0.150 C 
ENDBRANCH  19  21
ENDBRANCH  16  19
ENDBRANCH   1  15
TORSDOF 5
