REMARK  Name = ZINCrH000004mD5j.0
REMARK                            x       y       z     vdW  Elec       q    Type
REMARK                         _______ _______ _______ _____ _____    ______ ____
ROOT
ATOM      1  C   LIG    1        1.282   1.978  -0.028  0.00  0.00    +0.170 C 
ATOM      2  C   LIG    1        1.066   2.711   1.297  0.00  0.00    +0.030 C 
ENDROOT
BRANCH   1   3
ATOM      3  C   LIG    1        0.034   1.211  -0.387  0.00  0.00    +0.520 C 
ATOM      4  N   LIG    1       -1.106   1.873  -0.667  0.00  0.00    -0.730 N 
ATOM      5  H   LIG    1       -1.125   2.842  -0.634  0.00  0.00    +0.400 HD
ATOM      6  O   LIG    1        0.058  -0.001  -0.428  0.00  0.00    -0.510 OA
BRANCH   4   7
ATOM      7  C   LIG    1       -2.317   1.128  -1.021  0.00  0.00    +0.190 C 
ATOM      8  C   LIG    1       -2.701   0.201   0.133  0.00  0.00    +0.030 C 
ATOM      9  C   LIG    1       -3.966  -0.577  -0.237  0.00  0.00    -0.010 C 
ATOM     10  C   LIG    1       -3.703  -1.409  -1.493  0.00  0.00    +0.020 C 
ATOM     11  C   LIG    1       -3.319  -0.482  -2.648  0.00  0.00    -0.010 C 
ATOM     12  C   LIG    1       -4.461   0.500  -2.916  0.00  0.00    +0.010 C 
ATOM     13  C   LIG    1       -4.724   1.332  -1.659  0.00  0.00    -0.010 C 
ATOM     14  C   LIG    1       -5.108   0.405  -0.505  0.00  0.00    +0.010 C 
ATOM     15  C   LIG    1       -2.054   0.296  -2.278  0.00  0.00    +0.030 C 
ATOM     16  C   LIG    1       -3.459   2.110  -1.289  0.00  0.00    +0.030 C 
ENDBRANCH   4   7
ENDBRANCH   1   3
BRANCH   1  17
ATOM     17  N   LIG    1        2.408   1.044   0.105  0.00  0.00    -0.510 NA
ATOM     18  C   LIG    1        3.690   1.762   0.100  0.00  0.00    +0.200 C 
BRANCH  17  19
ATOM     19  C   LIG    1        2.270   0.222   1.315  0.00  0.00    +0.240 C 
BRANCH  19  23
ATOM     20  C   LIG    1        5.187  -2.902   1.257  0.00  0.00    +0.100 A 
ATOM     21  C   LIG    1        5.488  -1.681   1.839  0.00  0.00    -0.040 A 
ATOM     22  C   LIG    1        4.543  -0.672   1.856  0.00  0.00    +0.040 A 
ATOM     23  C   LIG    1        3.298  -0.879   1.294  0.00  0.00    -0.080 A 
ATOM     24  C   LIG    1        2.991  -2.098   0.716  0.00  0.00    +0.060 A 
ATOM     25  C   LIG    1        3.935  -3.109   0.691  0.00  0.00    +0.070 A 
ATOM     26  F   LIG    1        3.638  -4.298   0.123  0.00  0.00    -0.130 F 
BRANCH  20  28
ATOM     27  C   LIG    1        7.380  -3.612   1.840  0.00  0.00    +0.250 C 
ATOM     28  O   LIG    1        6.115  -3.895   1.240  0.00  0.00    -0.310 OA
ENDBRANCH  20  28
ENDBRANCH  19  23
ENDBRANCH  17  19
ENDBRANCH   1  17
TORSDOF 6
