REMARK  Name = ZINCrH000004tjBG.0
REMARK                            x       y       z     vdW  Elec       q    Type
REMARK                         _______ _______ _______ _____ _____    ______ ____
ROOT
ATOM      1  C   LIG    1        2.380   4.104   0.094  0.00  0.00    +0.140 A 
ATOM      2  C   LIG    1        3.561   3.370   0.126  0.00  0.00    -0.070 A 
ATOM      3  C   LIG    1        4.773   4.017   0.222  0.00  0.00    +0.090 A 
ATOM      4  C   LIG    1        4.814   5.411   0.299  0.00  0.00    -0.160 A 
ATOM      5  C   LIG    1        3.625   6.145   0.273  0.00  0.00    +0.130 A 
ATOM      6  C   LIG    1        2.417   5.491   0.171  0.00  0.00    -0.010 A 
ENDROOT
BRANCH   4   7
ATOM      7  C   LIG    1        6.111   6.108   0.408  0.00  0.00    +0.580 C 
ATOM      8  N   LIG    1        7.261   5.415   0.291  0.00  0.00    -0.620 N 
ATOM      9  C   LIG    1        7.370   3.953   0.162  0.00  0.00    +0.250 C 
ATOM     10  C   LIG    1        8.875   3.609   0.081  0.00  0.00    +0.060 C 
ATOM     11  C   LIG    1        9.540   4.848   0.698  0.00  0.00    -0.110 C 
ATOM     12  C   LIG    1       10.970   5.041   0.190  0.00  0.00    +0.030 C 
ATOM     13  C   LIG    1       11.820   5.014   1.484  0.00  0.00    +0.190 C 
ATOM     14  O   LIG    1       10.905   5.394   2.537  0.00  0.00    -0.370 OA
ATOM     15  C   LIG    1        9.654   4.737   2.220  0.00  0.00    +0.220 C 
ATOM     16  C   LIG    1        8.618   5.997   0.266  0.00  0.00    +0.290 C 
ATOM     17  O   LIG    1        6.142   7.308   0.603  0.00  0.00    -0.530 OA
ENDBRANCH   4   7
BRANCH   1  18
ATOM     18  O   LIG    1        1.188   3.463  -0.006  0.00  0.00    -0.250 OA
BRANCH  18  25
ATOM     19  C   LIG    1        1.278   1.434   1.257  0.00  0.00    -0.080 A 
ATOM     20  C   LIG    1        1.277   0.035   1.279  0.00  0.00    +0.160 A 
ATOM     21  C   LIG    1        1.189  -0.672   0.095  0.00  0.00    +0.010 A 
ATOM     22  C   LIG    1        1.102  -0.002  -1.112  0.00  0.00    +0.120 A 
ATOM     23  C   LIG    1        1.103   1.380  -1.148  0.00  0.00    +0.020 A 
ATOM     24  F   LIG    1        1.361  -0.623   2.456  0.00  0.00    -0.120 F 
ATOM     25  C   LIG    1        1.189   2.107   0.029  0.00  0.00    +0.160 A 
BRANCH  19  27
ATOM     26  N   LIG    1        1.429   2.762   3.450  0.00  0.00    -0.380 NA
ATOM     27  C   LIG    1        1.362   2.174   2.480  0.00  0.00    +0.240 C 
ENDBRANCH  19  27
ENDBRANCH  18  25
ENDBRANCH   1  18
TORSDOF 4
