REMARK  Name = ZINCAx0000000jCt.0
REMARK                            x       y       z     vdW  Elec       q    Type
REMARK                         _______ _______ _______ _____ _____    ______ ____
ROOT
ATOM      1  O   LIG    1        1.447   1.290  -4.345  0.00  0.00    -0.350 OA
ENDROOT
BRANCH   1   2
ATOM      2  C   LIG    1        0.676   0.406  -3.692  0.00  0.00    +0.470 C 
ATOM      3  O   LIG    1       -0.117  -0.271  -4.303  0.00  0.00    -0.490 OA
BRANCH   2   4
ATOM      4  C   LIG    1        0.800   0.257  -2.198  0.00  0.00    +0.040 C 
ATOM      5  C   LIG    1       -0.183  -0.809  -1.708  0.00  0.00    +0.050 C 
ATOM      6  C   LIG    1       -0.031  -0.982  -0.194  0.00  0.00    +0.290 C 
ATOM      7  N   LIG    1       -0.191   0.328   0.451  0.00  0.00    -0.610 N 
ATOM      8  C   LIG    1        0.643   1.448  -0.008  0.00  0.00    +0.270 C 
ATOM      9  C   LIG    1       -1.090   0.501   1.440  0.00  0.00    +0.570 C 
ATOM     10  O   LIG    1       -1.832  -0.409   1.753  0.00  0.00    -0.520 OA
ATOM     11  C   LIG    1        0.482   1.594  -1.524  0.00  0.00    +0.050 C 
BRANCH   9  12
ATOM     12  C   LIG    1       -1.175   1.797   2.142  0.00  0.00    -0.180 A 
ATOM     13  C   LIG    1       -0.014   2.527   2.408  0.00  0.00    +0.120 A 
ATOM     14  C   LIG    1       -0.099   3.738   3.059  0.00  0.00    -0.020 A 
ATOM     15  C   LIG    1       -1.332   4.230   3.460  0.00  0.00    +0.160 A 
ATOM     16  C   LIG    1       -2.488   3.510   3.205  0.00  0.00    -0.040 A 
ATOM     17  F   LIG    1       -1.407   5.416   4.103  0.00  0.00    -0.120 F 
ATOM     18  C   LIG    1       -2.417   2.296   2.548  0.00  0.00    +0.190 A 
ATOM     19  F   LIG    1       -3.544   1.594   2.299  0.00  0.00    -0.110 F 
ENDBRANCH   9  12
ENDBRANCH   2   4
ENDBRANCH   1   2
BRANCH   1  20
ATOM     20  C   LIG    1        1.274   1.380  -5.784  0.00  0.00    +0.370 C 
BRANCH  20  32
ATOM     21  C   LIG    1        7.052  -2.205  -6.340  0.00  0.00    +0.120 C 
ATOM     22  C   LIG    1        6.120  -1.024  -6.423  0.00  0.00    -0.090 A 
ATOM     23  C   LIG    1        4.800  -1.159  -6.023  0.00  0.00    +0.090 A 
ATOM     24  C   LIG    1        3.932  -0.088  -6.092  0.00  0.00    +0.010 A 
ATOM     25  C   LIG    1        4.381   1.135  -6.566  0.00  0.00    +0.160 A 
ATOM     26  C   LIG    1        5.718   1.274  -6.971  0.00  0.00    -0.150 A 
ATOM     27  C   LIG    1        6.174   2.584  -7.471  0.00  0.00    +0.570 A 
ATOM     28  N   LIG    1        5.291   3.602  -7.529  0.00  0.00    -0.510 N 
ATOM     29  C   LIG    1        3.982   3.433  -7.117  0.00  0.00    +0.430 A 
ATOM     30  N   LIG    1        2.964   4.264  -7.069  0.00  0.00    -0.280 NA
ATOM     31  N   LIG    1        1.927   3.659  -6.610  0.00  0.00    -0.220 NA
ATOM     32  C   LIG    1        2.216   2.417  -6.339  0.00  0.00    +0.180 A 
ATOM     33  C   LIG    1        5.729   4.910  -8.021  0.00  0.00    +0.360 C 
ATOM     34  O   LIG    1        7.325   2.742  -7.831  0.00  0.00    -0.490 OA
ATOM     35  N   LIG    1        3.533   2.233  -6.648  0.00  0.00    -0.430 N 
ATOM     36  C   LIG    1        6.584   0.185  -6.897  0.00  0.00    +0.130 A 
ENDBRANCH  20  32
ENDBRANCH   1  20
TORSDOF 5
