REMARK  Name = ZINCtV00000L6kjR.0
REMARK                            x       y       z     vdW  Elec       q    Type
REMARK                         _______ _______ _______ _____ _____    ______ ____
ROOT
ATOM      1  C   LIG    1        5.194   1.357  -2.725  0.00  0.00    +0.280 A 
ATOM      2  N   LIG    1        4.240   2.074  -2.207  0.00  0.00    -0.460 NA
ATOM      3  C   LIG    1        3.820   2.997  -3.110  0.00  0.00    +0.040 A 
ATOM      4  C   LIG    1        2.843   3.995  -3.084  0.00  0.00    +0.070 A 
ATOM      5  C   LIG    1        2.649   4.787  -4.181  0.00  0.00    +0.000 A 
ATOM      6  C   LIG    1        3.414   4.611  -5.324  0.00  0.00    +0.040 A 
ATOM      7  C   LIG    1        4.385   3.632  -5.373  0.00  0.00    +0.000 A 
ATOM      8  C   LIG    1        4.596   2.818  -4.268  0.00  0.00    +0.060 A 
ATOM      9  N   LIG    1        5.458   1.776  -3.993  0.00  0.00    -0.470 N 
ENDROOT
BRANCH   1  10
ATOM     10  C   LIG    1        5.905   0.229  -2.023  0.00  0.00    +0.330 C 
BRANCH  10  11
ATOM     11  O   LIG    1        5.121  -0.962  -2.119  0.00  0.00    -0.300 OA
BRANCH  11  17
ATOM     12  C   LIG    1        8.590  -3.085   0.580  0.00  0.00    +0.090 C 
ATOM     13  C   LIG    1        7.318  -3.158  -0.226  0.00  0.00    -0.050 A 
ATOM     14  C   LIG    1        6.670  -4.369  -0.384  0.00  0.00    -0.030 A 
ATOM     15  C   LIG    1        5.503  -4.440  -1.122  0.00  0.00    +0.060 A 
ATOM     16  C   LIG    1        4.982  -3.301  -1.704  0.00  0.00    -0.110 A 
ATOM     17  C   LIG    1        5.631  -2.084  -1.547  0.00  0.00    +0.130 A 
ATOM     18  C   LIG    1        6.804  -2.017  -0.810  0.00  0.00    -0.070 A 
BRANCH  16  19
ATOM     19  C   LIG    1        3.711  -3.379  -2.510  0.00  0.00    +0.030 C 
ATOM     20  C   LIG    1        2.596  -3.972  -1.647  0.00  0.00    +0.040 C 
ATOM     21  C   LIG    1        3.937  -4.269  -3.734  0.00  0.00    +0.030 C 
ENDBRANCH  16  19
ENDBRANCH  11  17
ENDBRANCH  10  11
ENDBRANCH   1  10
BRANCH   9  22
ATOM     22  C   LIG    1        6.466   1.220  -4.899  0.00  0.00    +0.370 C 
BRANCH  22  23
ATOM     23  C   LIG    1        7.706   2.076  -4.856  0.00  0.00    -0.150 A 
ATOM     24  C   LIG    1        7.742   3.274  -5.543  0.00  0.00    +0.060 A 
ATOM     25  C   LIG    1        8.880   4.059  -5.505  0.00  0.00    +0.010 A 
ATOM     26  C   LIG    1        9.981   3.647  -4.780  0.00  0.00    +0.060 A 
ATOM     27  C   LIG    1        9.947   2.448  -4.092  0.00  0.00    -0.010 A 
ATOM     28  C   LIG    1        8.809   1.661  -4.130  0.00  0.00    +0.110 A 
ATOM     29  F   LIG    1        8.775   0.489  -3.458  0.00  0.00    -0.130 F 
ENDBRANCH  22  23
ENDBRANCH   9  22
TORSDOF 6
