REMARK  Name = ZINCrD00000hQ73P.0
REMARK                            x       y       z     vdW  Elec       q    Type
REMARK                         _______ _______ _______ _____ _____    ______ ____
ROOT
ATOM      1  C   LIG    1       -2.544   5.213   0.038  0.00  0.00    -0.240 C 
ATOM      2  C   LIG    1       -3.177   6.405  -0.043  0.00  0.00    +0.110 C 
ATOM      3  C   LIG    1       -4.635   6.178  -0.110  0.00  0.00    +0.530 C 
ATOM      4  N   LIG    1       -4.896   4.859  -0.071  0.00  0.00    -0.590 N 
ATOM      5  O   LIG    1       -5.474   7.053  -0.189  0.00  0.00    -0.500 OA
ATOM      6  C   LIG    1       -3.615   4.148   0.018  0.00  0.00    +0.350 C 
ENDROOT
BRANCH   6   7
ATOM      7  C   LIG    1       -3.564   3.337   1.287  0.00  0.00    -0.160 A 
ATOM      8  C   LIG    1       -2.944   2.097   1.303  0.00  0.00    +0.080 A 
ATOM      9  C   LIG    1       -2.920   1.387   2.494  0.00  0.00    -0.030 A 
ATOM     10  C   LIG    1       -3.511   1.934   3.617  0.00  0.00    +0.270 A 
ATOM     11  N   LIG    1       -4.091   3.117   3.565  0.00  0.00    -0.480 NA
ATOM     12  C   LIG    1       -4.129   3.823   2.452  0.00  0.00    +0.280 A 
ENDBRANCH   6   7
BRANCH   1  14
ATOM     13  O   LIG    1       -0.481   5.357   1.111  0.00  0.00    -0.420 OA
ATOM     14  C   LIG    1       -1.095   4.996   0.122  0.00  0.00    +0.500 C 
BRANCH  14  15
ATOM     15  C   LIG    1       -0.386   4.344  -0.982  0.00  0.00    -0.290 A 
ATOM     16  C   LIG    1        0.969   4.166  -1.062  0.00  0.00    +0.110 A 
ATOM     17  C   LIG    1        1.365   3.523  -2.209  0.00  0.00    +0.000 A 
ATOM     18  C   LIG    1        0.373   3.184  -3.042  0.00  0.00    -0.050 A 
ATOM     19  S   LIG    1       -1.139   3.670  -2.421  0.00  0.00    +0.220 S 
ENDBRANCH  14  15
ENDBRANCH   1  14
BRANCH   2  20
ATOM     20  O   LIG    1       -2.571   7.616  -0.059  0.00  0.00    -0.430 OA
ATOM     21  H   LIG    1       -3.183   8.362  -0.121  0.00  0.00    +0.420 HD
ENDBRANCH   2  20
BRANCH   4  22
ATOM     22  C   LIG    1       -6.224   4.242  -0.117  0.00  0.00    +0.390 C 
BRANCH  22  23
ATOM     23  C   LIG    1       -6.605   3.974  -1.550  0.00  0.00    -0.170 A 
ATOM     24  C   LIG    1       -6.281   2.766  -2.148  0.00  0.00    +0.070 A 
ATOM     25  C   LIG    1       -6.652   2.563  -3.469  0.00  0.00    -0.030 A 
ATOM     26  C   LIG    1       -7.328   3.565  -4.140  0.00  0.00    +0.270 A 
ATOM     27  N   LIG    1       -7.620   4.702  -3.538  0.00  0.00    -0.480 NA
ATOM     28  C   LIG    1       -7.287   4.927  -2.283  0.00  0.00    +0.290 A 
ENDBRANCH  22  23
ENDBRANCH   4  22
TORSDOF 6
