REMARK  Name = ZINCqH0000035P6h.0
REMARK                            x       y       z     vdW  Elec       q    Type
REMARK                         _______ _______ _______ _____ _____    ______ ____
ROOT
ATOM      1  C   LIG    1       -1.248  -7.881  -1.150  0.00  0.00    +0.140 A 
ATOM      2  N   LIG    1       -2.191  -8.704  -0.742  0.00  0.00    -0.280 NA
ATOM      3  N   LIG    1       -2.029  -8.903   0.635  0.00  0.00    -0.470 N 
ATOM      4  H   LIG    1       -2.584  -9.464   1.198  0.00  0.00    +0.440 HD
ATOM      5  C   LIG    1       -0.962  -8.182   1.041  0.00  0.00    +0.270 A 
ATOM      6  C   LIG    1       -0.461  -7.535  -0.034  0.00  0.00    -0.250 A 
ENDROOT
BRANCH   1  10
ATOM      7  C   LIG    1       -0.681  -6.503  -5.135  0.00  0.00    +0.140 A 
ATOM      8  C   LIG    1       -1.135  -7.795  -4.906  0.00  0.00    -0.020 A 
ATOM      9  C   LIG    1       -1.320  -8.244  -3.616  0.00  0.00    +0.080 A 
ATOM     10  C   LIG    1       -1.050  -7.400  -2.540  0.00  0.00    -0.060 A 
ATOM     11  C   LIG    1       -0.600  -6.102  -2.772  0.00  0.00    +0.080 A 
ATOM     12  C   LIG    1       -0.412  -5.660  -4.065  0.00  0.00    -0.080 A 
BRANCH   7  14
ATOM     13  C   LIG    1       -0.031  -4.723  -6.570  0.00  0.00    +0.250 C 
ATOM     14  O   LIG    1       -0.500  -6.063  -6.407  0.00  0.00    -0.320 OA
ENDBRANCH   7  14
ENDBRANCH   1  10
BRANCH   6  15
ATOM     15  C   LIG    1        0.731  -6.614  -0.040  0.00  0.00    +0.340 C 
BRANCH  15  16
ATOM     16  N   LIG    1        0.272  -5.222  -0.028  0.00  0.00    -0.740 N 
ATOM     17  H   LIG    1       -0.677  -5.025  -0.019  0.00  0.00    +0.400 HD
BRANCH  16  18
ATOM     18  C   LIG    1        1.203  -4.180  -0.031  0.00  0.00    +0.220 A 
ATOM     19  C   LIG    1        2.563  -4.463  -0.045  0.00  0.00    -0.040 A 
ATOM     20  C   LIG    1        3.488  -3.436  -0.049  0.00  0.00    +0.060 A 
ATOM     21  C   LIG    1        3.066  -2.122  -0.043  0.00  0.00    -0.010 A 
ATOM     22  C   LIG    1        1.701  -1.827  -0.024  0.00  0.00    +0.020 A 
ATOM     23  C   LIG    1        0.769  -2.863  -0.020  0.00  0.00    +0.000 A 
BRANCH  22  24
ATOM     24  C   LIG    1        1.247  -0.420  -0.012  0.00  0.00    +0.210 A 
ATOM     25  N   LIG    1        0.002  -0.004   0.002  0.00  0.00    -0.280 NA
ATOM     26  N   LIG    1       -0.015   1.282   0.009  0.00  0.00    -0.290 NA
ATOM     27  C   LIG    1        1.207   1.735  -0.000  0.00  0.00    +0.410 A 
ATOM     28  O   LIG    1        2.034   0.675  -0.014  0.00  0.00    -0.220 OA
ENDBRANCH  22  24
ENDBRANCH  16  18
ENDBRANCH  15  16
ENDBRANCH   6  15
TORSDOF 6
