REMARK  Name = ZINCpe000000Y1Rn.0
REMARK                            x       y       z     vdW  Elec       q    Type
REMARK                         _______ _______ _______ _____ _____    ______ ____
ROOT
ATOM      1  C   LIG    1       -5.568   3.329  -2.064  0.00  0.00    +0.520 C 
ATOM      2  N   LIG    1       -5.305   2.225  -1.337  0.00  0.00    -0.610 N 
ATOM      3  C   LIG    1       -5.510   0.897  -1.920  0.00  0.00    +0.280 C 
ATOM      4  O   LIG    1       -5.398   4.428  -1.581  0.00  0.00    -0.540 OA
ENDROOT
BRANCH   1   5
ATOM      5  C   LIG    1       -6.074   3.196  -3.478  0.00  0.00    +0.060 C 
BRANCH   5   6
ATOM      6  C   LIG    1       -6.291   4.589  -4.074  0.00  0.00    +0.150 C 
BRANCH   6   9
ATOM      7  C   LIG    1       -9.108   4.658  -4.621  0.00  0.00    +0.160 C 
ATOM      8  C   LIG    1       -8.121   4.489  -5.747  0.00  0.00    +0.210 A 
ATOM      9  C   LIG    1       -6.796   4.456  -5.488  0.00  0.00    -0.270 A 
ATOM     10  C   LIG    1       -5.888   4.290  -6.561  0.00  0.00    +0.550 A 
ATOM     11  N   LIG    1       -6.364   4.174  -7.818  0.00  0.00    -0.660 N 
ATOM     12  H   LIG    1       -5.748   4.060  -8.559  0.00  0.00    +0.430 HD
ATOM     13  C   LIG    1       -7.689   4.215  -8.048  0.00  0.00    +0.700 A 
ATOM     14  O   LIG    1       -8.104   4.110  -9.186  0.00  0.00    -0.540 OA
ATOM     15  O   LIG    1       -4.689   4.253  -6.352  0.00  0.00    -0.510 OA
ATOM     16  N   LIG    1       -8.562   4.373  -7.037  0.00  0.00    -0.630 N 
ATOM     17  H   LIG    1       -9.514   4.400  -7.223  0.00  0.00    +0.440 HD
ENDBRANCH   6   9
ENDBRANCH   5   6
ENDBRANCH   1   5
BRANCH   2  18
ATOM     18  C   LIG    1       -4.814   2.354   0.038  0.00  0.00    +0.420 C 
BRANCH  18  19
ATOM     19  C   LIG    1       -3.308   2.402   0.030  0.00  0.00    +0.260 A 
ATOM     20  N   LIG    1       -2.529   1.359   0.021  0.00  0.00    -0.480 NA
ATOM     21  C   LIG    1       -1.231   1.759   0.017  0.00  0.00    +0.040 A 
ATOM     22  C   LIG    1       -0.013   1.076   0.008  0.00  0.00    +0.070 A 
ATOM     23  C   LIG    1        1.161   1.776   0.001  0.00  0.00    +0.000 A 
ATOM     24  C   LIG    1        1.157   3.163   0.007  0.00  0.00    +0.030 A 
ATOM     25  C   LIG    1       -0.034   3.859   0.022  0.00  0.00    +0.010 A 
ATOM     26  C   LIG    1       -1.236   3.164   0.030  0.00  0.00    +0.050 A 
ATOM     27  N   LIG    1       -2.564   3.541   0.044  0.00  0.00    -0.590 N 
ATOM     28  H   LIG    1       -2.904   4.449   0.051  0.00  0.00    +0.430 HD
ENDBRANCH  18  19
ENDBRANCH   2  18
TORSDOF 5
