REMARK  Name = ZINCvU0000000Fiw.0
REMARK                            x       y       z     vdW  Elec       q    Type
REMARK                         _______ _______ _______ _____ _____    ______ ____
ROOT
ATOM      1  N   LIG    1        5.285  10.105  -0.543  0.00  0.00    -0.450 N 
ATOM      2  C   LIG    1        5.057   8.762  -0.439  0.00  0.00    +0.140 A 
ATOM      3  N   LIG    1        6.227   8.165  -0.462  0.00  0.00    -0.290 NA
ATOM      4  N   LIG    1        7.165   9.037  -0.567  0.00  0.00    -0.270 NA
ATOM      5  C   LIG    1        6.652  10.244  -0.618  0.00  0.00    +0.240 A 
ENDROOT
BRANCH   5   6
ATOM      6  C   LIG    1        7.400  11.514  -0.739  0.00  0.00    -0.030 A 
ATOM      7  C   LIG    1        8.717  11.509  -1.201  0.00  0.00    +0.070 A 
ATOM      8  C   LIG    1        9.408  12.698  -1.316  0.00  0.00    +0.020 A 
ATOM      9  C   LIG    1        8.802  13.891  -0.965  0.00  0.00    -0.050 A 
ATOM     10  C   LIG    1        7.498  13.901  -0.502  0.00  0.00    +0.020 A 
ATOM     11  C   LIG    1        6.794  12.721  -0.387  0.00  0.00    +0.010 A 
BRANCH   9  12
ATOM     12  C   LIG    1        9.565  15.185  -1.088  0.00  0.00    -0.030 C 
ATOM     13  C   LIG    1        8.834  16.117  -2.056  0.00  0.00    +0.040 C 
ATOM     14  C   LIG    1       10.971  14.899  -1.619  0.00  0.00    +0.030 C 
ATOM     15  C   LIG    1        9.664  15.851   0.285  0.00  0.00    +0.040 C 
ENDBRANCH   9  12
ENDBRANCH   5   6
BRANCH   1  16
ATOM     16  C   LIG    1        4.283  11.174  -0.568  0.00  0.00    +0.340 C 
BRANCH  16  18
ATOM     17  C   LIG    1        3.974  12.789   1.236  0.00  0.00    +0.070 C 
ATOM     18  C   LIG    1        3.905  11.541   0.843  0.00  0.00    -0.060 C 
ENDBRANCH  16  18
ENDBRANCH   1  16
BRANCH   2  19
ATOM     19  S   LIG    1        3.485   7.977  -0.306  0.00  0.00    +0.090 S 
BRANCH  19  20
ATOM     20  C   LIG    1        4.006   6.245  -0.221  0.00  0.00    +0.110 C 
BRANCH  20  21
ATOM     21  C   LIG    1        2.791   5.361  -0.100  0.00  0.00    +0.540 C 
ATOM     22  N   LIG    1        2.937   4.023  -0.021  0.00  0.00    -0.670 N 
ATOM     23  H   LIG    1        3.824   3.634   0.035  0.00  0.00    +0.420 HD
ATOM     24  O   LIG    1        1.683   5.853  -0.074  0.00  0.00    -0.500 OA
BRANCH  22  25
ATOM     25  C   LIG    1        1.808   3.196  -0.018  0.00  0.00    +0.140 A 
ATOM     26  C   LIG    1        1.816   2.013   0.711  0.00  0.00    +0.030 A 
ATOM     27  C   LIG    1        0.705   1.191   0.717  0.00  0.00    +0.040 A 
ATOM     28  C   LIG    1       -0.423   1.542   0.003  0.00  0.00    +0.060 A 
ATOM     29  C   LIG    1       -0.439   2.727  -0.737  0.00  0.00    -0.010 A 
ATOM     30  C   LIG    1        0.683   3.556  -0.743  0.00  0.00    +0.070 A 
BRANCH  29  31
ATOM     31  C   LIG    1       -1.606   3.092  -1.483  0.00  0.00    +0.250 C 
ATOM     32  N   LIG    1       -2.531   3.381  -2.075  0.00  0.00    -0.410 NA
ENDBRANCH  29  31
ENDBRANCH  22  25
ENDBRANCH  20  21
ENDBRANCH  19  20
ENDBRANCH   2  19
TORSDOF 9
