REMARK  Name = ZINCrD00000hQ69z.0
REMARK                            x       y       z     vdW  Elec       q    Type
REMARK                         _______ _______ _______ _____ _____    ______ ____
ROOT
ATOM      1  C   LIG    1        8.906   5.061   2.236  0.00  0.00    -0.040 A 
ATOM      2  C   LIG    1        9.668   5.408   3.338  0.00  0.00    +0.040 A 
ATOM      3  C   LIG    1       10.845   5.952   2.817  0.00  0.00    +0.050 A 
ATOM      4  N   LIG    1       10.756   5.924   1.511  0.00  0.00    -0.250 NA
ATOM      5  N   LIG    1        9.639   5.411   1.138  0.00  0.00    -0.380 N 
ATOM      6  H   LIG    1        9.359   5.292   0.217  0.00  0.00    +0.440 HD
ENDROOT
BRANCH   3   7
ATOM      7  C   LIG    1       12.007   6.481   3.616  0.00  0.00    +0.030 C 
ATOM      8  C   LIG    1       11.638   7.840   4.216  0.00  0.00    +0.030 C 
ATOM      9  C   LIG    1       12.818   8.377   5.027  0.00  0.00    -0.020 C 
ATOM     10  C   LIG    1       13.152   7.396   6.153  0.00  0.00    +0.010 C 
ATOM     11  C   LIG    1       13.522   6.038   5.553  0.00  0.00    -0.010 C 
ATOM     12  C   LIG    1       14.738   6.199   4.639  0.00  0.00    +0.010 C 
ATOM     13  C   LIG    1       14.404   7.179   3.513  0.00  0.00    -0.020 C 
ATOM     14  C   LIG    1       14.034   8.537   4.113  0.00  0.00    +0.010 C 
ATOM     15  C   LIG    1       12.341   5.501   4.742  0.00  0.00    +0.030 C 
ATOM     16  C   LIG    1       13.224   6.642   2.702  0.00  0.00    +0.040 C 
ENDBRANCH   3   7
BRANCH   1  18
ATOM     17  O   LIG    1        7.029   4.182   3.303  0.00  0.00    -0.480 OA
ATOM     18  C   LIG    1        7.571   4.443   2.245  0.00  0.00    +0.610 C 
ATOM     19  N   LIG    1        6.948   4.167   1.082  0.00  0.00    -0.580 N 
ATOM     20  H   LIG    1        7.380   4.375   0.239  0.00  0.00    +0.380 HD
BRANCH  19  21
ATOM     21  N   LIG    1        5.676   3.579   1.091  0.00  0.00    -0.230 NA
ATOM     22  C   LIG    1        5.076   3.313  -0.029  0.00  0.00    +0.240 C 
BRANCH  22  23
ATOM     23  C   LIG    1        3.738   2.694  -0.019  0.00  0.00    -0.070 A 
ATOM     24  C   LIG    1        3.090   2.407  -1.224  0.00  0.00    +0.060 A 
ATOM     25  C   LIG    1        1.839   1.829  -1.210  0.00  0.00    -0.010 A 
ATOM     26  C   LIG    1        1.222   1.532  -0.001  0.00  0.00    +0.130 A 
ATOM     27  C   LIG    1        1.860   1.821   1.198  0.00  0.00    -0.020 A 
ATOM     28  C   LIG    1        3.114   2.393   1.194  0.00  0.00    +0.080 A 
BRANCH  26  29
ATOM     29  O   LIG    1       -0.011   0.963   0.007  0.00  0.00    -0.500 OA
ATOM     30  H   LIG    1        0.002  -0.004   0.002  0.00  0.00    +0.400 HD
ENDBRANCH  26  29
ENDBRANCH  22  23
ENDBRANCH  19  21
ENDBRANCH   1  18
TORSDOF 5
