REMARK  Name = ZINCvU00000007mX.0
REMARK                            x       y       z     vdW  Elec       q    Type
REMARK                         _______ _______ _______ _____ _____    ______ ____
ROOT
ATOM      1  N   LIG    1        4.938   1.554   0.067  0.00  0.00    -0.320 N 
ATOM      2  N   LIG    1        5.847   2.626   0.064  0.00  0.00    -0.270 NA
ATOM      3  C   LIG    1        5.145   3.723  -0.056  0.00  0.00    +0.230 A 
ATOM      4  N   LIG    1        3.854   3.416  -0.134  0.00  0.00    -0.510 NA
ATOM      5  C   LIG    1        3.701   2.107  -0.066  0.00  0.00    +0.310 A 
ENDROOT
BRANCH   5   6
ATOM      6  C   LIG    1        2.420   1.375  -0.117  0.00  0.00    +0.010 A 
ATOM      7  C   LIG    1        1.478   1.671  -1.117  0.00  0.00    -0.150 A 
ATOM      8  S   LIG    1        1.501   2.832  -2.441  0.00  0.00    +0.210 S 
ATOM      9  C   LIG    1       -0.050   2.328  -2.942  0.00  0.00    -0.020 A 
ATOM     10  N   LIG    1       -0.505   1.395  -2.194  0.00  0.00    -0.420 NA
ATOM     11  C   LIG    1        0.264   0.980  -1.169  0.00  0.00    +0.080 A 
ATOM     12  C   LIG    1        0.010  -0.013  -0.200  0.00  0.00    +0.120 A 
ATOM     13  C   LIG    1        0.938  -0.294   0.773  0.00  0.00    +0.040 A 
ATOM     14  C   LIG    1        2.141   0.390   0.825  0.00  0.00    +0.090 A 
BRANCH   9  15
ATOM     15  C   LIG    1       -0.789   2.903  -4.123  0.00  0.00    +0.500 C 
ATOM     16  F   LIG    1       -0.416   4.240  -4.300  0.00  0.00    -0.180 F 
ATOM     17  F   LIG    1       -2.167   2.829  -3.893  0.00  0.00    -0.180 F 
ENDBRANCH   9  15
ENDBRANCH   5   6
BRANCH   1  21
ATOM     18  C   LIG    1        5.848  -2.502   0.403  0.00  0.00    +0.150 A 
ATOM     19  C   LIG    1        4.899  -2.078  -0.516  0.00  0.00    +0.020 A 
ATOM     20  C   LIG    1        4.597  -0.735  -0.628  0.00  0.00    +0.060 A 
ATOM     21  C   LIG    1        5.244   0.191   0.180  0.00  0.00    +0.090 A 
ATOM     22  C   LIG    1        6.197  -0.233   1.096  0.00  0.00    +0.090 A 
ATOM     23  C   LIG    1        6.494  -1.577   1.210  0.00  0.00    -0.050 A 
BRANCH  18  24
ATOM     24  O   LIG    1        6.144  -3.824   0.513  0.00  0.00    -0.310 OA
BRANCH  24  26
ATOM     25  C   LIG    1        7.329  -5.706   1.458  0.00  0.00    +0.070 C 
ATOM     26  C   LIG    1        7.131  -4.189   1.480  0.00  0.00    +0.190 C 
ENDBRANCH  24  26
ENDBRANCH  18  24
ENDBRANCH   1  21
BRANCH   3  27
ATOM     27  C   LIG    1        5.712   5.119  -0.098  0.00  0.00    +0.270 C 
ATOM     28  C   LIG    1        6.144   5.537   1.309  0.00  0.00    +0.040 C 
BRANCH  27  29
ATOM     29  O   LIG    1        6.842   5.148  -0.972  0.00  0.00    -0.370 OA
BRANCH  29  30
ATOM     30  C   LIG    1        7.045   6.406  -1.618  0.00  0.00    +0.160 C 
ATOM     31  C   LIG    1        8.276   6.321  -2.524  0.00  0.00    +0.040 C 
ENDBRANCH  29  30
ENDBRANCH  27  29
ENDBRANCH   3  27
TORSDOF 8
