REMARK  Name = ZINCnE000001G9bn.0
REMARK                            x       y       z     vdW  Elec       q    Type
REMARK                         _______ _______ _______ _____ _____    ______ ____
ROOT
ATOM      1  C   LIG    1       -0.013   1.086   0.008  0.00  0.00    +0.250 C 
ENDROOT
BRANCH   1   2
ATOM      2  O   LIG    1       -0.704   1.559  -1.150  0.00  0.00    -0.540 OA
ATOM      3  H   LIG    1       -0.756   2.523  -1.210  0.00  0.00    +0.370 HD
ENDBRANCH   1   2
BRANCH   1   4
ATOM      4  C   LIG    1       -0.729   1.579   1.267  0.00  0.00    +0.050 C 
BRANCH   4   5
ATOM      5  S   LIG    1       -2.380   0.833   1.355  0.00  0.00    -0.010 S 
BRANCH   5  10
ATOM      6  N   LIG    1       -5.233   2.498   5.917  0.00  0.00    -0.640 NA
ATOM      7  C   LIG    1       -4.394   2.252   4.939  0.00  0.00    +0.340 A 
ATOM      8  N   LIG    1       -3.136   2.754   4.772  0.00  0.00    -0.510 NA
ATOM      9  N   LIG    1       -2.456   2.334   3.651  0.00  0.00    -0.250 NA
ATOM     10  C   LIG    1       -3.041   1.507   2.843  0.00  0.00    -0.070 A 
ATOM     11  S   LIG    1       -4.643   1.198   3.534  0.00  0.00    -0.110 S 
BRANCH   6  13
ATOM     12  C   LIG    1       -5.750   4.646   6.965  0.00  0.00    -0.010 C 
ATOM     13  C   LIG    1       -4.850   3.409   6.998  0.00  0.00    +0.170 C 
ENDBRANCH   6  13
ENDBRANCH   5  10
ENDBRANCH   4   5
ENDBRANCH   1   4
BRANCH   1  14
ATOM     14  C   LIG    1        1.423   1.615  -0.003  0.00  0.00    +0.170 C 
BRANCH  14  15
ATOM     15  O   LIG    1        2.126   1.061  -1.116  0.00  0.00    -0.320 OA
BRANCH  15  16
ATOM     16  C   LIG    1        3.424   1.433  -1.272  0.00  0.00    +0.100 A 
ATOM     17  C   LIG    1        4.435   0.696  -0.672  0.00  0.00    -0.100 A 
ATOM     18  C   LIG    1        5.754   1.076  -0.832  0.00  0.00    +0.010 A 
ATOM     19  C   LIG    1        6.066   2.188  -1.591  0.00  0.00    +0.000 A 
ATOM     20  C   LIG    1        5.061   2.925  -2.190  0.00  0.00    -0.080 A 
ATOM     21  C   LIG    1        5.405   4.138  -3.015  0.00  0.00    +0.100 C 
ATOM     22  C   LIG    1        4.094  -0.517   0.155  0.00  0.00    +0.100 C 
ATOM     23  C   LIG    1        3.741   2.546  -2.038  0.00  0.00    -0.100 A 
ATOM     24  C   LIG    1        2.647   3.344  -2.697  0.00  0.00    +0.100 C 
ENDBRANCH  15  16
ENDBRANCH  14  15
ENDBRANCH   1  14
TORSDOF 8
