REMARK  Name = ZINCpe00000yjjzj.0
REMARK                            x       y       z     vdW  Elec       q    Type
REMARK                         _______ _______ _______ _____ _____    ______ ____
ROOT
ATOM      1  C   LIG    1       -4.652  -0.154   0.365  0.00  0.00    +0.370 A 
ATOM      2  N   LIG    1       -3.870  -1.216   0.420  0.00  0.00    -0.300 NA
ATOM      3  N   LIG    1       -2.638  -0.854   0.465  0.00  0.00    -0.230 NA
ATOM      4  C   LIG    1       -2.561   0.459   0.442  0.00  0.00    +0.120 A 
ATOM      5  N   LIG    1       -3.853   0.939   0.382  0.00  0.00    -0.430 N 
ATOM      6  C   LIG    1       -4.274   2.341   0.343  0.00  0.00    +0.370 C 
ENDROOT
BRANCH   1  10
ATOM      7  N   LIG    1       -8.603  -1.363   0.159  0.00  0.00    -0.530 NA
ATOM      8  C   LIG    1       -8.028  -0.676  -1.006  0.00  0.00    +0.200 C 
ATOM      9  C   LIG    1       -6.501  -0.764  -0.945  0.00  0.00    +0.220 C 
ATOM     10  N   LIG    1       -6.028  -0.157   0.307  0.00  0.00    -0.470 N 
ATOM     11  C   LIG    1       -6.603  -0.843   1.472  0.00  0.00    +0.220 C 
ATOM     12  C   LIG    1       -8.130  -0.755   1.411  0.00  0.00    +0.190 C 
BRANCH   7  13
ATOM     13  C   LIG    1      -10.071  -1.365   0.098  0.00  0.00    +0.200 C 
BRANCH  13  14
ATOM     14  C   LIG    1      -10.536  -2.401  -0.928  0.00  0.00    +0.170 C 
BRANCH  14  15
ATOM     15  O   LIG    1      -10.163  -3.709  -0.487  0.00  0.00    -0.370 OA
BRANCH  15  17
ATOM     16  C   LIG    1      -10.104  -6.103  -0.809  0.00  0.00    +0.040 C 
ATOM     17  C   LIG    1      -10.552  -4.756  -1.378  0.00  0.00    +0.150 C 
ENDBRANCH  15  17
ENDBRANCH  14  15
ENDBRANCH  13  14
ENDBRANCH   7  13
ENDBRANCH   1  10
BRANCH   4  18
ATOM     18  C   LIG    1       -1.331   1.264   0.478  0.00  0.00    +0.610 C 
ATOM     19  N   LIG    1       -0.130   0.656   0.541  0.00  0.00    -0.700 N 
ATOM     20  H   LIG    1       -0.077  -0.313   0.563  0.00  0.00    +0.410 HD
ATOM     21  O   LIG    1       -1.397   2.478   0.450  0.00  0.00    -0.530 OA
BRANCH  19  22
ATOM     22  C   LIG    1        1.096   1.457   0.571  0.00  0.00    +0.230 C 
BRANCH  22  23
ATOM     23  C   LIG    1        1.508   1.812  -0.859  0.00  0.00    +0.010 C 
ATOM     24  C   LIG    1        0.447   2.719  -1.485  0.00  0.00    +0.010 C 
ENDBRANCH  22  23
BRANCH  22  25
ATOM     25  C   LIG    1        2.214   0.655   1.240  0.00  0.00    +0.020 C 
ATOM     26  C   LIG    1        1.856   0.407   2.707  0.00  0.00    +0.020 C 
ENDBRANCH  22  25
ENDBRANCH  19  22
ENDBRANCH   4  18
TORSDOF 9
