REMARK  Name = ZINCpk00000C1E1y.0
REMARK                            x       y       z     vdW  Elec       q    Type
REMARK                         _______ _______ _______ _____ _____    ______ ____
ROOT
ATOM      1  C   LIG    1       -0.638   1.672   1.088  0.00  0.00    +0.530 C 
ATOM      2  N   LIG    1       -1.002   1.261  -0.143  0.00  0.00    -0.600 N 
ATOM      3  C   LIG    1        0.013   0.981  -1.168  0.00  0.00    +0.260 C 
ATOM      4  C   LIG    1       -0.317   1.790  -2.426  0.00  0.00    +0.030 C 
ATOM      5  C   LIG    1       -1.751   1.483  -2.865  0.00  0.00    +0.000 C 
ATOM      6  C   LIG    1       -2.724   1.895  -1.757  0.00  0.00    +0.140 C 
ATOM      7  C   LIG    1       -2.421   1.087  -0.491  0.00  0.00    +0.310 C 
ATOM      8  O   LIG    1       -1.479   1.823   1.950  0.00  0.00    -0.530 OA
ENDROOT
BRANCH   1  10
ATOM      9  C   LIG    1        1.619   0.655   1.226  0.00  0.00    +0.060 C 
ATOM     10  C   LIG    1        0.812   1.944   1.394  0.00  0.00    -0.080 C 
ATOM     11  C   LIG    1        1.345   3.009   0.433  0.00  0.00    +0.060 C 
BRANCH  10  12
ATOM     12  C   LIG    1        0.944   2.445   2.834  0.00  0.00    +0.210 C 
BRANCH  12  13
ATOM     13  O   LIG    1        2.319   2.703   3.124  0.00  0.00    -0.380 OA
BRANCH  13  14
ATOM     14  C   LIG    1        2.554   3.178   4.451  0.00  0.00    +0.220 C 
BRANCH  14  15
ATOM     15  C   LIG    1        4.030   3.415   4.646  0.00  0.00    -0.090 A 
ATOM     16  C   LIG    1        4.837   2.398   5.121  0.00  0.00    +0.020 A 
ATOM     17  C   LIG    1        6.191   2.614   5.295  0.00  0.00    +0.000 A 
ATOM     18  C   LIG    1        6.736   3.850   5.005  0.00  0.00    +0.010 A 
ATOM     19  C   LIG    1        5.928   4.869   4.535  0.00  0.00    +0.000 A 
ATOM     20  C   LIG    1        4.575   4.651   4.356  0.00  0.00    +0.020 A 
ENDBRANCH  14  15
ENDBRANCH  13  14
ENDBRANCH  12  13
ENDBRANCH  10  12
ENDBRANCH   1  10
BRANCH   6  21
ATOM     21  O   LIG    1       -2.570   3.288  -1.481  0.00  0.00    -0.530 OA
ATOM     22  H   LIG    1       -2.744   3.861  -2.241  0.00  0.00    +0.370 HD
ENDBRANCH   6  21
BRANCH   6  23
ATOM     23  C   LIG    1       -4.159   1.619  -2.209  0.00  0.00    +0.030 C 
BRANCH  23  24
ATOM     24  C   LIG    1       -5.120   2.101  -1.154  0.00  0.00    +0.510 C 
ATOM     25  O   LIG    1       -4.706   2.706  -0.188  0.00  0.00    -0.510 OA
ATOM     26  N   LIG    1       -6.440   1.861  -1.283  0.00  0.00    -0.860 N 
ATOM     27  H   LIG    1       -7.058   2.171  -0.604  0.00  0.00    +0.400 HD
ATOM     28  H   LIG    1       -6.771   1.377  -2.056  0.00  0.00    +0.400 HD
ENDBRANCH  23  24
ENDBRANCH   6  23
TORSDOF 8
