REMARK  Name = ZINCb80000001OdV.0
REMARK                            x       y       z     vdW  Elec       q    Type
REMARK                         _______ _______ _______ _____ _____    ______ ____
ROOT
ATOM      1  C   LIG    1       -1.273   2.980   0.703  0.00  0.00    +0.070 C 
ATOM      2  C   LIG    1       -0.777   1.631   1.284  0.00  0.00    +0.040 C 
ATOM      3  C   LIG    1        0.039   1.051   0.102  0.00  0.00    +0.230 C 
ATOM      4  O   LIG    1       -0.714   1.454  -1.062  0.00  0.00    -0.360 OA
ATOM      5  F   LIG    1       -0.448   4.028   1.127  0.00  0.00    -0.190 F 
ATOM      6  C   LIG    1       -1.170   2.796  -0.824  0.00  0.00    +0.160 C 
ATOM      7  C   LIG    1       -2.543   3.002  -1.466  0.00  0.00    +0.060 C 
ENDROOT
BRANCH   1  11
ATOM      8  C   LIG    1       -4.529   4.755   1.655  0.00  0.00    +0.280 C 
ATOM      9  N   LIG    1       -3.140   4.503   1.262  0.00  0.00    -0.730 N 
ATOM     10  H   LIG    1       -2.536   5.248   1.112  0.00  0.00    +0.410 HD
ATOM     11  C   LIG    1       -2.701   3.238   1.107  0.00  0.00    +0.520 C 
ATOM     12  O   LIG    1       -3.456   2.308   1.294  0.00  0.00    -0.510 OA
ENDBRANCH   1  11
TORSDOF 1
