REMARK  Name = ZINCtV00000L6jBo.0
REMARK                            x       y       z     vdW  Elec       q    Type
REMARK                         _______ _______ _______ _____ _____    ______ ____
ROOT
ATOM      1  N   LIG    1        1.288   1.719   0.167  0.00  0.00    -0.450 N 
ATOM      2  C   LIG    1        2.048   0.603  -0.041  0.00  0.00    +0.160 A 
ATOM      3  N   LIG    1        1.222  -0.408  -0.188  0.00  0.00    -0.280 NA
ATOM      4  N   LIG    1        0.006  -0.003  -0.086  0.00  0.00    -0.240 NA
ATOM      5  C   LIG    1       -0.019   1.291   0.131  0.00  0.00    +0.220 A 
ENDROOT
BRANCH   5   6
ATOM      6  C   LIG    1       -1.223   2.131   0.299  0.00  0.00    -0.010 A 
ATOM      7  C   LIG    1       -1.354   3.321  -0.418  0.00  0.00    +0.060 A 
ATOM      8  C   LIG    1       -2.481   4.100  -0.258  0.00  0.00    +0.050 A 
ATOM      9  C   LIG    1       -3.482   3.704   0.613  0.00  0.00    -0.010 A 
ATOM     10  C   LIG    1       -3.359   2.525   1.328  0.00  0.00    +0.050 A 
ATOM     11 CL   LIG    1       -4.897   4.691   0.809  0.00  0.00    -0.040 Cl
ATOM     12  C   LIG    1       -2.239   1.734   1.173  0.00  0.00    +0.010 A 
ATOM     13 CL   LIG    1       -2.089   0.252   2.065  0.00  0.00    -0.030 Cl
ENDBRANCH   5   6
BRANCH   1  14
ATOM     14  C   LIG    1        1.766   3.087   0.382  0.00  0.00    +0.350 C 
BRANCH  14  16
ATOM     15  C   LIG    1        3.085   3.749   2.327  0.00  0.00    +0.080 C 
ATOM     16  C   LIG    1        1.934   3.334   1.859  0.00  0.00    -0.070 C 
ENDBRANCH  14  16
ENDBRANCH   1  14
BRANCH   2  17
ATOM     17  S   LIG    1        3.807   0.532  -0.100  0.00  0.00    +0.070 S 
BRANCH  17  18
ATOM     18  C   LIG    1        4.041  -1.237  -0.402  0.00  0.00    +0.150 C 
ATOM     19  C   LIG    1        3.537  -2.031   0.805  0.00  0.00    +0.110 C 
BRANCH  18  20
ATOM     20  C   LIG    1        5.505  -1.521  -0.615  0.00  0.00    +0.170 A 
ATOM     21  N   LIG    1        6.491  -1.054   0.098  0.00  0.00    -0.250 NA
ATOM     22  N   LIG    1        7.606  -1.502  -0.361  0.00  0.00    -0.260 NA
ATOM     23  C   LIG    1        7.368  -2.274  -1.399  0.00  0.00    +0.250 A 
ATOM     24  O   LIG    1        6.031  -2.299  -1.578  0.00  0.00    -0.210 OA
BRANCH  23  25
ATOM     25  C   LIG    1        8.371  -2.976  -2.213  0.00  0.00    -0.160 A 
ATOM     26  C   LIG    1        9.717  -2.935  -2.012  0.00  0.00    +0.110 A 
ATOM     27  C   LIG    1       10.451  -3.680  -2.909  0.00  0.00    +0.020 A 
ATOM     28  C   LIG    1        9.733  -4.325  -3.834  0.00  0.00    -0.010 A 
ATOM     29  S   LIG    1        8.020  -4.008  -3.594  0.00  0.00    +0.180 S 
ENDBRANCH  23  25
ENDBRANCH  18  20
ENDBRANCH  17  18
ENDBRANCH   2  17
TORSDOF 7
