REMARK  Name = ZINCAx0000000e6C.0
REMARK                            x       y       z     vdW  Elec       q    Type
REMARK                         _______ _______ _______ _____ _____    ______ ____
ROOT
ATOM      1  C   LIG    1       -6.279   2.856  -4.632  0.00  0.00    +0.100 C 
ENDROOT
BRANCH   1   7
ATOM      2  N   LIG    1       -3.063   0.942  -1.342  0.00  0.00    -0.530 NA
ATOM      3  C   LIG    1       -3.450   2.286  -1.790  0.00  0.00    +0.180 C 
ATOM      4  C   LIG    1       -3.846   2.234  -3.269  0.00  0.00    +0.280 C 
ATOM      5  N   LIG    1       -4.879   1.201  -3.440  0.00  0.00    -0.610 N 
ATOM      6  C   LIG    1       -4.620  -0.140  -2.893  0.00  0.00    +0.300 C 
ATOM      7  C   LIG    1       -6.033   1.476  -4.080  0.00  0.00    +0.520 C 
ATOM      8  O   LIG    1       -6.875   0.612  -4.211  0.00  0.00    -0.540 OA
ATOM      9  C   LIG    1       -4.192   0.006  -1.429  0.00  0.00    +0.170 C 
BRANCH   2  10
ATOM     10  C   LIG    1       -2.513   0.978   0.019  0.00  0.00    +0.230 C 
BRANCH  10  17
ATOM     11  C   LIG    1       -1.236   3.137   0.029  0.00  0.00    +0.120 A 
ATOM     12  C   LIG    1       -0.043   3.844   0.021  0.00  0.00    -0.070 A 
ATOM     13  C   LIG    1        1.161   3.165   0.007  0.00  0.00    +0.040 A 
ATOM     14  C   LIG    1        1.176   1.783   0.000  0.00  0.00    -0.120 A 
ATOM     15  C   LIG    1       -0.013   1.076   0.008  0.00  0.00    +0.070 A 
ATOM     16  C   LIG    1        2.490   1.045  -0.016  0.00  0.00    +0.090 C 
ATOM     17  C   LIG    1       -1.218   1.750   0.017  0.00  0.00    -0.100 A 
BRANCH  11  19
ATOM     18  C   LIG    1       -2.364   5.230   0.048  0.00  0.00    +0.240 C 
ATOM     19  O   LIG    1       -2.421   3.802   0.043  0.00  0.00    -0.310 OA
ENDBRANCH  11  19
ENDBRANCH  10  17
ENDBRANCH   2  10
ENDBRANCH   1   7
BRANCH   1  20
ATOM     20  C   LIG    1       -7.652   2.900  -5.304  0.00  0.00    +0.180 C 
BRANCH  20  21
ATOM     21  C   LIG    1       -7.898   4.280  -5.856  0.00  0.00    +0.440 A 
ATOM     22  N   LIG    1       -6.976   5.184  -5.699  0.00  0.00    -0.530 NA
ATOM     23  C   LIG    1       -7.122   6.434  -6.163  0.00  0.00    +0.350 A 
ATOM     24  C   LIG    1       -8.304   6.780  -6.839  0.00  0.00    -0.340 A 
ATOM     25  C   LIG    1       -9.329   5.750  -7.005  0.00  0.00    +0.580 A 
ATOM     26  O   LIG    1      -10.375   5.987  -7.583  0.00  0.00    -0.510 OA
ATOM     27  C   LIG    1       -8.192   8.133  -7.212  0.00  0.00    +0.340 A 
ATOM     28  N   LIG    1       -7.037   8.579  -6.799  0.00  0.00    -0.270 NA
ATOM     29  N   LIG    1       -6.346   7.552  -6.144  0.00  0.00    -0.300 N 
ATOM     30  N   LIG    1       -9.068   4.521  -6.500  0.00  0.00    -0.650 N 
ATOM     31  H   LIG    1       -9.722   3.812  -6.594  0.00  0.00    +0.430 HD
BRANCH  29  32
ATOM     32  C   LIG    1       -5.074   7.658  -5.566  0.00  0.00    +0.150 A 
ATOM     33  C   LIG    1       -4.778   6.959  -4.403  0.00  0.00    +0.020 A 
ATOM     34  C   LIG    1       -3.521   7.061  -3.840  0.00  0.00    +0.030 A 
ATOM     35  C   LIG    1       -2.562   7.866  -4.426  0.00  0.00    +0.010 A 
ATOM     36  C   LIG    1       -2.856   8.568  -5.581  0.00  0.00    +0.030 A 
ATOM     37  C   LIG    1       -4.109   8.466  -6.152  0.00  0.00    +0.020 A 
ENDBRANCH  29  32
ENDBRANCH  20  21
ENDBRANCH   1  20
TORSDOF 7
