REMARK  Name = ZINCqH0000004h3t.0
REMARK                            x       y       z     vdW  Elec       q    Type
REMARK                         _______ _______ _______ _____ _____    ______ ____
ROOT
ATOM      1  C   LIG    1       -7.774   4.847   2.001  0.00  0.00    +0.180 A 
ATOM      2  N   LIG    1       -7.094   4.392   0.978  0.00  0.00    -0.470 NA
ATOM      3  C   LIG    1       -6.058   3.704   1.509  0.00  0.00    +0.200 A 
ATOM      4  N   LIG    1       -6.172   3.777   2.810  0.00  0.00    -0.370 NA
ATOM      5  O   LIG    1       -7.148   4.433   3.107  0.00  0.00    +0.130 OA
ENDROOT
BRANCH   3   6
ATOM      6  C   LIG    1       -4.995   2.994   0.757  0.00  0.00    +0.000 A 
ATOM      7  C   LIG    1       -5.006   2.997  -0.637  0.00  0.00    +0.100 A 
ATOM      8  C   LIG    1       -4.016   2.336  -1.339  0.00  0.00    -0.040 A 
ATOM      9  C   LIG    1       -3.012   1.669  -0.654  0.00  0.00    +0.090 A 
ATOM     10  O   LIG    1       -2.031   1.014  -1.340  0.00  0.00    -0.310 OA
ATOM     11  C   LIG    1       -0.721   1.576  -1.246  0.00  0.00    +0.230 C 
ATOM     12  C   LIG    1       -0.013   1.086   0.008  0.00  0.00    +0.000 C 
ATOM     13  C   LIG    1       -0.696   1.562   1.280  0.00  0.00    +0.230 C 
ATOM     14  O   LIG    1       -2.003   1.000   1.396  0.00  0.00    -0.310 OA
ATOM     15  C   LIG    1       -2.997   1.663   0.735  0.00  0.00    +0.080 A 
ATOM     16 CL   LIG    1       -4.031   2.340  -3.075  0.00  0.00    -0.040 Cl
ATOM     17  C   LIG    1       -3.984   2.322   1.444  0.00  0.00    +0.070 A 
ENDBRANCH   3   6
BRANCH   1  18
ATOM     18  C   LIG    1       -9.028   5.681   1.942  0.00  0.00    +0.390 C 
BRANCH  18  19
ATOM     19  N   LIG    1      -10.006   5.161   2.901  0.00  0.00    -0.730 N 
ATOM     20  H   LIG    1      -10.870   4.847   2.590  0.00  0.00    +0.410 HD
ATOM     21  C   LIG    1       -9.706   5.118   4.213  0.00  0.00    +0.510 C 
ATOM     22  O   LIG    1       -8.625   5.510   4.601  0.00  0.00    -0.520 OA
ATOM     23  C   LIG    1      -10.711   4.583   5.200  0.00  0.00    +0.110 C 
ENDBRANCH  18  19
BRANCH  18  24
ATOM     24  C   LIG    1       -8.693   7.132   2.291  0.00  0.00    -0.010 C 
ATOM     25  C   LIG    1       -7.672   7.675   1.290  0.00  0.00    +0.030 C 
BRANCH  24  27
ATOM     26  C   LIG    1       -9.656   9.401   2.701  0.00  0.00    +0.030 C 
ATOM     27  C   LIG    1       -9.966   7.979   2.231  0.00  0.00    +0.030 C 
ENDBRANCH  24  27
ENDBRANCH  18  24
ENDBRANCH   1  18
TORSDOF 5
