REMARK  Name = ZINCpe000000Zoka.0
REMARK                            x       y       z     vdW  Elec       q    Type
REMARK                         _______ _______ _______ _____ _____    ______ ____
ROOT
ATOM      1  O   LIG    1        2.933   5.376   1.034  0.00  0.00    -0.570 OA
ATOM      2  C   LIG    1        1.725   5.263   1.113  0.00  0.00    +0.710 C 
ATOM      3  N   LIG    1        0.984   6.278   1.600  0.00  0.00    -0.620 N 
ATOM      4  C   LIG    1       -0.463   6.120   1.801  0.00  0.00    +0.270 C 
ATOM      5  C   LIG    1       -1.192   7.250   1.077  0.00  0.00    +0.020 C 
ATOM      6  C   LIG    1       -0.636   8.596   1.547  0.00  0.00    +0.020 C 
ATOM      7  C   LIG    1        0.853   8.682   1.204  0.00  0.00    +0.220 C 
ATOM      8  C   LIG    1        1.607   7.566   1.934  0.00  0.00    +0.310 C 
ATOM      9  N   LIG    1        1.127   4.123   0.714  0.00  0.00    -0.680 N 
ATOM     10  H   LIG    1        0.159   4.063   0.699  0.00  0.00    +0.410 HD
ENDROOT
BRANCH   9  11
ATOM     11  C   LIG    1        1.904   3.025   0.320  0.00  0.00    +0.190 A 
ATOM     12  C   LIG    1        3.200   2.884   0.796  0.00  0.00    +0.040 A 
ATOM     13  C   LIG    1        3.966   1.801   0.408  0.00  0.00    +0.060 A 
ATOM     14  C   LIG    1        3.446   0.855  -0.454  0.00  0.00    +0.020 A 
ATOM     15  C   LIG    1        2.152   0.987  -0.935  0.00  0.00    +0.060 A 
ATOM     16  O   LIG    1        1.417   0.206  -1.780  0.00  0.00    -0.310 OA
ATOM     17  C   LIG    1        0.049   0.608  -1.584  0.00  0.00    +0.420 C 
ATOM     18  O   LIG    1        0.154   1.976  -1.149  0.00  0.00    -0.310 OA
ATOM     19  C   LIG    1        1.376   2.074  -0.547  0.00  0.00    -0.010 A 
ENDBRANCH   9  11
BRANCH   7  20
ATOM     20  N   LIG    1        1.377   9.984   1.626  0.00  0.00    -0.600 N 
ATOM     21  C   LIG    1        1.957  10.863   0.615  0.00  0.00    +0.220 C 
ATOM     22  C   LIG    1        2.024  12.297   1.143  0.00  0.00    +0.230 C 
ATOM     23  N   LIG    1        2.661  12.282   2.470  0.00  0.00    -0.680 NA
ATOM     24  H   LIG    1        3.559  11.823   2.435  0.00  0.00    +0.350 HD
ATOM     25  C   LIG    1        1.777  11.637   3.450  0.00  0.00    +0.260 C 
ATOM     26  C   LIG    1        1.299  10.315   2.919  0.00  0.00    +0.480 C 
ATOM     27  O   LIG    1        0.825   9.514   3.696  0.00  0.00    -0.540 OA
ENDBRANCH   7  20
TORSDOF 2
