REMARK  Name = ZINCkj00000dDibr.1
REMARK                            x       y       z     vdW  Elec       q    Type
REMARK                         _______ _______ _______ _____ _____    ______ ____
ROOT
ATOM      1  C   LIG    1        1.423   1.615  -0.003  0.00  0.00    +0.320 C 
ENDROOT
BRANCH   1   2
ATOM      2  C   LIG    1       -0.013   1.086   0.008  0.00  0.00    -0.030 C 
ATOM      3  C   LIG    1       -0.753   1.593  -1.233  0.00  0.00    +0.070 C 
ATOM      4  C   LIG    1       -2.104   0.875  -1.344  0.00  0.00    +0.190 C 
ATOM      5  C   LIG    1       -2.788   0.945   0.002  0.00  0.00    +0.300 C 
ATOM      6  N   LIG    1       -4.042   0.722   0.263  0.00  0.00    -0.470 N 
ATOM      7  C   LIG    1       -4.256   0.888   1.578  0.00  0.00    +0.230 C 
ATOM      8  C   LIG    1       -3.084   1.228   2.153  0.00  0.00    +0.250 C 
ATOM      9  H   LIG    1       -4.716   0.473  -0.389  0.00  0.00    +0.460 HD
ATOM     10  N   LIG    1       -2.155   1.263   1.156  0.00  0.00    -0.400 N 
ATOM     11  C   LIG    1       -0.730   1.580   1.269  0.00  0.00    +0.340 C 
ENDBRANCH   1   2
BRANCH   1  13
ATOM     12  C   LIG    1        2.890  -0.226   0.943  0.00  0.00    +0.290 C 
ATOM     13  N   LIG    1        2.166   1.035   1.118  0.00  0.00    -0.620 N 
ATOM     14  C   LIG    1        2.183   1.661   2.312  0.00  0.00    +0.520 C 
ATOM     15  O   LIG    1        1.584   2.706   2.457  0.00  0.00    -0.530 OA
BRANCH  14  16
ATOM     16  C   LIG    1        2.947   1.064   3.465  0.00  0.00    -0.030 C 
ATOM     17  C   LIG    1        2.808   1.968   4.694  0.00  0.00    +0.040 C 
ATOM     18  C   LIG    1        3.653   1.393   5.835  0.00  0.00    -0.010 C 
ATOM     19  C   LIG    1        5.106   1.262   5.370  0.00  0.00    +0.210 C 
ATOM     20  O   LIG    1        5.159   0.434   4.207  0.00  0.00    -0.370 OA
ATOM     21  C   LIG    1        4.427   0.946   3.091  0.00  0.00    +0.230 C 
ENDBRANCH  14  16
ENDBRANCH   1  13
TORSDOF 3
