REMARK  Name = ZINCpe00000gNmss.0
REMARK                            x       y       z     vdW  Elec       q    Type
REMARK                         _______ _______ _______ _____ _____    ______ ____
ROOT
ATOM      1  N   LIG    1        1.266   3.683  -3.148  0.00  0.00    -0.690 NA
ATOM      2  H   LIG    1        1.546   4.201  -2.377  0.00  0.00    +0.420 HD
ENDROOT
BRANCH   1   7
ATOM      3  N   LIG    1        3.458   2.635  -3.428  0.00  0.00    -0.370 N 
ATOM      4  N   LIG    1        3.938   1.673  -4.335  0.00  0.00    -0.080 NA
ATOM      5  N   LIG    1        2.954   1.367  -5.109  0.00  0.00    -0.010 NA
ATOM      6  N   LIG    1        1.903   2.029  -4.781  0.00  0.00    -0.370 NA
ATOM      7  C   LIG    1        2.158   2.823  -3.764  0.00  0.00    +0.500 C 
BRANCH   3  11
ATOM      8  C   LIG    1        5.579   4.505  -0.364  0.00  0.00    +0.030 A 
ATOM      9  C   LIG    1        6.132   4.410  -1.628  0.00  0.00    +0.040 A 
ATOM     10  C   LIG    1        5.432   3.791  -2.645  0.00  0.00    +0.040 A 
ATOM     11  C   LIG    1        4.172   3.263  -2.397  0.00  0.00    +0.130 A 
ATOM     12  C   LIG    1        3.617   3.365  -1.129  0.00  0.00    +0.000 A 
ATOM     13  C   LIG    1        4.324   3.981  -0.115  0.00  0.00    +0.040 A 
ENDBRANCH   3  11
ENDBRANCH   1   7
BRANCH   1  14
ATOM     14  C   LIG    1       -0.100   3.810  -3.661  0.00  0.00    +0.270 C 
BRANCH  14  15
ATOM     15  C   LIG    1       -0.922   4.683  -2.710  0.00  0.00    +0.190 C 
BRANCH  15  16
ATOM     16  N   LIG    1       -1.171   3.949  -1.463  0.00  0.00    -0.520 NA
ATOM     17  C   LIG    1        0.080   3.416  -0.905  0.00  0.00    +0.140 C 
ATOM     18  C   LIG    1       -0.217   2.711   0.421  0.00  0.00    +0.220 C 
ATOM     19  O   LIG    1       -1.192   1.687   0.203  0.00  0.00    -0.380 OA
ATOM     20  C   LIG    1       -2.424   2.171  -0.339  0.00  0.00    +0.220 C 
ATOM     21  C   LIG    1       -2.148   2.870  -1.673  0.00  0.00    +0.150 C 
ENDBRANCH  15  16
BRANCH  15  22
ATOM     22  C   LIG    1       -0.149   5.967  -2.400  0.00  0.00    -0.030 C 
ATOM     23  C   LIG    1        0.127   6.759  -3.697  0.00  0.00    +0.010 C 
ATOM     24  C   LIG    1       -0.601   8.104  -3.478  0.00  0.00    +0.200 C 
ATOM     25  O   LIG    1       -0.690   8.245  -2.043  0.00  0.00    -0.380 OA
ATOM     26  C   LIG    1       -1.011   6.926  -1.550  0.00  0.00    +0.220 C 
ENDBRANCH  15  22
ENDBRANCH  14  15
ENDBRANCH   1  14
TORSDOF 6
