REMARK  Name = ZINCpe00000bcWo6.0
REMARK                            x       y       z     vdW  Elec       q    Type
REMARK                         _______ _______ _______ _____ _____    ______ ____
ROOT
ATOM      1  C   LIG    1       -4.582   0.479  -0.071  0.00  0.00    -0.080 A 
ATOM      2  C   LIG    1       -5.615   0.664  -0.972  0.00  0.00    +0.020 A 
ATOM      3  C   LIG    1       -6.703  -0.185  -0.962  0.00  0.00    +0.050 A 
ATOM      4  C   LIG    1       -6.764  -1.225  -0.033  0.00  0.00    -0.120 A 
ATOM      5  C   LIG    1       -5.720  -1.402   0.877  0.00  0.00    +0.080 A 
ATOM      6  C   LIG    1       -4.636  -0.549   0.853  0.00  0.00    +0.030 A 
ENDROOT
BRANCH   4   7
ATOM      7  C   LIG    1       -7.929  -2.135  -0.013  0.00  0.00    +0.580 C 
ATOM      8  N   LIG    1       -8.570  -2.434  -1.160  0.00  0.00    -0.600 N 
ATOM      9  C   LIG    1       -8.053  -1.975  -2.459  0.00  0.00    +0.260 C 
ATOM     10  C   LIG    1       -7.988  -3.186  -3.404  0.00  0.00    +0.220 C 
ATOM     11  O   LIG    1       -9.262  -3.836  -3.421  0.00  0.00    -0.370 OA
ATOM     12  C   LIG    1       -9.664  -4.370  -2.158  0.00  0.00    +0.220 C 
ATOM     13  C   LIG    1       -9.812  -3.224  -1.150  0.00  0.00    +0.220 C 
ATOM     14  O   LIG    1       -8.309  -2.613   1.038  0.00  0.00    -0.530 OA
BRANCH  13  15
ATOM     15  C   LIG    1      -10.047  -3.795   0.250  0.00  0.00    +0.120 C 
BRANCH  15  16
ATOM     16  C   LIG    1      -10.524  -2.698   1.167  0.00  0.00    +0.500 C 
ATOM     17  O   LIG    1      -10.662  -1.575   0.744  0.00  0.00    -0.530 OA
BRANCH  16  18
ATOM     18  O   LIG    1      -10.797  -2.969   2.453  0.00  0.00    -0.360 OA
ATOM     19  C   LIG    1      -11.252  -1.864   3.277  0.00  0.00    +0.260 C 
ENDBRANCH  16  18
ENDBRANCH  15  16
ENDBRANCH  13  15
ENDBRANCH   4   7
BRANCH   1  20
ATOM     20  C   LIG    1       -3.394   1.407  -0.091  0.00  0.00    +0.320 C 
BRANCH  20  22
ATOM     21  C   LIG    1       -1.213   1.538  -1.170  0.00  0.00    +0.540 C 
ATOM     22  N   LIG    1       -2.371   0.871  -0.992  0.00  0.00    -0.720 N 
ATOM     23  H   LIG    1       -2.527   0.036  -1.461  0.00  0.00    +0.400 HD
ATOM     24  O   LIG    1       -1.018   2.584  -0.582  0.00  0.00    -0.540 OA
BRANCH  21  26
ATOM     25  C   LIG    1        0.955   1.660  -2.254  0.00  0.00    +0.150 C 
ATOM     26  C   LIG    1       -0.186   0.999  -2.075  0.00  0.00    -0.090 C 
ENDBRANCH  21  26
ENDBRANCH  20  22
ENDBRANCH   1  20
TORSDOF 7
