REMARK  Name = ZINCvU00000009fQ.0
REMARK                            x       y       z     vdW  Elec       q    Type
REMARK                         _______ _______ _______ _____ _____    ______ ____
ROOT
ATOM      1  O   LIG    1        9.697  -0.039  -0.006  0.00  0.00    -0.510 OA
ATOM      2  C   LIG    1        9.685   1.177  -0.016  0.00  0.00    +0.560 C 
ATOM      3  N   LIG    1        8.516   1.838  -0.128  0.00  0.00    -0.670 N 
ATOM      4  H   LIG    1        8.511   2.804  -0.211  0.00  0.00    +0.410 HD
ENDROOT
BRANCH   2   5
ATOM      5  C   LIG    1       10.950   1.928   0.093  0.00  0.00    -0.150 A 
ATOM      6  C   LIG    1       10.938   3.326   0.075  0.00  0.00    +0.070 A 
ATOM      7  C   LIG    1       12.120   4.024   0.182  0.00  0.00    +0.020 A 
ATOM      8  C   LIG    1       13.326   3.340   0.297  0.00  0.00    +0.180 A 
ATOM      9  C   LIG    1       13.342   1.948   0.310  0.00  0.00    -0.010 A 
ATOM     10  C   LIG    1       12.164   1.244   0.209  0.00  0.00    +0.110 A 
BRANCH   8  11
ATOM     11  N   LIG    1       14.521   4.049   0.400  0.00  0.00    -0.670 N 
ATOM     12  H   LIG    1       15.326   3.707  -0.019  0.00  0.00    +0.410 HD
ATOM     13  C   LIG    1       14.558   5.212   1.081  0.00  0.00    +0.600 C 
ATOM     14  O   LIG    1       13.533   5.684   1.536  0.00  0.00    -0.500 OA
BRANCH  13  15
ATOM     15  C   LIG    1       15.833   5.907   1.275  0.00  0.00    -0.280 A 
ATOM     16  C   LIG    1       15.999   7.087   1.944  0.00  0.00    +0.120 A 
ATOM     17  C   LIG    1       17.305   7.515   1.975  0.00  0.00    +0.000 A 
ATOM     18  C   LIG    1       18.180   6.716   1.352  0.00  0.00    -0.050 A 
ATOM     19  S   LIG    1       17.396   5.354   0.689  0.00  0.00    +0.200 S 
ENDBRANCH  13  15
ENDBRANCH   8  11
ENDBRANCH   2   5
BRANCH   3  20
ATOM     20  C   LIG    1        7.309   1.131  -0.124  0.00  0.00    +0.150 A 
ATOM     21  C   LIG    1        6.235   1.585  -0.880  0.00  0.00    -0.010 A 
ATOM     22  C   LIG    1        5.040   0.891  -0.880  0.00  0.00    +0.030 A 
ATOM     23  C   LIG    1        4.904  -0.259  -0.130  0.00  0.00    +0.010 A 
ATOM     24  C   LIG    1        5.978  -0.725   0.633  0.00  0.00    -0.050 A 
ATOM     25  C   LIG    1        7.183  -0.021   0.637  0.00  0.00    +0.040 A 
BRANCH  24  26
ATOM     26  C   LIG    1        5.837  -1.953   1.437  0.00  0.00    +0.080 C 
ATOM     27  C   LIG    1        4.675  -2.626   1.436  0.00  0.00    +0.000 C 
BRANCH  27  28
ATOM     28  C   LIG    1        4.533  -3.853   2.239  0.00  0.00    +0.160 A 
ATOM     29  C   LIG    1        3.322  -4.549   2.234  0.00  0.00    -0.020 A 
ATOM     30  C   LIG    1        3.204  -5.696   2.998  0.00  0.00    +0.070 A 
ATOM     31  C   LIG    1        4.302  -6.119   3.734  0.00  0.00    -0.040 A 
ATOM     32  C   LIG    1        5.473  -5.383   3.693  0.00  0.00    +0.270 A 
ATOM     33  N   LIG    1        5.560  -4.290   2.962  0.00  0.00    -0.480 NA
ENDBRANCH  27  28
ENDBRANCH  24  26
ENDBRANCH   3  20
TORSDOF 6
