REMARK  Name = ZINCrH000004tOJ0.0
REMARK                            x       y       z     vdW  Elec       q    Type
REMARK                         _______ _______ _______ _____ _____    ______ ____
ROOT
ATOM      1  O   LIG    1        5.924  -1.926  -0.067  0.00  0.00    -0.520 OA
ATOM      2  C   LIG    1        6.101  -0.727  -0.073  0.00  0.00    +0.510 C 
ATOM      3  N   LIG    1        7.354  -0.230  -0.081  0.00  0.00    -0.650 N 
ATOM      4  H   LIG    1        7.497   0.727  -0.152  0.00  0.00    +0.430 HD
ENDROOT
BRANCH   3   5
ATOM      5  C   LIG    1        8.445  -1.091   0.015  0.00  0.00    +0.210 A 
ATOM      6  C   LIG    1        8.399  -2.344  -0.583  0.00  0.00    +0.020 A 
ATOM      7  C   LIG    1        9.481  -3.196  -0.487  0.00  0.00    +0.060 A 
ATOM      8  C   LIG    1       10.618  -2.810   0.204  0.00  0.00    -0.010 A 
ATOM      9  C   LIG    1       10.681  -1.571   0.803  0.00  0.00    +0.060 A 
ATOM     10  C   LIG    1        9.597  -0.695   0.710  0.00  0.00    -0.170 A 
BRANCH  10  11
ATOM     11  C   LIG    1        9.661   0.635   1.344  0.00  0.00    +0.570 C 
ATOM     12  N   LIG    1       10.806   1.054   1.918  0.00  0.00    -0.700 N 
ATOM     13  H   LIG    1       11.588   0.481   1.914  0.00  0.00    +0.400 HD
ATOM     14  O   LIG    1        8.680   1.354   1.349  0.00  0.00    -0.540 OA
BRANCH  12  15
ATOM     15  C   LIG    1       10.869   2.375   2.547  0.00  0.00    +0.220 C 
ATOM     16  C   LIG    1       12.109   3.230   2.274  0.00  0.00    +0.020 C 
ATOM     17  C   LIG    1       11.911   2.584   3.648  0.00  0.00    +0.020 C 
ENDBRANCH  12  15
ENDBRANCH  10  11
ENDBRANCH   3   5
BRANCH   2  18
ATOM     18  C   LIG    1        4.920   0.210  -0.074  0.00  0.00    +0.310 C 
BRANCH  18  19
ATOM     19  N   LIG    1        3.679  -0.570  -0.065  0.00  0.00    -0.730 N 
ATOM     20  H   LIG    1        3.716  -1.539  -0.060  0.00  0.00    +0.410 HD
BRANCH  19  21
ATOM     21  C   LIG    1        2.448   0.082  -0.064  0.00  0.00    +0.230 A 
ATOM     22  C   LIG    1        2.389   1.459  -0.071  0.00  0.00    -0.100 A 
ATOM     23  C   LIG    1        1.164   2.119  -0.071  0.00  0.00    +0.060 A 
ATOM     24  C   LIG    1       -0.008   1.426  -0.063  0.00  0.00    -0.050 A 
ATOM     25  C   LIG    1        0.007   0.021  -0.055  0.00  0.00    -0.010 A 
ATOM     26  C   LIG    1       -1.187  -0.720  -0.047  0.00  0.00    +0.010 A 
ATOM     27  C   LIG    1       -1.135  -2.081  -0.040  0.00  0.00    +0.010 A 
ATOM     28  C   LIG    1        0.086  -2.752  -0.040  0.00  0.00    -0.010 A 
ATOM     29  C   LIG    1        1.262  -2.066  -0.048  0.00  0.00    +0.020 A 
ATOM     30  C   LIG    1        1.248  -0.663  -0.056  0.00  0.00    -0.100 A 
ENDBRANCH  19  21
ENDBRANCH  18  19
ENDBRANCH   2  18
TORSDOF 6
