REMARK  Name = ZINCkj000005jWwB.1
REMARK                            x       y       z     vdW  Elec       q    Type
REMARK                         _______ _______ _______ _____ _____    ______ ____
ROOT
ATOM      1  C   LIG    1       -3.862   6.358  -0.375  0.00  0.00    +0.100 C 
ATOM      2  C   LIG    1       -4.090   5.144  -1.277  0.00  0.00    +0.140 C 
ATOM      3  C   LIG    1       -4.426   5.616  -2.694  0.00  0.00    +0.260 C 
ATOM      4  O   LIG    1       -4.583   4.478  -3.546  0.00  0.00    -0.340 OA
ATOM      5  C   LIG    1       -3.429   3.635  -3.595  0.00  0.00    +0.160 C 
ATOM      6  C   LIG    1       -3.091   3.158  -2.180  0.00  0.00    +0.240 C 
ATOM      7  N   LIG    1       -2.871   4.324  -1.313  0.00  0.00    -0.380 N 
ATOM      8  H   LIG    1       -2.107   4.873  -1.675  0.00  0.00    +0.420 HD
ENDROOT
BRANCH   5   9
ATOM      9  C   LIG    1       -3.718   2.425  -4.486  0.00  0.00    +0.230 C 
BRANCH   9  10
ATOM     10  O   LIG    1       -3.923   2.862  -5.831  0.00  0.00    -0.560 OA
ATOM     11  H   LIG    1       -4.112   2.146  -6.453  0.00  0.00    +0.400 HD
ENDBRANCH   9  10
ENDBRANCH   5   9
BRANCH   7  12
ATOM     12  C   LIG    1       -2.547   3.869   0.046  0.00  0.00    +0.320 C 
BRANCH  12  13
ATOM     13  C   LIG    1       -1.233   3.132   0.029  0.00  0.00    -0.160 A 
ATOM     14  C   LIG    1       -1.219   1.752   0.017  0.00  0.00    +0.040 A 
ATOM     15  C   LIG    1       -0.013   1.076   0.008  0.00  0.00    +0.030 A 
ATOM     16  C   LIG    1        1.173   1.783   0.000  0.00  0.00    +0.060 A 
ATOM     17  C   LIG    1        1.160   3.170   0.006  0.00  0.00    -0.110 A 
ATOM     18  C   LIG    1        2.475   3.906   0.003  0.00  0.00    +0.290 C 
ATOM     19  O   LIG    1        2.275   5.272  -0.357  0.00  0.00    -0.370 OA
ATOM     20  C   LIG    1        1.263   5.918   0.425  0.00  0.00    +0.240 C 
ATOM     21  C   LIG    1       -0.098   5.350   0.019  0.00  0.00    +0.040 C 
ATOM     22  C   LIG    1       -0.043   3.844   0.019  0.00  0.00    -0.060 A 
ENDBRANCH  12  13
ENDBRANCH   7  12
TORSDOF 4
