REMARK  Name = ZINCkj000005jWwB.2
REMARK                            x       y       z     vdW  Elec       q    Type
REMARK                         _______ _______ _______ _____ _____    ______ ____
ROOT
ATOM      1  C   LIG    1       -5.753   5.400   3.097  0.00  0.00    +0.100 C 
ATOM      2  C   LIG    1       -5.507   4.877   1.680  0.00  0.00    +0.140 C 
ATOM      3  C   LIG    1       -4.835   5.967   0.842  0.00  0.00    +0.260 C 
ATOM      4  O   LIG    1       -4.558   5.455  -0.464  0.00  0.00    -0.340 OA
ATOM      5  C   LIG    1       -3.728   4.290  -0.459  0.00  0.00    +0.160 C 
ATOM      6  C   LIG    1       -4.399   3.196   0.376  0.00  0.00    +0.240 C 
ATOM      7  N   LIG    1       -4.633   3.697   1.738  0.00  0.00    -0.380 N 
ATOM      8  H   LIG    1       -5.075   2.978   2.290  0.00  0.00    +0.420 HD
ENDROOT
BRANCH   5   9
ATOM      9  C   LIG    1       -3.537   3.793  -1.893  0.00  0.00    +0.230 C 
BRANCH   9  10
ATOM     10  O   LIG    1       -2.821   4.774  -2.646  0.00  0.00    -0.560 OA
ATOM     11  H   LIG    1       -2.663   4.526  -3.567  0.00  0.00    +0.400 HD
ENDBRANCH   9  10
ENDBRANCH   5   9
BRANCH   7  12
ATOM     12  C   LIG    1       -3.350   4.068   2.351  0.00  0.00    +0.300 C 
BRANCH  12  13
ATOM     13  C   LIG    1       -2.506   2.833   2.533  0.00  0.00    -0.150 A 
ATOM     14  C   LIG    1       -1.504   2.546   1.628  0.00  0.00    +0.040 A 
ATOM     15  C   LIG    1       -0.729   1.413   1.795  0.00  0.00    +0.030 A 
ATOM     16  C   LIG    1       -0.960   0.573   2.866  0.00  0.00    +0.060 A 
ATOM     17  C   LIG    1       -1.967   0.863   3.778  0.00  0.00    -0.110 A 
ATOM     18  C   LIG    1       -2.190  -0.083   4.929  0.00  0.00    +0.290 C 
ATOM     19  O   LIG    1       -2.986   0.545   5.934  0.00  0.00    -0.360 OA
ATOM     20  C   LIG    1       -4.196   1.112   5.418  0.00  0.00    +0.230 C 
ATOM     21  C   LIG    1       -3.837   2.340   4.580  0.00  0.00    +0.040 C 
ATOM     22  C   LIG    1       -2.738   1.991   3.610  0.00  0.00    -0.050 A 
ENDBRANCH  12  13
ENDBRANCH   7  12
TORSDOF 4
