REMARK  Name = ZINCrH000004py74.0
REMARK                            x       y       z     vdW  Elec       q    Type
REMARK                         _______ _______ _______ _____ _____    ______ ____
ROOT
ATOM      1  C   LIG    1        1.228  -0.257  -0.237  0.00  0.00    +0.180 A 
ATOM      2  N   LIG    1       -0.001   0.163  -0.418  0.00  0.00    -0.460 NA
ATOM      3  C   LIG    1        0.065   1.506  -0.367  0.00  0.00    +0.180 A 
ATOM      4  N   LIG    1        1.307   1.827  -0.162  0.00  0.00    -0.360 NA
ATOM      5  O   LIG    1        1.992   0.829  -0.084  0.00  0.00    +0.100 OA
ENDROOT
BRANCH   1   7
ATOM      6  C   LIG    1        1.980  -2.103   1.239  0.00  0.00    +0.080 C 
ATOM      7  C   LIG    1        1.690  -1.691  -0.206  0.00  0.00    +0.300 C 
BRANCH   7   8
ATOM      8  O   LIG    1        2.879  -1.825  -0.988  0.00  0.00    -0.290 OA
BRANCH   8   9
ATOM      9  C   LIG    1        3.139  -3.053  -1.511  0.00  0.00    +0.080 A 
ATOM     10  C   LIG    1        2.337  -4.142  -1.185  0.00  0.00    +0.000 A 
ATOM     11  C   LIG    1        2.638  -5.372  -1.746  0.00  0.00    +0.040 A 
ATOM     12  C   LIG    1        3.724  -5.479  -2.598  0.00  0.00    +0.140 A 
ATOM     13  N   LIG    1        4.466  -4.426  -2.882  0.00  0.00    -0.440 NA
ATOM     14 CL   LIG    1        4.114  -7.017  -3.301  0.00  0.00    -0.020 Cl
ATOM     15  C   LIG    1        4.210  -3.237  -2.373  0.00  0.00    +0.290 A 
ENDBRANCH   8   9
ENDBRANCH   7   8
ENDBRANCH   1   7
BRANCH   3  16
ATOM     16  C   LIG    1       -1.089   2.462  -0.527  0.00  0.00    +0.100 C 
ATOM     17  C   LIG    1       -0.830   3.379  -1.724  0.00  0.00    +0.060 C 
BRANCH  16  18
ATOM     18  C   LIG    1       -1.231   3.306   0.742  0.00  0.00    +0.280 C 
BRANCH  18  19
ATOM     19  N   LIG    1       -2.423   4.151   0.635  0.00  0.00    -0.730 N 
ATOM     20  H   LIG    1       -2.977   4.110  -0.160  0.00  0.00    +0.400 HD
ATOM     21  C   LIG    1       -2.750   4.984   1.643  0.00  0.00    +0.560 C 
ATOM     22  O   LIG    1       -2.056   5.035   2.639  0.00  0.00    -0.530 OA
BRANCH  21  23
ATOM     23  C   LIG    1       -3.953   5.837   1.536  0.00  0.00    -0.140 A 
ATOM     24  C   LIG    1       -4.749   5.785   0.390  0.00  0.00    +0.030 A 
ATOM     25  C   LIG    1       -5.873   6.580   0.299  0.00  0.00    +0.000 A 
ATOM     26  C   LIG    1       -6.206   7.434   1.335  0.00  0.00    +0.040 A 
ATOM     27  C   LIG    1       -5.419   7.494   2.470  0.00  0.00    +0.000 A 
ATOM     28  C   LIG    1       -4.295   6.701   2.577  0.00  0.00    +0.080 A 
ENDBRANCH  21  23
ENDBRANCH  18  19
ENDBRANCH  16  18
ENDBRANCH   3  16
TORSDOF 7
