REMARK  Name = ZINCrH00000No4S0.0
REMARK                            x       y       z     vdW  Elec       q    Type
REMARK                         _______ _______ _______ _____ _____    ______ ____
ROOT
ATOM      1  C   LIG    1        1.211  -1.871   1.376  0.00  0.00    +0.310 C 
ENDROOT
BRANCH   1   2
ATOM      2  N   LIG    1        1.106  -0.470   0.958  0.00  0.00    -0.570 N 
ATOM      3  C   LIG    1        2.209   0.271   0.803  0.00  0.00    +0.530 C 
ATOM      4  S   LIG    1        1.679   1.885   0.300  0.00  0.00    -0.010 S 
ATOM      5  C   LIG    1       -0.049   1.480   0.321  0.00  0.00    -0.240 C 
ATOM      6  C   LIG    1       -1.098   2.285   0.020  0.00  0.00    +0.250 C 
ATOM      7  O   LIG    1        3.356  -0.094   0.976  0.00  0.00    -0.420 OA
ATOM      8  C   LIG    1       -0.080   0.070   0.733  0.00  0.00    +0.560 C 
ATOM      9  O   LIG    1       -1.117  -0.553   0.857  0.00  0.00    -0.450 OA
BRANCH   6  10
ATOM     10  C   LIG    1       -2.451   1.719  -0.087  0.00  0.00    -0.100 A 
ATOM     11  C   LIG    1       -2.648   0.481  -0.708  0.00  0.00    +0.080 A 
ATOM     12  C   LIG    1       -3.920  -0.044  -0.801  0.00  0.00    +0.000 A 
ATOM     13  C   LIG    1       -5.000   0.654  -0.290  0.00  0.00    +0.040 A 
ATOM     14  C   LIG    1       -4.814   1.882   0.321  0.00  0.00    +0.000 A 
ATOM     15  C   LIG    1       -3.548   2.419   0.426  0.00  0.00    +0.050 A 
ENDBRANCH   6  10
ENDBRANCH   1   2
BRANCH   1  16
ATOM     16  C   LIG    1        1.326  -2.764   0.139  0.00  0.00    +0.270 C 
BRANCH  16  19
ATOM     17  O   LIG    1        1.556  -4.853  -1.549  0.00  0.00    -0.520 OA
ATOM     18  C   LIG    1        1.542  -5.137  -0.370  0.00  0.00    +0.520 C 
ATOM     19  N   LIG    1        1.431  -4.165   0.556  0.00  0.00    -0.730 N 
ATOM     20  H   LIG    1        1.420  -4.392   1.499  0.00  0.00    +0.400 HD
BRANCH  18  21
ATOM     21  C   LIG    1        1.650  -6.578   0.059  0.00  0.00    +0.120 C 
BRANCH  21  22
ATOM     22  C   LIG    1        1.763  -7.458  -1.159  0.00  0.00    -0.070 A 
ATOM     23  C   LIG    1        0.623  -7.967  -1.752  0.00  0.00    +0.040 A 
ATOM     24  C   LIG    1        0.725  -8.770  -2.872  0.00  0.00    +0.020 A 
ATOM     25  C   LIG    1        1.970  -9.074  -3.393  0.00  0.00    -0.030 A 
ATOM     26  C   LIG    1        3.112  -8.569  -2.796  0.00  0.00    +0.020 A 
ATOM     27 CL   LIG    1        2.101 -10.089  -4.795  0.00  0.00    -0.070 Cl
ATOM     28  C   LIG    1        3.007  -7.761  -1.679  0.00  0.00    +0.040 A 
ENDBRANCH  21  22
ENDBRANCH  18  21
ENDBRANCH  16  19
ENDBRANCH   1  16
TORSDOF 6
