REMARK  Name = ZINCrH000004slGo.0
REMARK                            x       y       z     vdW  Elec       q    Type
REMARK                         _______ _______ _______ _____ _____    ______ ____
ROOT
ATOM      1  C   LIG    1       -0.018   1.463   0.010  0.00  0.00    +0.590 C 
ATOM      2  N   LIG    1        1.140   2.152   0.003  0.00  0.00    -0.730 N 
ATOM      3  H   LIG    1        1.987   1.679  -0.008  0.00  0.00    +0.390 HD
ATOM      4  O   LIG    1       -1.080   2.057   0.018  0.00  0.00    -0.520 OA
ENDROOT
BRANCH   1   9
ATOM      5  C   LIG    1       -0.621  -2.149  -0.004  0.00  0.00    -0.120 A 
ATOM      6  C   LIG    1        0.744  -2.098  -0.016  0.00  0.00    +0.240 A 
ATOM      7  N   LIG    1        1.126  -0.798  -0.019  0.00  0.00    -0.540 N 
ATOM      8  H   LIG    1        2.042  -0.479  -0.031  0.00  0.00    +0.420 HD
ATOM      9  C   LIG    1        0.002  -0.004   0.002  0.00  0.00    -0.060 A 
ATOM     10  C   LIG    1       -1.093  -0.823   0.008  0.00  0.00    +0.100 A 
BRANCH   5  14
ATOM     11  C   LIG    1       -4.887  -4.654   0.024  0.00  0.00    +0.180 C 
ATOM     12  C   LIG    1       -3.390  -4.485   0.010  0.00  0.00    +0.060 A 
ATOM     13  N   LIG    1       -2.779  -3.350   0.011  0.00  0.00    -0.470 NA
ATOM     14  C   LIG    1       -1.455  -3.378  -0.002  0.00  0.00    +0.150 A 
ATOM     15  C   LIG    1       -0.930  -4.619  -0.019  0.00  0.00    -0.090 A 
ATOM     16  S   LIG    1       -2.264  -5.770  -0.008  0.00  0.00    +0.120 S 
ENDBRANCH   5  14
ENDBRANCH   1   9
BRANCH   2  17
ATOM     17  C   LIG    1        1.120   3.617   0.011  0.00  0.00    +0.260 C 
ATOM     18  C   LIG    1        1.037   4.144   1.458  0.00  0.00    +0.040 C 
ATOM     19  C   LIG    1        2.323   4.975   1.657  0.00  0.00    +0.180 C 
ATOM     20  N   LIG    1        2.725   5.377   0.284  0.00  0.00    -0.460 N 
ATOM     21  C   LIG    1        2.449   4.175  -0.543  0.00  0.00    +0.190 C 
BRANCH  20  22
ATOM     22  C   LIG    1        4.082   5.718   0.238  0.00  0.00    +0.010 A 
ATOM     23  C   LIG    1        5.048   4.780   0.587  0.00  0.00    +0.090 A 
ATOM     24  C   LIG    1        6.388   5.119   0.535  0.00  0.00    -0.020 A 
ATOM     25  C   LIG    1        6.767   6.391   0.148  0.00  0.00    +0.090 A 
ATOM     26  C   LIG    1        5.809   7.328  -0.194  0.00  0.00    -0.010 A 
ATOM     27  F   LIG    1        4.678   3.539   0.970  0.00  0.00    -0.130 F 
ATOM     28  C   LIG    1        4.467   6.995  -0.151  0.00  0.00    +0.160 A 
ATOM     29  F   LIG    1        3.532   7.911  -0.486  0.00  0.00    -0.120 F 
ENDBRANCH  20  22
ENDBRANCH   2  17
TORSDOF 4
