REMARK  Name = ZINCvU0000000Jk4.0
REMARK                            x       y       z     vdW  Elec       q    Type
REMARK                         _______ _______ _______ _____ _____    ______ ____
ROOT
ATOM      1  C   LIG    1        5.510   3.761   6.979  0.00  0.00    +0.150 A 
ATOM      2  N   LIG    1        6.289   2.737   7.246  0.00  0.00    -0.290 NA
ATOM      3  N   LIG    1        7.057   3.014   8.239  0.00  0.00    -0.240 NA
ATOM      4  C   LIG    1        6.809   4.228   8.672  0.00  0.00    +0.220 A 
ATOM      5  N   LIG    1        5.810   4.744   7.878  0.00  0.00    -0.440 N 
ENDROOT
BRANCH   4   6
ATOM      6  C   LIG    1        7.476   4.912   9.800  0.00  0.00    +0.010 A 
ATOM      7  C   LIG    1        7.973   6.207   9.639  0.00  0.00    +0.030 A 
ATOM      8  C   LIG    1        8.590   6.842  10.697  0.00  0.00    +0.040 A 
ATOM      9  C   LIG    1        8.727   6.194  11.912  0.00  0.00    +0.040 A 
ATOM     10  C   LIG    1        8.242   4.909  12.077  0.00  0.00    +0.050 A 
ATOM     11  C   LIG    1        7.617   4.264  11.029  0.00  0.00    -0.060 A 
ATOM     12 BR   LIG    1        6.955   2.508  11.256  0.00  0.00    -0.020 Br
ENDBRANCH   4   6
BRANCH   1  13
ATOM     13  S   LIG    1        4.298   3.848   5.702  0.00  0.00    +0.080 S 
BRANCH  13  14
ATOM     14  C   LIG    1        4.498   2.206   4.968  0.00  0.00    +0.110 C 
BRANCH  14  16
ATOM     15  O   LIG    1        2.786   2.956   3.528  0.00  0.00    -0.520 OA
ATOM     16  C   LIG    1        3.534   2.048   3.820  0.00  0.00    +0.540 C 
ATOM     17  N   LIG    1        3.504   0.897   3.119  0.00  0.00    -0.720 N 
ATOM     18  H   LIG    1        4.102   0.171   3.353  0.00  0.00    +0.400 HD
BRANCH  17  19
ATOM     19  C   LIG    1        2.567   0.744   2.003  0.00  0.00    +0.240 C 
ATOM     20  C   LIG    1        3.181   1.299   0.747  0.00  0.00    -0.010 C 
ATOM     21  C   LIG    1        2.137   1.941  -0.186  0.00  0.00    +0.010 C 
ATOM     22  C   LIG    1        0.838   1.118  -0.286  0.00  0.00    +0.000 C 
ATOM     23  C   LIG    1        1.100  -0.361  -0.385  0.00  0.00    +0.010 C 
ATOM     24  C   LIG    1        1.036  -0.966   1.032  0.00  0.00    +0.010 C 
ATOM     25  C   LIG    1        2.265  -0.752   1.782  0.00  0.00    +0.020 C 
ENDBRANCH  17  19
ENDBRANCH  14  16
ENDBRANCH  13  14
ENDBRANCH   1  13
BRANCH   5  26
ATOM     26  C   LIG    1        5.198   6.071   7.977  0.00  0.00    +0.360 C 
BRANCH  26  27
ATOM     27  C   LIG    1        4.032   6.017   8.930  0.00  0.00    -0.120 A 
ATOM     28  C   LIG    1        2.769   5.708   8.460  0.00  0.00    +0.040 A 
ATOM     29  C   LIG    1        1.700   5.654   9.335  0.00  0.00    +0.010 A 
ATOM     30  C   LIG    1        1.892   5.918  10.678  0.00  0.00    +0.030 A 
ATOM     31  C   LIG    1        3.154   6.231  11.147  0.00  0.00    +0.010 A 
ATOM     32  C   LIG    1        4.224   6.281  10.273  0.00  0.00    +0.030 A 
ENDBRANCH  26  27
ENDBRANCH   5  26
TORSDOF 7
