REMARK  Name = ZINCrH00000mnnvX.0
REMARK                            x       y       z     vdW  Elec       q    Type
REMARK                         _______ _______ _______ _____ _____    ______ ____
ROOT
ATOM      1  C   LIG    1       -4.099  -5.034   0.016  0.00  0.00    -0.300 C 
ATOM      2  C   LIG    1       -4.803  -4.383   1.208  0.00  0.00    +0.130 C 
ENDROOT
BRANCH   1   6
ATOM      3  C   LIG    1       -4.727  -8.571  -0.121  0.00  0.00    +0.220 A 
ATOM      4  N   LIG    1       -3.814  -8.473   0.810  0.00  0.00    -0.360 NA
ATOM      5  O   LIG    1       -3.496  -7.313   0.962  0.00  0.00    +0.100 OA
ATOM      6  C   LIG    1       -4.197  -6.534   0.133  0.00  0.00    +0.180 A 
ATOM      7  N   LIG    1       -4.981  -7.319  -0.564  0.00  0.00    -0.440 NA
BRANCH   3  12
ATOM      8  C   LIG    1       -7.215 -13.422  -1.983  0.00  0.00    +0.110 C 
ATOM      9  C   LIG    1       -6.564 -12.153  -1.495  0.00  0.00    -0.090 A 
ATOM     10  C   LIG    1       -6.926 -10.938  -2.045  0.00  0.00    +0.050 A 
ATOM     11  C   LIG    1       -6.336  -9.772  -1.599  0.00  0.00    +0.060 A 
ATOM     12  C   LIG    1       -5.367  -9.821  -0.600  0.00  0.00    -0.010 A 
ATOM     13  C   LIG    1       -5.005 -11.048  -0.047  0.00  0.00    +0.040 A 
ATOM     14  C   LIG    1       -5.604 -12.209  -0.497  0.00  0.00    +0.100 A 
ATOM     15  F   LIG    1       -5.255 -13.400   0.037  0.00  0.00    -0.130 F 
ENDBRANCH   3  12
ENDBRANCH   1   6
BRANCH   1  16
ATOM     16  S   LIG    1       -2.353  -4.542   0.001  0.00  0.00    +2.420 S 
ATOM     17  O   LIG    1       -1.754  -4.963   1.219  0.00  0.00    -0.900 OA
ATOM     18  O   LIG    1       -1.778  -4.949  -1.233  0.00  0.00    -0.910 OA
BRANCH  16  19
ATOM     19  C   LIG    1       -2.474  -2.732   0.012  0.00  0.00    -0.320 C 
BRANCH  19  20
ATOM     20  C   LIG    1       -1.069  -2.126   0.001  0.00  0.00    +0.230 C 
BRANCH  20  21
ATOM     21  O   LIG    1       -1.165  -0.701   0.010  0.00  0.00    -0.300 OA
BRANCH  21  22
ATOM     22  C   LIG    1        0.002  -0.004   0.002  0.00  0.00    +0.120 A 
ATOM     23  C   LIG    1       -0.017   1.383   0.010  0.00  0.00    -0.020 A 
ATOM     24  C   LIG    1        1.171   2.089   0.002  0.00  0.00    +0.050 A 
ATOM     25  C   LIG    1        2.377   1.414  -0.013  0.00  0.00    -0.020 A 
ATOM     26  C   LIG    1        2.399   0.031  -0.021  0.00  0.00    +0.050 A 
ATOM     27  C   LIG    1        1.214  -0.679  -0.013  0.00  0.00    -0.080 A 
ENDBRANCH  21  22
ENDBRANCH  20  21
ENDBRANCH  19  20
ENDBRANCH  16  19
ENDBRANCH   1  16
TORSDOF 7
