REMARK  Name = ZINCpk00000l58V5.0
REMARK                            x       y       z     vdW  Elec       q    Type
REMARK                         _______ _______ _______ _____ _____    ______ ____
ROOT
ATOM      1  C   LIG    1        0.002  -0.004   0.002  0.00  0.00    +0.230 C 
ATOM      2  C   LIG    1       -1.306  -0.529  -0.594  0.00  0.00    +0.020 C 
ATOM      3  C   LIG    1       -1.272  -2.059  -0.633  0.00  0.00    +0.030 C 
ATOM      4  C   LIG    1       -1.141  -2.599   0.794  0.00  0.00    +0.260 C 
ATOM      5  N   LIG    1        0.036  -1.986   1.425  0.00  0.00    -0.610 N 
ATOM      6  C   LIG    1        0.995  -2.753   1.982  0.00  0.00    +0.520 C 
ATOM      7  O   LIG    1        1.961  -2.235   2.499  0.00  0.00    -0.530 OA
ATOM      8  C   LIG    1        0.149  -0.521   1.437  0.00  0.00    +0.270 C 
ENDROOT
BRANCH   1  11
ATOM      9  O   LIG    1        2.202   1.556  -0.011  0.00  0.00    -0.510 OA
ATOM     10  C   LIG    1        1.140   2.151   0.003  0.00  0.00    +0.600 C 
ATOM     11  N   LIG    1       -0.018   1.461   0.010  0.00  0.00    -0.730 N 
ATOM     12  H   LIG    1       -0.864   1.934   0.017  0.00  0.00    +0.400 HD
BRANCH  10  13
ATOM     13  C   LIG    1        1.120   3.618   0.011  0.00  0.00    -0.100 A 
ATOM     14  C   LIG    1        2.203   4.452   0.011  0.00  0.00    +0.270 A 
ATOM     15  N   LIG    1        1.750   5.706   0.017  0.00  0.00    -0.500 NA
ATOM     16  C   LIG    1        0.442   5.703   0.029  0.00  0.00    +0.440 A 
ATOM     17  N   LIG    1        0.004   4.431   0.026  0.00  0.00    -0.560 N 
ATOM     18  H   LIG    1       -0.922   4.140   0.033  0.00  0.00    +0.420 HD
ENDBRANCH  10  13
ENDBRANCH   1  11
BRANCH   6  19
ATOM     19  C   LIG    1        0.865  -4.254   1.962  0.00  0.00    +0.070 C 
BRANCH  19  20
ATOM     20  C   LIG    1        2.077  -4.880   2.654  0.00  0.00    +0.090 C 
BRANCH  20  21
ATOM     21  C   LIG    1        1.947  -6.381   2.634  0.00  0.00    -0.070 A 
ATOM     22  C   LIG    1        2.468  -7.106   1.578  0.00  0.00    +0.010 A 
ATOM     23  C   LIG    1        2.351  -8.483   1.557  0.00  0.00    +0.030 A 
ATOM     24  C   LIG    1        1.713  -9.139   2.592  0.00  0.00    -0.020 A 
ATOM     25  C   LIG    1        1.190  -8.415   3.653  0.00  0.00    +0.110 A 
ATOM     26  C   LIG    1        1.313  -7.033   3.675  0.00  0.00    -0.010 A 
BRANCH  25  27
ATOM     27  O   LIG    1        0.562  -9.058   4.672  0.00  0.00    -0.500 OA
ATOM     28  H   LIG    1        1.150  -9.316   5.396  0.00  0.00    +0.390 HD
ENDBRANCH  25  27
ENDBRANCH  20  21
ENDBRANCH  19  20
ENDBRANCH   6  19
TORSDOF 6
