REMARK  Name = ZINCpk00000KfLi3.0
REMARK                            x       y       z     vdW  Elec       q    Type
REMARK                         _______ _______ _______ _____ _____    ______ ____
ROOT
ATOM      1  N   LIG    1       -0.783   3.048   1.252  0.00  0.00    -0.530 NA
ATOM      2  C   LIG    1       -0.730   1.580   1.267  0.00  0.00    +0.180 C 
ATOM      3  C   LIG    1       -0.013   1.086   0.008  0.00  0.00    +0.190 C 
ATOM      4  N   LIG    1       -0.724   1.573  -1.182  0.00  0.00    -0.500 N 
ATOM      5  C   LIG    1       -0.777   3.042  -1.196  0.00  0.00    +0.200 C 
ATOM      6  C   LIG    1       -1.495   3.536   0.062  0.00  0.00    +0.200 C 
ENDROOT
BRANCH   4   7
ATOM      7  C   LIG    1       -0.140   1.083  -2.348  0.00  0.00    +0.080 A 
ATOM      8  C   LIG    1        1.188   1.377  -2.635  0.00  0.00    +0.020 A 
ATOM      9  C   LIG    1        1.769   0.894  -3.787  0.00  0.00    +0.070 A 
ATOM     10  C   LIG    1        1.022   0.109  -4.669  0.00  0.00    +0.000 A 
ATOM     11  C   LIG    1       -0.314  -0.185  -4.379  0.00  0.00    +0.050 A 
ATOM     12  C   LIG    1       -0.888   0.296  -3.222  0.00  0.00    +0.130 A 
ATOM     13  F   LIG    1       -2.177   0.008  -2.938  0.00  0.00    -0.120 F 
BRANCH  10  14
ATOM     14  C   LIG    1        1.624  -0.394  -5.867  0.00  0.00    +0.250 C 
ATOM     15  N   LIG    1        2.101  -0.793  -6.818  0.00  0.00    -0.400 NA
ENDBRANCH  10  14
ENDBRANCH   4   7
BRANCH   1  16
ATOM     16  C   LIG    1       -1.399   3.565   2.482  0.00  0.00    +0.250 C 
BRANCH  16  22
ATOM     17  C   LIG    1       -1.379   1.693   4.168  0.00  0.00    +0.390 A 
ATOM     18  N   LIG    1       -0.824   1.096   5.220  0.00  0.00    -0.610 NA
ATOM     19  C   LIG    1        0.247   1.602   5.798  0.00  0.00    +0.580 A 
ATOM     20  N   LIG    1        0.815   2.708   5.364  0.00  0.00    -0.600 NA
ATOM     21  C   LIG    1        0.323   3.361   4.314  0.00  0.00    +0.480 A 
ATOM     22  C   LIG    1       -0.807   2.859   3.675  0.00  0.00    -0.290 A 
BRANCH  21  23
ATOM     23  N   LIG    1        0.927   4.525   3.863  0.00  0.00    -0.830 N 
ATOM     24  H   LIG    1        1.714   4.869   4.314  0.00  0.00    +0.410 HD
ATOM     25  H   LIG    1        0.562   4.996   3.098  0.00  0.00    +0.410 HD
ENDBRANCH  21  23
BRANCH  17  27
ATOM     26  C   LIG    1       -3.009  -0.033   4.152  0.00  0.00    +0.260 C 
ATOM     27  O   LIG    1       -2.483   1.168   3.584  0.00  0.00    -0.300 OA
ENDBRANCH  17  27
ENDBRANCH  16  22
ENDBRANCH   1  16
TORSDOF 6
