REMARK  Name = ZINCrg00000zUNBq.0
REMARK                            x       y       z     vdW  Elec       q    Type
REMARK                         _______ _______ _______ _____ _____    ______ ____
ROOT
ATOM      1  N   LIG    1       -2.629   4.186   2.085  0.00  0.00    -0.450 N 
ATOM      2  C   LIG    1       -3.670   3.657   2.788  0.00  0.00    +0.480 A 
ATOM      3  N   LIG    1       -3.608   4.041   4.030  0.00  0.00    -0.450 NA
ATOM      4  C   LIG    1       -2.526   4.838   4.202  0.00  0.00    -0.060 A 
ATOM      5  C   LIG    1       -1.968   5.525   5.294  0.00  0.00    +0.430 A 
ATOM      6  N   LIG    1       -0.863   6.237   5.097  0.00  0.00    -0.570 NA
ATOM      7  C   LIG    1       -0.296   6.303   3.906  0.00  0.00    +0.540 A 
ATOM      8  N   LIG    1       -0.783   5.676   2.856  0.00  0.00    -0.540 NA
ATOM      9  C   LIG    1       -1.882   4.936   2.958  0.00  0.00    +0.300 A 
ENDROOT
BRANCH   5  10
ATOM     10  N   LIG    1       -2.555   5.461   6.545  0.00  0.00    -0.450 N 
ATOM     11  C   LIG    1       -2.694   4.068   6.992  0.00  0.00    +0.240 C 
BRANCH  10  12
ATOM     12  C   LIG    1       -1.798   6.254   7.523  0.00  0.00    +0.210 C 
BRANCH  12  13
ATOM     13  C   LIG    1       -2.668   6.508   8.756  0.00  0.00    +0.180 C 
ATOM     14  C   LIG    1       -3.979   7.170   8.328  0.00  0.00    +0.080 C 
BRANCH  13  15
ATOM     15  C   LIG    1       -1.935   7.417   9.709  0.00  0.00    -0.120 A 
ATOM     16  C   LIG    1       -1.033   8.346   9.223  0.00  0.00    +0.020 A 
ATOM     17  C   LIG    1       -0.363   9.182  10.097  0.00  0.00    +0.000 A 
ATOM     18  C   LIG    1       -0.589   9.084  11.457  0.00  0.00    +0.000 A 
ATOM     19  C   LIG    1       -1.487   8.152  11.943  0.00  0.00    +0.000 A 
ATOM     20  C   LIG    1       -2.159   7.319  11.069  0.00  0.00    +0.030 A 
ENDBRANCH  13  15
BRANCH  13  21
ATOM     21  O   LIG    1       -2.949   5.266   9.405  0.00  0.00    -0.550 OA
ATOM     22  H   LIG    1       -2.162   4.791   9.703  0.00  0.00    +0.380 HD
ENDBRANCH  13  21
ENDBRANCH  12  13
ENDBRANCH  10  12
ENDBRANCH   5  10
BRANCH   1  23
ATOM     23  C   LIG    1       -2.354   3.984   0.660  0.00  0.00    +0.230 C 
BRANCH  23  25
ATOM     24  C   LIG    1       -1.862   2.282  -1.102  0.00  0.00    +0.030 C 
ATOM     25  C   LIG    1       -2.149   2.493   0.386  0.00  0.00    +0.210 C 
BRANCH  25  26
ATOM     26  O   LIG    1       -1.044   2.015   1.157  0.00  0.00    -0.550 OA
ATOM     27  H   LIG    1       -0.207   2.458   0.962  0.00  0.00    +0.380 HD
ENDBRANCH  25  26
ENDBRANCH  23  25
BRANCH  23  28
ATOM     28  C   LIG    1       -3.536   4.496  -0.165  0.00  0.00    +0.200 C 
BRANCH  28  29
ATOM     29  O   LIG    1       -3.656   5.910   0.001  0.00  0.00    -0.560 OA
ATOM     30  H   LIG    1       -4.387   6.304  -0.495  0.00  0.00    +0.390 HD
ENDBRANCH  28  29
ENDBRANCH  23  28
ENDBRANCH   1  23
TORSDOF 10
