REMARK  Name = ZINCvU0000000Ekc.0
REMARK                            x       y       z     vdW  Elec       q    Type
REMARK                         _______ _______ _______ _____ _____    ______ ____
ROOT
ATOM      1  C   LIG    1       -5.942   0.541   1.717  0.00  0.00    +0.400 A 
ATOM      2  C   LIG    1       -6.937   0.428   0.708  0.00  0.00    -0.150 A 
ATOM      3  C   LIG    1       -8.095  -0.289   1.012  0.00  0.00    +0.090 A 
ATOM      4  S   LIG    1       -9.167  -0.293  -0.378  0.00  0.00    +0.170 S 
ATOM      5  C   LIG    1       -8.049   0.661  -1.339  0.00  0.00    -0.170 A 
ATOM      6  C   LIG    1       -8.306   1.094  -2.772  0.00  0.00    +0.120 C 
ATOM      7  C   LIG    1       -7.341   2.228  -3.125  0.00  0.00    +0.020 C 
ATOM      8  C   LIG    1       -5.918   1.808  -2.744  0.00  0.00    +0.020 C 
ATOM      9  C   LIG    1       -5.796   1.780  -1.220  0.00  0.00    +0.120 C 
ATOM     10  N   LIG    1       -8.226  -0.835   2.226  0.00  0.00    -0.480 NA
ATOM     11  C   LIG    1       -7.274  -0.704   3.137  0.00  0.00    +0.370 A 
ATOM     12  C   LIG    1       -6.946   0.959  -0.649  0.00  0.00    -0.050 A 
ATOM     13  N   LIG    1       -6.149  -0.034   2.889  0.00  0.00    -0.540 NA
ENDROOT
BRANCH   1  19
ATOM     14  C   LIG    1        0.068   1.821   2.504  0.00  0.00    +0.090 C 
ATOM     15  C   LIG    1       -1.136   2.727   2.550  0.00  0.00    +0.510 C 
ATOM     16  N   LIG    1       -2.267   2.379   1.905  0.00  0.00    -0.620 N 
ATOM     17  C   LIG    1       -2.346   1.122   1.145  0.00  0.00    +0.290 C 
ATOM     18  C   LIG    1       -3.601   0.361   1.601  0.00  0.00    +0.190 C 
ATOM     19  N   LIG    1       -4.772   1.238   1.474  0.00  0.00    -0.480 N 
ATOM     20  C   LIG    1       -4.662   2.406   2.357  0.00  0.00    +0.200 C 
ATOM     21  C   LIG    1       -3.453   3.248   1.937  0.00  0.00    +0.300 C 
ATOM     22  O   LIG    1       -1.087   3.770   3.168  0.00  0.00    -0.540 OA
ENDBRANCH   1  19
BRANCH  11  23
ATOM     23  C   LIG    1       -7.461  -1.321   4.460  0.00  0.00    +0.040 C 
ATOM     24  C   LIG    1       -8.586  -2.006   4.729  0.00  0.00    +0.100 C 
BRANCH  24  25
ATOM     25  C   LIG    1       -8.773  -2.624   6.053  0.00  0.00    -0.050 A 
ATOM     26  C   LIG    1       -7.780  -2.505   7.030  0.00  0.00    +0.040 A 
ATOM     27  C   LIG    1       -7.965  -3.082   8.269  0.00  0.00    +0.050 A 
ATOM     28  C   LIG    1       -9.125  -3.786   8.543  0.00  0.00    -0.080 A 
ATOM     29  C   LIG    1      -10.110  -3.912   7.578  0.00  0.00    +0.050 A 
ATOM     30 BR   LIG    1       -9.365  -4.579  10.242  0.00  0.00    -0.050 Br
ATOM     31  C   LIG    1       -9.942  -3.336   6.336  0.00  0.00    +0.050 A 
ENDBRANCH  24  25
ENDBRANCH  11  23
TORSDOF 3
