REMARK  Name = ZINCrD0000075nrX.0
REMARK                            x       y       z     vdW  Elec       q    Type
REMARK                         _______ _______ _______ _____ _____    ______ ____
ROOT
ATOM      1  C   LIG    1        6.806   4.005  -0.820  0.00  0.00    +0.520 C 
ATOM      2  N   LIG    1        7.465   4.596  -1.836  0.00  0.00    -0.610 N 
ATOM      3  C   LIG    1        6.965   4.506  -3.216  0.00  0.00    +0.300 C 
ATOM      4  C   LIG    1        6.581   5.908  -3.703  0.00  0.00    +0.100 C 
ATOM      5  C   LIG    1        7.680   6.875  -3.332  0.00  0.00    +0.080 A 
ATOM      6  C   LIG    1        8.620   6.630  -2.394  0.00  0.00    -0.180 A 
ATOM      7  C   LIG    1        9.479   7.793  -2.332  0.00  0.00    -0.090 A 
ATOM      8  C   LIG    1       10.600   8.106  -1.558  0.00  0.00    +0.060 A 
ATOM      9  C   LIG    1       11.179   9.333  -1.770  0.00  0.00    -0.030 A 
ATOM     10  C   LIG    1       10.685  10.227  -2.705  0.00  0.00    +0.020 A 
ATOM     11  C   LIG    1        9.577   9.944  -3.485  0.00  0.00    +0.000 A 
ATOM     12  C   LIG    1        8.969   8.706  -3.292  0.00  0.00    +0.100 A 
ATOM     13  N   LIG    1        7.885   8.117  -3.876  0.00  0.00    -0.580 N 
ATOM     14  H   LIG    1        7.341   8.518  -4.572  0.00  0.00    +0.420 HD
ATOM     15  C   LIG    1        8.703   5.357  -1.594  0.00  0.00    +0.370 C 
ATOM     16  O   LIG    1        7.233   4.090   0.312  0.00  0.00    -0.510 OA
ENDROOT
BRANCH   1  17
ATOM     17  C   LIG    1        5.537   3.237  -1.090  0.00  0.00    +0.250 C 
BRANCH  17  18
ATOM     18  O   LIG    1        5.022   2.699   0.156  0.00  0.00    -0.330 OA
BRANCH  18  20
ATOM     19  O   LIG    1        3.337   1.808  -0.983  0.00  0.00    -0.500 OA
ATOM     20  C   LIG    1        3.884   1.980   0.088  0.00  0.00    +0.500 C 
BRANCH  20  21
ATOM     21  C   LIG    1        3.304   1.405   1.310  0.00  0.00    -0.060 C 
ATOM     22  C   LIG    1        2.119   0.800   1.264  0.00  0.00    +0.050 C 
BRANCH  22  23
ATOM     23  C   LIG    1        1.603   0.062   2.471  0.00  0.00    -0.020 C 
ATOM     24  C   LIG    1        0.260  -0.658   2.338  0.00  0.00    +0.040 C 
ATOM     25  C   LIG    1        0.361   0.625   3.165  0.00  0.00    +0.030 C 
ENDBRANCH  22  23
BRANCH  22  26
ATOM     26  C   LIG    1        1.295   0.854   0.003  0.00  0.00    +0.000 C 
ATOM     27  C   LIG    1        0.887   2.234  -0.515  0.00  0.00    +0.050 C 
ATOM     28  C   LIG    1       -0.157   1.320   0.128  0.00  0.00    +0.010 C 
ENDBRANCH  22  26
ENDBRANCH  20  21
ENDBRANCH  18  20
ENDBRANCH  17  18
ENDBRANCH   1  17
TORSDOF 6
