REMARK  Name = ZINCtV00000L6jPN.0
REMARK                            x       y       z     vdW  Elec       q    Type
REMARK                         _______ _______ _______ _____ _____    ______ ____
ROOT
ATOM      1  C   LIG    1        4.444   5.831   1.067  0.00  0.00    +0.070 C 
ATOM      2  C   LIG    1        3.627   6.002  -0.216  0.00  0.00    +0.190 C 
ENDROOT
BRANCH   2   3
ATOM      3  C   LIG    1        2.335   5.236  -0.094  0.00  0.00    +0.520 C 
ATOM      4  N   LIG    1        2.355   3.891   0.001  0.00  0.00    -0.670 N 
ATOM      5  H   LIG    1        3.202   3.422   0.056  0.00  0.00    +0.420 HD
ATOM      6  O   LIG    1        1.277   5.829  -0.082  0.00  0.00    -0.490 OA
BRANCH   4   7
ATOM      7  C   LIG    1        1.154   3.173   0.019  0.00  0.00    +0.160 A 
ATOM      8  C   LIG    1        0.033   3.709   0.637  0.00  0.00    +0.100 A 
ATOM      9  C   LIG    1       -1.151   2.997   0.653  0.00  0.00    -0.160 A 
ATOM     10  C   LIG    1       -1.222   1.754   0.051  0.00  0.00    +0.080 A 
ATOM     11  C   LIG    1       -0.105   1.215  -0.561  0.00  0.00    +0.060 A 
ATOM     12  C   LIG    1        1.082   1.921  -0.582  0.00  0.00    -0.030 A 
ATOM     13 CL   LIG    1        2.482   1.246  -1.355  0.00  0.00    -0.040 Cl
BRANCH   9  14
ATOM     14  C   LIG    1       -2.369   3.578   1.325  0.00  0.00    +0.510 C 
ATOM     15  F   LIG    1       -1.970   4.408   2.378  0.00  0.00    -0.170 F 
ATOM     16  F   LIG    1       -3.166   2.542   1.823  0.00  0.00    -0.170 F 
ATOM     17  F   LIG    1       -3.102   4.324   0.396  0.00  0.00    -0.170 F 
ENDBRANCH   9  14
ENDBRANCH   4   7
ENDBRANCH   2   3
BRANCH   2  18
ATOM     18  O   LIG    1        3.337   7.410  -0.421  0.00  0.00    -0.330 OA
BRANCH  18  19
ATOM     19  C   LIG    1        4.227   8.117  -1.135  0.00  0.00    +0.470 C 
ATOM     20  O   LIG    1        5.215   7.578  -1.574  0.00  0.00    -0.500 OA
BRANCH  19  21
ATOM     21  C   LIG    1        3.993   9.584  -1.389  0.00  0.00    +0.030 C 
ATOM     22  C   LIG    1        2.679   9.767  -2.150  0.00  0.00    +0.050 C 
ATOM     23  C   LIG    1        2.755   9.024  -3.486  0.00  0.00    +0.010 C 
ATOM     24  C   LIG    1        3.909   9.587  -4.318  0.00  0.00    -0.010 C 
ATOM     25  C   LIG    1        5.223   9.405  -3.557  0.00  0.00    +0.030 C 
ATOM     26  C   LIG    1        5.147  10.148  -2.221  0.00  0.00    +0.050 C 
BRANCH  24  27
ATOM     27  C   LIG    1        3.985   8.844  -5.653  0.00  0.00    -0.060 C 
ATOM     28  C   LIG    1        5.139   9.408  -6.485  0.00  0.00    +0.020 C 
ATOM     29  C   LIG    1        2.670   9.027  -6.414  0.00  0.00    +0.020 C 
ATOM     30  C   LIG    1        4.222   7.355  -5.395  0.00  0.00    +0.010 C 
ENDBRANCH  24  27
ENDBRANCH  19  21
ENDBRANCH  18  19
ENDBRANCH   2  18
TORSDOF 7
