REMARK  Name = ZINCvU00000008g3.0
REMARK                            x       y       z     vdW  Elec       q    Type
REMARK                         _______ _______ _______ _____ _____    ______ ____
ROOT
ATOM      1  C   LIG    1       -1.227   1.831   0.731  0.00  0.00    +0.250 A 
ATOM      2  C   LIG    1       -0.013   1.153   0.867  0.00  0.00    +0.030 A 
ATOM      3  C   LIG    1        1.177   1.852   0.686  0.00  0.00    +0.010 A 
ATOM      4  C   LIG    1        1.096   3.226   0.379  0.00  0.00    -0.210 A 
ATOM      5  C   LIG    1        2.088   4.269   0.124  0.00  0.00    +0.150 A 
ATOM      6  N   LIG    1        1.441   5.370  -0.112  0.00  0.00    -0.270 NA
ATOM      7  O   LIG    1        0.050   5.133  -0.032  0.00  0.00    -0.080 OA
ATOM      8  C   LIG    1        3.585   4.098   0.135  0.00  0.00    +0.210 C 
ATOM      9  C   LIG    1       -0.167   3.835   0.265  0.00  0.00    +0.310 A 
ATOM     10  N   LIG    1       -1.267   3.124   0.447  0.00  0.00    -0.460 NA
ENDROOT
BRANCH   1  15
ATOM     11  C   LIG    1       -6.160  -1.051   1.448  0.00  0.00    +0.100 C 
ATOM     12  C   LIG    1       -4.869  -0.297   1.260  0.00  0.00    -0.060 A 
ATOM     13  C   LIG    1       -4.897   1.053   0.957  0.00  0.00    +0.000 A 
ATOM     14  C   LIG    1       -3.718   1.749   0.785  0.00  0.00    +0.080 A 
ATOM     15  C   LIG    1       -2.497   1.089   0.916  0.00  0.00    -0.080 A 
ATOM     16  C   LIG    1       -2.475  -0.272   1.216  0.00  0.00    +0.050 A 
ATOM     17  C   LIG    1       -3.660  -0.957   1.391  0.00  0.00    +0.000 A 
ENDBRANCH   1  15
BRANCH   3  18
ATOM     18  C   LIG    1        2.486   1.176   0.815  0.00  0.00    +0.510 C 
ATOM     19  O   LIG    1        3.506   1.767   0.524  0.00  0.00    -0.470 OA
BRANCH  18  20
ATOM     20  O   LIG    1        2.547  -0.096   1.254  0.00  0.00    -0.340 OA
BRANCH  20  21
ATOM     21  C   LIG    1        3.865  -0.697   1.355  0.00  0.00    +0.350 C 
BRANCH  21  22
ATOM     22  C   LIG    1        3.736  -2.111   1.859  0.00  0.00    +0.020 A 
ATOM     23  N   LIG    1        4.707  -2.953   2.074  0.00  0.00    -0.340 NA
ATOM     24  O   LIG    1        4.303  -4.018   2.479  0.00  0.00    +0.130 OA
ATOM     25  C   LIG    1        2.962  -4.023   2.592  0.00  0.00    +0.050 A 
ATOM     26  C   LIG    1        2.542  -2.777   2.196  0.00  0.00    -0.010 A 
BRANCH  25  27
ATOM     27  C   LIG    1        2.118  -5.136   3.050  0.00  0.00    +0.030 A 
ATOM     28  C   LIG    1        2.557  -6.365   3.444  0.00  0.00    +0.010 A 
ATOM     29  C   LIG    1        1.416  -7.109   3.798  0.00  0.00    -0.050 A 
ATOM     30  C   LIG    1        0.347  -6.309   3.606  0.00  0.00    +0.210 A 
ATOM     31  O   LIG    1        0.774  -5.117   3.160  0.00  0.00    -0.160 OA
ENDBRANCH  25  27
ENDBRANCH  21  22
ENDBRANCH  20  21
ENDBRANCH  18  20
ENDBRANCH   3  18
TORSDOF 6
