REMARK  Name = ZINCnE000004tuto.1
REMARK                            x       y       z     vdW  Elec       q    Type
REMARK                         _______ _______ _______ _____ _____    ______ ____
ROOT
ATOM      1  N   LIG    1       -1.789  -1.446  -1.395  0.00  0.00    -0.610 N 
ATOM      2  C   LIG    1       -1.437  -2.429  -2.247  0.00  0.00    +0.570 C 
ATOM      3  O   LIG    1       -0.393  -3.031  -2.083  0.00  0.00    -0.540 OA
ENDROOT
BRANCH   2   4
ATOM      4  C   LIG    1       -2.319  -2.777  -3.378  0.00  0.00    -0.060 A 
ATOM      5  C   LIG    1       -2.663  -4.117  -3.611  0.00  0.00    -0.120 A 
ATOM      6  C   LIG    1       -3.484  -4.442  -4.665  0.00  0.00    +0.300 A 
ATOM      7  C   LIG    1       -3.985  -3.440  -5.513  0.00  0.00    -0.230 A 
ATOM      8  S   LIG    1       -5.038  -3.558  -6.917  0.00  0.00    +0.060 S 
ATOM      9  C   LIG    1       -5.006  -1.825  -7.173  0.00  0.00    -0.060 A 
ATOM     10  C   LIG    1       -4.262  -1.219  -6.271  0.00  0.00    +0.000 A 
ATOM     11  C   LIG    1       -3.648  -2.101  -5.290  0.00  0.00    -0.040 A 
ATOM     12  O   LIG    1       -3.814  -5.742  -4.888  0.00  0.00    -0.710 OA
ATOM     13  C   LIG    1       -2.811  -1.778  -4.204  0.00  0.00    -0.100 A 
ENDBRANCH   2   4
BRANCH   1  14
ATOM     14  C   LIG    1       -2.981  -0.637  -1.663  0.00  0.00    +0.270 C 
ATOM     15  C   LIG    1       -2.569   0.669  -2.345  0.00  0.00    -0.000 C 
ENDBRANCH   1  14
BRANCH   1  16
ATOM     16  C   LIG    1       -0.980  -1.185  -0.202  0.00  0.00    +0.360 C 
BRANCH  16  19
ATOM     17  N   LIG    1        1.145   1.716  -0.810  0.00  0.00    -0.380 N 
ATOM     18  C   LIG    1       -0.026   1.170  -0.421  0.00  0.00    +0.230 A 
ATOM     19  C   LIG    1        0.089  -0.174  -0.531  0.00  0.00    -0.250 A 
ATOM     20  C   LIG    1        1.374  -0.459  -1.004  0.00  0.00    +0.250 A 
ATOM     21  N   LIG    1        2.008   0.673  -1.171  0.00  0.00    -0.300 NA
BRANCH  17  23
ATOM     22  C   LIG    1        2.723   3.413  -0.029  0.00  0.00    +0.040 C 
ATOM     23  C   LIG    1        1.459   3.146  -0.848  0.00  0.00    +0.300 C 
ENDBRANCH  17  23
ENDBRANCH  16  19
ENDBRANCH   1  16
TORSDOF 5
