REMARK  Name = ZINCqH0000008qsn.0
REMARK                            x       y       z     vdW  Elec       q    Type
REMARK                         _______ _______ _______ _____ _____    ______ ____
ROOT
ATOM      1  C   LIG    1        1.185   2.086   0.002  0.00  0.00    -0.130 A 
ATOM      2  C   LIG    1        2.397   1.396  -0.014  0.00  0.00    +0.060 A 
ATOM      3  C   LIG    1        2.402   0.016  -0.021  0.00  0.00    +0.020 A 
ATOM      4  C   LIG    1        1.208  -0.683  -0.013  0.00  0.00    +0.070 A 
ATOM      5  C   LIG    1        0.002  -0.004   0.002  0.00  0.00    -0.110 A 
ATOM      6  C   LIG    1       -0.017   1.375   0.010  0.00  0.00    +0.110 A 
ENDROOT
BRANCH   1   9
ATOM      7  N   LIG    1        2.333   4.249   0.003  0.00  0.00    -0.720 N 
ATOM      8  H   LIG    1        3.178   3.771  -0.008  0.00  0.00    +0.410 HD
ATOM      9  C   LIG    1        1.172   3.565   0.011  0.00  0.00    +0.560 C 
ATOM     10  O   LIG    1        0.114   4.164   0.024  0.00  0.00    -0.530 OA
BRANCH   7  12
ATOM     11  C   LIG    1        2.177   6.231  -1.421  0.00  0.00    +0.030 C 
ATOM     12  C   LIG    1        2.321   5.713   0.012  0.00  0.00    +0.350 C 
BRANCH  12  13
ATOM     13  C   LIG    1        3.610   6.223   0.602  0.00  0.00    -0.030 A 
ATOM     14  C   LIG    1        3.733   7.273   1.434  0.00  0.00    -0.040 A 
ATOM     15  C   LIG    1        5.108   7.394   1.740  0.00  0.00    -0.060 A 
ATOM     16  C   LIG    1        5.744   6.416   1.071  0.00  0.00    +0.180 A 
ATOM     17  O   LIG    1        4.832   5.710   0.383  0.00  0.00    -0.180 OA
ENDBRANCH  12  13
ENDBRANCH   7  12
ENDBRANCH   1   9
BRANCH   5  18
ATOM     18  C   LIG    1       -1.294  -0.774   0.010  0.00  0.00    -0.260 C 
BRANCH  18  19
ATOM     19  S   LIG    1       -1.829  -1.073  -1.697  0.00  0.00    +2.490 S 
ATOM     20  O   LIG    1       -0.949  -1.982  -2.344  0.00  0.00    -0.930 OA
ATOM     21  O   LIG    1       -2.212   0.145  -2.321  0.00  0.00    -0.920 OA
BRANCH  19  22
ATOM     22  C   LIG    1       -3.337  -1.970  -1.534  0.00  0.00    -0.660 A 
ATOM     23  C   LIG    1       -3.317  -3.352  -1.487  0.00  0.00    +0.110 A 
ATOM     24  C   LIG    1       -4.500  -4.055  -1.354  0.00  0.00    -0.010 A 
ATOM     25  C   LIG    1       -5.703  -3.378  -1.279  0.00  0.00    +0.070 A 
ATOM     26  C   LIG    1       -5.722  -1.997  -1.331  0.00  0.00    -0.010 A 
ATOM     27  C   LIG    1       -4.540  -1.293  -1.459  0.00  0.00    +0.120 A 
ENDBRANCH  19  22
ENDBRANCH  18  19
ENDBRANCH   5  18
TORSDOF 6
