REMARK  Name = ZINCrg000000sec0.0
REMARK                            x       y       z     vdW  Elec       q    Type
REMARK                         _______ _______ _______ _____ _____    ______ ____
ROOT
ATOM      1  N   LIG    1       -1.198  -0.721   0.010  0.00  0.00    -0.650 N 
ATOM      2  H   LIG    1       -1.186  -1.688  -0.061  0.00  0.00    +0.430 HD
ATOM      3  C   LIG    1       -2.372  -0.069   0.127  0.00  0.00    +0.580 C 
ATOM      4  O   LIG    1       -2.394   1.147   0.134  0.00  0.00    -0.490 OA
ENDROOT
BRANCH   1  11
ATOM      5  C   LIG    1        1.091  -1.898   1.225  0.00  0.00    +0.120 C 
ATOM      6  C   LIG    1        1.143  -0.540   0.573  0.00  0.00    -0.050 A 
ATOM      7  C   LIG    1        2.326   0.171   0.553  0.00  0.00    +0.060 A 
ATOM      8  C   LIG    1        2.376   1.417  -0.045  0.00  0.00    +0.100 A 
ATOM      9  C   LIG    1        1.241   1.955  -0.624  0.00  0.00    -0.030 A 
ATOM     10  C   LIG    1        0.054   1.248  -0.608  0.00  0.00    +0.110 A 
ATOM     11  C   LIG    1        0.002  -0.003  -0.009  0.00  0.00    +0.140 A 
BRANCH   9  12
ATOM     12  N   LIG    1        1.298   3.289  -1.263  0.00  0.00    +0.030 N 
ATOM     13  O   LIG    1        2.344   3.913  -1.278  0.00  0.00    -0.160 OA
ATOM     14  O   LIG    1        0.299   3.763  -1.774  0.00  0.00    -0.150 OA
ENDBRANCH   9  12
ENDBRANCH   1  11
BRANCH   3  15
ATOM     15  C   LIG    1       -3.623  -0.826   0.246  0.00  0.00    +0.090 C 
ATOM     16  N   LIG    1       -3.589  -2.123   0.237  0.00  0.00    -0.200 NA
ATOM     17  N   LIG    1       -4.762  -2.877   0.346  0.00  0.00    -0.440 N 
ATOM     18  C   LIG    1       -5.959  -2.320   0.079  0.00  0.00    +0.500 C 
ATOM     19  C   LIG    1       -6.034  -0.871  -0.333  0.00  0.00    +0.100 C 
ATOM     20  O   LIG    1       -6.972  -2.980   0.170  0.00  0.00    -0.500 OA
ATOM     21  C   LIG    1       -4.928  -0.087   0.382  0.00  0.00    +0.120 C 
BRANCH  17  22
ATOM     22  C   LIG    1       -4.688  -4.283   0.753  0.00  0.00    +0.300 C 
ATOM     23  C   LIG    1       -3.834  -5.077  -0.250  0.00  0.00    +0.080 C 
ATOM     24  C   LIG    1       -3.491  -6.447   0.369  0.00  0.00    -0.300 C 
ATOM     25  S   LIG    1       -3.495  -6.168   2.176  0.00  0.00    +2.400 S 
ATOM     26  O   LIG    1       -2.168  -6.277   2.673  0.00  0.00    -0.930 OA
ATOM     27  O   LIG    1       -4.540  -6.928   2.768  0.00  0.00    -0.920 OA
ATOM     28  C   LIG    1       -3.981  -4.401   2.128  0.00  0.00    -0.320 C 
ENDBRANCH  17  22
ENDBRANCH   3  15
TORSDOF 4
