REMARK  Name = ZINCpk00000y6xxI.0
REMARK                            x       y       z     vdW  Elec       q    Type
REMARK                         _______ _______ _______ _____ _____    ______ ____
ROOT
ATOM      1  N   LIG    1        3.656   2.275  -3.510  0.00  0.00    -0.530 NA
ATOM      2  C   LIG    1        2.473   1.418  -3.667  0.00  0.00    +0.170 C 
ATOM      3  C   LIG    1        1.515   1.649  -2.496  0.00  0.00    +0.030 C 
ATOM      4  C   LIG    1        2.234   1.323  -1.184  0.00  0.00    -0.030 C 
ATOM      5  C   LIG    1        3.488   2.194  -1.067  0.00  0.00    +0.040 C 
ATOM      6  C   LIG    1        4.388   1.948  -2.280  0.00  0.00    +0.180 C 
ENDROOT
BRANCH   1   7
ATOM      7  C   LIG    1        4.533   2.182  -4.685  0.00  0.00    +0.240 C 
BRANCH   7  13
ATOM      8  C   LIG    1        6.710   3.051  -3.792  0.00  0.00    +0.160 A 
ATOM      9  C   LIG    1        7.698   4.026  -3.717  0.00  0.00    -0.070 A 
ATOM     10  C   LIG    1        7.572   5.194  -4.436  0.00  0.00    +0.110 A 
ATOM     11  C   LIG    1        6.452   5.396  -5.246  0.00  0.00    -0.070 A 
ATOM     12  C   LIG    1        5.463   4.410  -5.324  0.00  0.00    +0.130 A 
ATOM     13  C   LIG    1        5.597   3.245  -4.602  0.00  0.00    -0.110 A 
BRANCH   8  15
ATOM     14  C   LIG    1        8.004   1.769  -2.266  0.00  0.00    +0.240 C 
ATOM     15  O   LIG    1        6.836   1.904  -3.078  0.00  0.00    -0.310 OA
ENDBRANCH   8  15
BRANCH  11  16
ATOM     16  C   LIG    1        6.316   6.609  -5.995  0.00  0.00    +0.250 C 
ATOM     17  N   LIG    1        6.209   7.571  -6.589  0.00  0.00    -0.420 NA
ENDBRANCH  11  16
ENDBRANCH   7  13
ENDBRANCH   1   7
BRANCH   4  18
ATOM     18  C   LIG    1        1.301   1.610  -0.005  0.00  0.00    +0.220 C 
BRANCH  18  19
ATOM     19  C   LIG    1        0.081   0.731  -0.104  0.00  0.00    +0.490 C 
ATOM     20  N   LIG    1        0.203  -0.606   0.018  0.00  0.00    -0.700 N 
ATOM     21  H   LIG    1        1.062  -0.997   0.241  0.00  0.00    +0.400 HD
ATOM     22  O   LIG    1       -1.010   1.226  -0.294  0.00  0.00    -0.530 OA
BRANCH  20  23
ATOM     23  C   LIG    1       -0.963  -1.469  -0.187  0.00  0.00    +0.220 C 
ATOM     24  C   LIG    1       -1.181  -2.610   0.808  0.00  0.00    +0.010 C 
ATOM     25  C   LIG    1       -0.705  -2.916  -0.614  0.00  0.00    +0.010 C 
ENDBRANCH  20  23
ENDBRANCH  18  19
BRANCH  18  26
ATOM     26  O   LIG    1        0.902   2.982  -0.036  0.00  0.00    -0.530 OA
ATOM     27  H   LIG    1        0.431   3.237  -0.842  0.00  0.00    +0.380 HD
ENDBRANCH  18  26
ENDBRANCH   4  18
TORSDOF 8
