REMARK  Name = ZINCrH000004kIMi.0
REMARK                            x       y       z     vdW  Elec       q    Type
REMARK                         _______ _______ _______ _____ _____    ______ ____
ROOT
ATOM      1  C   LIG    1        0.399   1.254   0.208  0.00  0.00    +0.040 C 
ATOM      2  C   LIG    1        1.726   1.984  -0.006  0.00  0.00    +0.250 C 
ATOM      3  N   LIG    1        2.359   1.454  -1.223  0.00  0.00    -0.510 NA
ATOM      4  C   LIG    1        2.849   0.092  -0.989  0.00  0.00    +0.300 C 
ATOM      5  C   LIG    1        1.751  -0.775  -0.431  0.00  0.00    -0.110 A 
ATOM      6  C   LIG    1        1.904  -2.152  -0.487  0.00  0.00    +0.020 A 
ATOM      7  C   LIG    1        0.926  -2.985   0.020  0.00  0.00    +0.020 A 
ATOM      8  C   LIG    1       -0.213  -2.443   0.586  0.00  0.00    +0.010 A 
ATOM      9  C   LIG    1       -0.368  -1.072   0.640  0.00  0.00    +0.030 A 
ATOM     10  C   LIG    1        0.613  -0.236   0.131  0.00  0.00    -0.090 A 
ENDROOT
BRANCH   1  11
ATOM     11  C   LIG    1       -0.154   1.610   1.564  0.00  0.00    +0.480 C 
ATOM     12  O   LIG    1        0.455   2.362   2.287  0.00  0.00    -0.500 OA
BRANCH  11  14
ATOM     13  C   LIG    1       -1.797   1.478   3.286  0.00  0.00    +0.270 C 
ATOM     14  O   LIG    1       -1.325   1.092   1.968  0.00  0.00    -0.350 OA
ENDBRANCH  11  14
ENDBRANCH   1  11
BRANCH   3  15
ATOM     15  C   LIG    1        1.429   1.490  -2.360  0.00  0.00    +0.350 C 
BRANCH  15  16
ATOM     16  C   LIG    1        0.862   2.879  -2.501  0.00  0.00    +0.190 A 
ATOM     17  N   LIG    1        1.419   3.887  -3.126  0.00  0.00    -0.450 NA
ATOM     18  C   LIG    1        0.554   4.918  -2.994  0.00  0.00    +0.210 A 
ATOM     19  N   LIG    1       -0.462   4.483  -2.296  0.00  0.00    -0.370 NA
ATOM     20  O   LIG    1       -0.300   3.317  -2.006  0.00  0.00    +0.080 OA
BRANCH  18  21
ATOM     21  C   LIG    1        0.729   6.289  -3.536  0.00  0.00    -0.020 A 
ATOM     22  C   LIG    1       -0.248   7.257  -3.316  0.00  0.00    +0.070 A 
ATOM     23  C   LIG    1       -0.081   8.531  -3.822  0.00  0.00    +0.030 A 
ATOM     24  C   LIG    1        1.054   8.847  -4.546  0.00  0.00    +0.070 A 
ATOM     25  C   LIG    1        2.028   7.888  -4.768  0.00  0.00    -0.100 A 
ATOM     26 BR   LIG    1        3.577   8.329  -5.760  0.00  0.00    -0.040 Br
ATOM     27  C   LIG    1        1.873   6.613  -4.262  0.00  0.00    +0.100 A 
ENDBRANCH  18  21
ENDBRANCH  15  16
ENDBRANCH   3  15
TORSDOF 5
