REMARK  Name = ZINCrD00000F5LFY.0
REMARK                            x       y       z     vdW  Elec       q    Type
REMARK                         _______ _______ _______ _____ _____    ______ ____
ROOT
ATOM      1  C   LIG    1       -7.718   0.519   1.482  0.00  0.00    +0.070 C 
ATOM      2  C   LIG    1       -7.300   0.809   0.039  0.00  0.00    +0.180 C 
ENDROOT
BRANCH   2   3
ATOM      3  C   LIG    1       -8.401   1.562  -0.662  0.00  0.00    +0.520 C 
ATOM      4  N   LIG    1       -9.624   1.009  -0.783  0.00  0.00    -0.720 N 
ATOM      5  H   LIG    1       -9.796   0.126  -0.418  0.00  0.00    +0.400 HD
ATOM      6  O   LIG    1       -8.187   2.665  -1.117  0.00  0.00    -0.510 OA
BRANCH   4   7
ATOM      7  C   LIG    1      -10.695   1.740  -1.464  0.00  0.00    +0.340 C 
BRANCH   7   8
ATOM      8  C   LIG    1      -11.951   0.908  -1.463  0.00  0.00    -0.100 A 
ATOM      9  C   LIG    1      -12.203   0.038  -2.507  0.00  0.00    +0.050 A 
ATOM     10  C   LIG    1      -13.352  -0.731  -2.509  0.00  0.00    +0.040 A 
ATOM     11  C   LIG    1      -14.259  -0.624  -1.468  0.00  0.00    +0.040 A 
ATOM     12  O   LIG    1      -15.448  -1.253  -1.235  0.00  0.00    -0.310 OA
ATOM     13  C   LIG    1      -16.118  -0.452  -0.243  0.00  0.00    +0.430 C 
ATOM     14  O   LIG    1      -15.040   0.180   0.472  0.00  0.00    -0.310 OA
ATOM     15  C   LIG    1      -14.008   0.257  -0.418  0.00  0.00    +0.030 A 
ATOM     16  C   LIG    1      -12.853   1.021  -0.421  0.00  0.00    +0.060 A 
ENDBRANCH   7   8
ENDBRANCH   4   7
ENDBRANCH   2   3
BRANCH   2  17
ATOM     17  O   LIG    1       -6.108   1.599   0.038  0.00  0.00    -0.320 OA
BRANCH  17  18
ATOM     18  C   LIG    1       -4.934   0.934   0.029  0.00  0.00    +0.500 C 
ATOM     19  O   LIG    1       -4.923  -0.282   0.022  0.00  0.00    -0.510 OA
BRANCH  18  20
ATOM     20  C   LIG    1       -3.674   1.677   0.028  0.00  0.00    -0.040 C 
ATOM     21  C   LIG    1       -2.500   1.013   0.019  0.00  0.00    +0.140 C 
BRANCH  21  22
ATOM     22  C   LIG    1       -1.232   1.761   0.018  0.00  0.00    -0.070 A 
ATOM     23  C   LIG    1       -1.241   3.159   0.030  0.00  0.00    +0.050 A 
ATOM     24  C   LIG    1       -0.049   3.853   0.023  0.00  0.00    +0.030 A 
ATOM     25  C   LIG    1        1.154   3.169   0.008  0.00  0.00    +0.050 A 
ATOM     26  C   LIG    1        1.172   1.784   0.001  0.00  0.00    -0.040 A 
ATOM     27 CL   LIG    1        2.687   0.937  -0.019  0.00  0.00    -0.060 Cl
ATOM     28  C   LIG    1       -0.013   1.076   0.008  0.00  0.00    +0.060 A 
ENDBRANCH  21  22
ENDBRANCH  18  20
ENDBRANCH  17  18
ENDBRANCH   2  17
TORSDOF 7
