REMARK  Name = ZINCpk00000e9vdO.0
REMARK                            x       y       z     vdW  Elec       q    Type
REMARK                         _______ _______ _______ _____ _____    ______ ____
ROOT
ATOM      1  C   LIG    1        1.690   3.182   0.870  0.00  0.00    +0.290 C 
ENDROOT
BRANCH   1   2
ATOM      2  C   LIG    1        1.471   1.943  -0.002  0.00  0.00    +0.000 C 
ATOM      3  C   LIG    1        2.251   0.748   0.575  0.00  0.00    +0.070 C 
ATOM      4  C   LIG    1        1.207  -0.335   0.918  0.00  0.00    +0.100 C 
ATOM      5  C   LIG    1        0.002  -0.004   0.002  0.00  0.00    +0.020 C 
ATOM      6  C   LIG    1       -0.019   1.545   0.011  0.00  0.00    +0.170 C 
BRANCH   4   7
ATOM      7  C   LIG    1        1.747  -1.706   0.604  0.00  0.00    +0.180 A 
ATOM      8  N   LIG    1        2.195  -2.115  -0.552  0.00  0.00    -0.290 NA
ATOM      9  N   LIG    1        2.580  -3.338  -0.458  0.00  0.00    -0.300 NA
ATOM     10  C   LIG    1        2.387  -3.768   0.759  0.00  0.00    +0.370 A 
ATOM     11  N   LIG    1        1.853  -2.744   1.468  0.00  0.00    -0.480 N 
ATOM     12  C   LIG    1        1.468  -2.758   2.881  0.00  0.00    +0.340 C 
ENDBRANCH   4   7
BRANCH   6  13
ATOM     13  O   LIG    1       -0.657   2.030   1.194  0.00  0.00    -0.550 OA
ATOM     14  H   LIG    1       -1.581   1.759   1.282  0.00  0.00    +0.380 HD
ENDBRANCH   6  13
ENDBRANCH   1   2
BRANCH   1  16
ATOM     15  C   LIG    1        1.070   5.538   0.861  0.00  0.00    +0.560 C 
ATOM     16  N   LIG    1        1.014   4.331   0.264  0.00  0.00    -0.720 N 
ATOM     17  H   LIG    1        0.526   4.224  -0.568  0.00  0.00    +0.400 HD
ATOM     18  O   LIG    1        1.681   5.673   1.903  0.00  0.00    -0.530 OA
BRANCH  15  23
ATOM     19  C   LIG    1       -0.197   9.031   0.286  0.00  0.00    +0.130 A 
ATOM     20  C   LIG    1       -0.894   8.870  -0.904  0.00  0.00    -0.060 A 
ATOM     21  C   LIG    1       -0.951   7.631  -1.516  0.00  0.00    +0.040 A 
ATOM     22  C   LIG    1       -0.310   6.548  -0.951  0.00  0.00    +0.000 A 
ATOM     23  C   LIG    1        0.388   6.698   0.249  0.00  0.00    -0.090 A 
ATOM     24  C   LIG    1        0.444   7.948   0.865  0.00  0.00    +0.050 A 
BRANCH  19  25
ATOM     25  O   LIG    1       -0.144  10.251   0.883  0.00  0.00    -0.310 OA
BRANCH  25  27
ATOM     26  C   LIG    1       -0.658  12.607   1.044  0.00  0.00    +0.070 C 
ATOM     27  C   LIG    1       -0.829  11.322   0.230  0.00  0.00    +0.170 C 
ENDBRANCH  25  27
ENDBRANCH  19  25
ENDBRANCH  15  23
ENDBRANCH   1  16
TORSDOF 7
