REMARK  Name = ZINCpk00000FjqDT.0
REMARK                            x       y       z     vdW  Elec       q    Type
REMARK                         _______ _______ _______ _____ _____    ______ ____
ROOT
ATOM      1  C   LIG    1        0.951  -4.620  -1.476  0.00  0.00    +0.190 C 
ENDROOT
BRANCH   1   5
ATOM      2  C   LIG    1        0.999  -8.209  -1.495  0.00  0.00    +0.170 A 
ATOM      3  N   LIG    1        2.263  -7.907  -1.506  0.00  0.00    -0.350 NA
ATOM      4  O   LIG    1        2.406  -6.702  -1.501  0.00  0.00    +0.090 OA
ATOM      5  C   LIG    1        1.211  -6.104  -1.486  0.00  0.00    +0.180 A 
ATOM      6  N   LIG    1        0.309  -7.055  -1.478  0.00  0.00    -0.470 NA
BRANCH   2   7
ATOM      7  C   LIG    1        0.414  -9.598  -1.497  0.00  0.00    +0.270 C 
ATOM      8  C   LIG    1        0.546 -10.206  -2.895  0.00  0.00    +0.050 C 
BRANCH   7   9
ATOM      9  O   LIG    1        1.117 -10.412  -0.555  0.00  0.00    -0.370 OA
BRANCH   9  10
ATOM     10  C   LIG    1        0.320 -11.444   0.030  0.00  0.00    +0.160 C 
BRANCH  10  12
ATOM     11  C   LIG    1        1.587 -11.348   2.181  0.00  0.00    +0.020 C 
ATOM     12  C   LIG    1        1.171 -12.247   1.016  0.00  0.00    -0.010 C 
ATOM     13  C   LIG    1        0.355 -13.427   1.548  0.00  0.00    +0.030 C 
ENDBRANCH  10  12
ENDBRANCH   9  10
ENDBRANCH   7   9
ENDBRANCH   2   7
ENDBRANCH   1   5
BRANCH   1  14
ATOM     14  C   LIG    1        0.877  -4.125  -0.029  0.00  0.00    +0.320 C 
BRANCH  14  15
ATOM     15  N   LIG    1        0.624  -2.682  -0.019  0.00  0.00    -0.550 N 
ATOM     16  C   LIG    1       -0.651  -2.220  -0.004  0.00  0.00    +0.640 A 
ATOM     17  N   LIG    1       -0.947  -0.953   0.006  0.00  0.00    -0.530 NA
ATOM     18  C   LIG    1        0.002  -0.004   0.002  0.00  0.00    +0.330 A 
ATOM     19  C   LIG    1        1.353  -0.387  -0.013  0.00  0.00    -0.340 A 
ATOM     20  C   LIG    1        2.121   0.793  -0.014  0.00  0.00    +0.330 A 
ATOM     21  N   LIG    1        1.307   1.812  -0.001  0.00  0.00    -0.270 NA
ATOM     22  N   LIG    1       -0.016   1.354   0.009  0.00  0.00    -0.350 N 
ATOM     23  C   LIG    1       -1.215   2.196   0.020  0.00  0.00    +0.380 C 
ATOM     24  C   LIG    1        1.664  -1.816  -0.024  0.00  0.00    +0.570 A 
ATOM     25  O   LIG    1        2.817  -2.211  -0.037  0.00  0.00    -0.510 OA
ENDBRANCH  14  15
ENDBRANCH   1  14
TORSDOF 7
