REMARK  Name = ZINCpe00000yOH7b.0
REMARK                            x       y       z     vdW  Elec       q    Type
REMARK                         _______ _______ _______ _____ _____    ______ ____
ROOT
ATOM      1  N   LIG    1        8.355  -1.494  -2.563  0.00  0.00    -0.730 N 
ATOM      2  H   LIG    1        8.220  -0.611  -2.185  0.00  0.00    +0.400 HD
ATOM      3  C   LIG    1        7.302  -2.197  -3.026  0.00  0.00    +0.520 C 
ATOM      4  O   LIG    1        7.470  -3.301  -3.498  0.00  0.00    -0.510 OA
ENDROOT
BRANCH   3   5
ATOM      5  C   LIG    1        5.915  -1.611  -2.956  0.00  0.00    +0.170 C 
ATOM      6  C   LIG    1        5.506  -1.439  -1.491  0.00  0.00    +0.170 C 
ATOM      7  N   LIG    1        4.125  -0.940  -1.429  0.00  0.00    -0.530 NA
ATOM      8  C   LIG    1        3.205  -1.866  -2.104  0.00  0.00    +0.160 C 
ATOM      9  C   LIG    1        3.637  -2.033  -3.563  0.00  0.00    +0.230 C 
ATOM     10  O   LIG    1        4.992  -2.490  -3.604  0.00  0.00    -0.360 OA
BRANCH   7  11
ATOM     11  C   LIG    1        3.711  -0.707  -0.038  0.00  0.00    +0.230 C 
BRANCH  11  12
ATOM     12  C   LIG    1        2.396   0.029  -0.022  0.00  0.00    -0.080 A 
ATOM     13  C   LIG    1        1.208  -0.679  -0.013  0.00  0.00    +0.000 A 
ATOM     14  C   LIG    1        0.002  -0.004   0.002  0.00  0.00    +0.000 A 
ATOM     15  C   LIG    1       -0.017   1.378   0.010  0.00  0.00    +0.000 A 
ATOM     16  C   LIG    1        1.171   2.086   0.002  0.00  0.00    +0.000 A 
ATOM     17  C   LIG    1        2.377   1.411  -0.015  0.00  0.00    +0.020 A 
ENDBRANCH  11  12
ENDBRANCH   7  11
ENDBRANCH   3   5
BRANCH   1  18
ATOM     18  C   LIG    1        9.703  -2.064  -2.631  0.00  0.00    +0.290 C 
BRANCH  18  21
ATOM     19  C   LIG    1       11.995  -2.227  -0.823  0.00  0.00    -0.460 C 
ATOM     20  C   LIG    1       10.888  -1.203  -0.523  0.00  0.00    +0.090 C 
ATOM     21  C   LIG    1       10.707  -1.070  -2.044  0.00  0.00    -0.010 C 
ATOM     22  C   LIG    1       12.171  -1.522  -2.178  0.00  0.00    +0.090 C 
BRANCH  19  24
ATOM     23  C   LIG    1       12.899  -2.999   1.732  0.00  0.00    -0.270 C 
ATOM     24  S   LIG    1       13.439  -2.078   0.265  0.00  0.00    +2.420 S 
ATOM     25  O   LIG    1       13.599  -0.712   0.622  0.00  0.00    -0.940 OA
ATOM     26  O   LIG    1       14.527  -2.772  -0.329  0.00  0.00    -0.940 OA
ENDBRANCH  19  24
ENDBRANCH  18  21
ENDBRANCH   1  18
TORSDOF 6
