REMARK  Name = ZINCtV00000tRP5Q.0
REMARK                            x       y       z     vdW  Elec       q    Type
REMARK                         _______ _______ _______ _____ _____    ______ ____
ROOT
ATOM      1  N   LIG    1       -1.197   2.366   0.021  0.00  0.00    -0.440 N 
ATOM      2  N   LIG    1       -1.351   3.751   0.035  0.00  0.00    -0.240 NA
ATOM      3  C   LIG    1       -2.578   4.144   0.037  0.00  0.00    +0.150 C 
ATOM      4  C   LIG    1       -3.494   2.941   0.035  0.00  0.00    +0.110 C 
ATOM      5  C   LIG    1       -2.529   1.739   0.024  0.00  0.00    +0.290 C 
ENDROOT
BRANCH   3   6
ATOM      6  C   LIG    1       -3.021   5.550   0.046  0.00  0.00    -0.030 A 
ATOM      7  C   LIG    1       -4.383   5.857   0.049  0.00  0.00    +0.070 A 
ATOM      8  C   LIG    1       -4.790   7.175   0.063  0.00  0.00    +0.020 A 
ATOM      9  C   LIG    1       -3.853   8.193   0.064  0.00  0.00    +0.060 A 
ATOM     10  C   LIG    1       -2.501   7.897   0.056  0.00  0.00    +0.030 A 
ATOM     11  C   LIG    1       -2.078   6.583   0.048  0.00  0.00    -0.000 A 
ATOM     12 CL   LIG    1       -0.382   6.214   0.038  0.00  0.00    -0.040 Cl
ENDBRANCH   3   6
BRANCH   5  13
ATOM     13  C   LIG    1       -2.726   0.907  -1.218  0.00  0.00    -0.060 A 
ATOM     14  C   LIG    1       -2.243   1.355  -2.433  0.00  0.00    +0.020 A 
ATOM     15  C   LIG    1       -2.420   0.590  -3.571  0.00  0.00    +0.040 A 
ATOM     16  C   LIG    1       -3.089  -0.618  -3.495  0.00  0.00    -0.080 A 
ATOM     17  C   LIG    1       -3.577  -1.063  -2.280  0.00  0.00    +0.050 A 
ATOM     18 BR   LIG    1       -3.337  -1.661  -5.053  0.00  0.00    -0.050 Br
ATOM     19  C   LIG    1       -3.395  -0.300  -1.141  0.00  0.00    +0.050 A 
ENDBRANCH   5  13
BRANCH   1  21
ATOM     20  S   LIG    1        0.002  -0.004   0.002  0.00  0.00    -0.590 S 
ATOM     21  C   LIG    1       -0.021   1.708   0.011  0.00  0.00    +0.590 C 
BRANCH  21  22
ATOM     22  N   LIG    1        1.137   2.397   0.004  0.00  0.00    -0.660 N 
ATOM     23  H   LIG    1        1.124   3.367   0.009  0.00  0.00    +0.410 HD
BRANCH  22  24
ATOM     24  C   LIG    1        2.415   1.682  -0.012  0.00  0.00    +0.360 C 
BRANCH  24  25
ATOM     25  C   LIG    1        3.547   2.677  -0.017  0.00  0.00    -0.120 A 
ATOM     26  C   LIG    1        4.059   3.135  -1.217  0.00  0.00    +0.020 A 
ATOM     27  C   LIG    1        5.094   4.051  -1.222  0.00  0.00    +0.010 A 
ATOM     28  C   LIG    1        5.625   4.502  -0.028  0.00  0.00    +0.020 A 
ATOM     29  C   LIG    1        5.116   4.039   1.172  0.00  0.00    +0.010 A 
ATOM     30  C   LIG    1        4.078   3.127   1.177  0.00  0.00    +0.020 A 
ENDBRANCH  24  25
ENDBRANCH  22  24
ENDBRANCH  21  22
ENDBRANCH   1  21
TORSDOF 6
