REMARK  Name = ZINCrD000000ByIP.0
REMARK                            x       y       z     vdW  Elec       q    Type
REMARK                         _______ _______ _______ _____ _____    ______ ____
ROOT
ATOM      1  O   LIG    1        1.027   2.094   0.004  0.00  0.00    -0.530 OA
ATOM      2  C   LIG    1       -0.018   1.472   0.010  0.00  0.00    +0.560 C 
ATOM      3  N   LIG    1       -1.194   2.130   0.019  0.00  0.00    -0.520 N 
ATOM      4  H   LIG    1       -2.027   1.633   0.021  0.00  0.00    +0.430 HD
ENDROOT
BRANCH   2   5
ATOM      5  C   LIG    1        0.002  -0.004   0.002  0.00  0.00    -0.120 A 
ATOM      6  C   LIG    1       -1.199  -0.720   0.015  0.00  0.00    +0.060 A 
ATOM      7  C   LIG    1       -1.181  -2.085   0.004  0.00  0.00    +0.040 A 
ATOM      8  C   LIG    1        0.040  -2.768  -0.012  0.00  0.00    +0.020 A 
ATOM      9  C   LIG    1        1.241  -2.052  -0.020  0.00  0.00    +0.030 A 
ATOM     10  C   LIG    1        1.222  -0.687  -0.013  0.00  0.00    +0.100 A 
BRANCH   8  11
ATOM     11  C   LIG    1        0.060  -4.243  -0.020  0.00  0.00    -0.020 A 
ATOM     12  C   LIG    1       -1.021  -5.069  -0.008  0.00  0.00    +0.180 A 
ATOM     13  N   LIG    1       -0.565  -6.329  -0.023  0.00  0.00    -0.490 NA
ATOM     14  C   LIG    1        0.739  -6.307  -0.036  0.00  0.00    +0.450 A 
ATOM     15  O   LIG    1        1.155  -5.034  -0.034  0.00  0.00    -0.200 OA
ENDBRANCH   8  11
ENDBRANCH   2   5
BRANCH   3  16
ATOM     16  N   LIG    1       -1.213   3.530   0.027  0.00  0.00    -0.520 N 
ATOM     17  H   LIG    1       -0.380   4.027   0.026  0.00  0.00    +0.430 HD
ATOM     18  C   LIG    1       -2.389   4.188   0.036  0.00  0.00    +0.520 C 
ATOM     19  O   LIG    1       -3.431   3.568   0.038  0.00  0.00    -0.530 OA
BRANCH  18  20
ATOM     20  C   LIG    1       -2.410   5.695   0.044  0.00  0.00    -0.060 C 
ATOM     21  C   LIG    1       -1.690   6.208   1.293  0.00  0.00    +0.040 C 
ATOM     22  C   LIG    1       -1.710   7.738   1.302  0.00  0.00    +0.000 C 
ATOM     23  C   LIG    1       -1.002   8.265   0.052  0.00  0.00    +0.020 C 
ATOM     24  C   LIG    1       -1.722   7.752  -1.197  0.00  0.00    +0.000 C 
ATOM     25  C   LIG    1       -3.171   8.242  -1.187  0.00  0.00    +0.020 C 
ATOM     26  C   LIG    1       -3.880   7.715   0.062  0.00  0.00    -0.010 C 
ATOM     27  C   LIG    1       -3.160   8.228   1.311  0.00  0.00    +0.020 C 
ATOM     28  C   LIG    1       -1.702   6.222  -1.205  0.00  0.00    +0.040 C 
ATOM     29  C   LIG    1       -3.859   6.186   0.054  0.00  0.00    +0.050 C 
ENDBRANCH  18  20
ENDBRANCH   3  16
TORSDOF 4
