REMARK  Name = ZINCrH000004t2Ua.0
REMARK                            x       y       z     vdW  Elec       q    Type
REMARK                         _______ _______ _______ _____ _____    ______ ____
ROOT
ATOM      1  C   LIG    1        3.111  -0.840   1.694  0.00  0.00    +0.420 A 
ATOM      2  C   LIG    1        4.202  -1.518   1.089  0.00  0.00    -0.150 A 
ATOM      3  C   LIG    1        4.627  -1.564  -0.297  0.00  0.00    +0.070 A 
ATOM      4  C   LIG    1        5.698  -2.300  -0.524  0.00  0.00    -0.020 A 
ATOM      5  S   LIG    1        6.304  -3.021   0.955  0.00  0.00    +0.170 S 
ATOM      6  C   LIG    1        5.034  -2.280   1.917  0.00  0.00    +0.090 A 
ATOM      7  N   LIG    1        4.773  -2.339   3.226  0.00  0.00    -0.480 NA
ATOM      8  C   LIG    1        3.745  -1.691   3.745  0.00  0.00    +0.390 A 
ATOM      9  N   LIG    1        2.932  -0.950   3.000  0.00  0.00    -0.500 NA
ENDROOT
BRANCH   1  15
ATOM     10  C   LIG    1        0.861  -0.486   1.126  0.00  0.00    +0.260 C 
ATOM     11  C   LIG    1       -0.007   0.047  -0.019  0.00  0.00    +0.140 C 
ATOM     12  S   LIG    1        0.050   1.865   0.012  0.00  0.00    -0.260 S 
ATOM     13  C   LIG    1        1.840   2.184   0.055  0.00  0.00    +0.130 C 
ATOM     14  C   LIG    1        2.454   1.357   1.189  0.00  0.00    +0.220 C 
ATOM     15  N   LIG    1        2.252  -0.071   0.930  0.00  0.00    -0.490 N 
BRANCH  10  19
ATOM     16  C   LIG    1       -0.241  -5.189   2.461  0.00  0.00    +0.350 C 
ATOM     17  N   LIG    1        0.303  -4.037   1.739  0.00  0.00    -0.370 N 
ATOM     18  C   LIG    1        0.130  -2.740   2.068  0.00  0.00    +0.250 A 
ATOM     19  C   LIG    1        0.787  -1.991   1.152  0.00  0.00    -0.250 A 
ATOM     20  C   LIG    1        1.389  -2.860   0.236  0.00  0.00    +0.250 A 
ATOM     21  N   LIG    1        1.100  -4.087   0.588  0.00  0.00    -0.290 NA
ENDBRANCH  10  19
ENDBRANCH   1  15
BRANCH   8  22
ATOM     22  C   LIG    1        3.497  -1.787   5.204  0.00  0.00    +0.170 A 
ATOM     23  C   LIG    1        4.277  -2.638   5.983  0.00  0.00    +0.030 A 
ATOM     24  C   LIG    1        4.033  -2.717   7.344  0.00  0.00    +0.060 A 
ATOM     25  C   LIG    1        3.017  -1.940   7.881  0.00  0.00    -0.010 A 
ATOM     26  C   LIG    1        2.281  -1.116   7.048  0.00  0.00    +0.260 A 
ATOM     27  N   LIG    1        2.537  -1.056   5.757  0.00  0.00    -0.440 NA
ENDBRANCH   8  22
TORSDOF 3
