REMARK  Name = ZINCqH0000005sJW.0
REMARK                            x       y       z     vdW  Elec       q    Type
REMARK                         _______ _______ _______ _____ _____    ______ ____
ROOT
ATOM      1  C   LIG    1        2.490   1.048  -0.016  0.00  0.00    +0.330 C 
ENDROOT
BRANCH   1   5
ATOM      2  C   LIG    1       -1.238   3.133   0.029  0.00  0.00    -0.080 A 
ATOM      3  C   LIG    1       -1.219   1.751   0.017  0.00  0.00    +0.020 A 
ATOM      4  C   LIG    1       -0.013   1.076   0.008  0.00  0.00    +0.040 A 
ATOM      5  C   LIG    1        1.175   1.783   0.000  0.00  0.00    -0.100 A 
ATOM      6  C   LIG    1        1.156   3.165   0.008  0.00  0.00    +0.040 A 
ATOM      7  C   LIG    1       -0.050   3.840   0.022  0.00  0.00    +0.020 A 
BRANCH   2   8
ATOM      8  C   LIG    1       -2.553   3.869   0.045  0.00  0.00    -0.310 C 
BRANCH   8   9
ATOM      9  S   LIG    1       -3.096   4.173  -1.658  0.00  0.00    +2.610 S 
ATOM     10  O   LIG    1       -3.447   2.952  -2.295  0.00  0.00    -0.950 OA
ATOM     11  O   LIG    1       -2.240   5.111  -2.295  0.00  0.00    -0.950 OA
BRANCH   9  13
ATOM     12  C   LIG    1       -4.564   6.311  -0.890  0.00  0.00    +0.300 C 
ATOM     13  N   LIG    1       -4.535   4.977  -1.496  0.00  0.00    -1.120 NA
ATOM     14  H   LIG    1       -5.358   4.566  -1.802  0.00  0.00    +0.420 HD
ENDBRANCH   9  13
ENDBRANCH   8   9
ENDBRANCH   2   8
ENDBRANCH   1   5
BRANCH   1  15
ATOM     15  N   LIG    1        2.903   0.816  -1.402  0.00  0.00    -0.710 N 
ATOM     16  H   LIG    1        2.346   1.128  -2.132  0.00  0.00    +0.410 HD
BRANCH  15  17
ATOM     17  C   LIG    1        4.091   0.152  -1.670  0.00  0.00    +0.440 A 
ATOM     18  N   LIG    1        4.446  -0.053  -2.922  0.00  0.00    -0.540 NA
ATOM     19  C   LIG    1        5.585  -0.684  -3.226  0.00  0.00    +0.170 A 
ATOM     20  C   LIG    1        5.961  -0.895  -4.566  0.00  0.00    +0.120 A 
ATOM     21  C   LIG    1        7.125  -1.546  -4.848  0.00  0.00    +0.040 A 
ATOM     22  C   LIG    1        7.953  -2.009  -3.827  0.00  0.00    -0.090 A 
ATOM     23  C   LIG    1        7.621  -1.822  -2.518  0.00  0.00    +0.100 A 
ATOM     24 BR   LIG    1        9.559  -2.907  -4.263  0.00  0.00    -0.040 Br
ATOM     25  F   LIG    1        5.171  -0.453  -5.569  0.00  0.00    -0.120 F 
ATOM     26  C   LIG    1        6.429  -1.156  -2.192  0.00  0.00    -0.130 A 
ATOM     27  C   LIG    1        6.053  -0.946  -0.849  0.00  0.00    +0.140 A 
ATOM     28  C   LIG    1        4.884  -0.292  -0.602  0.00  0.00    -0.070 A 
ENDBRANCH  15  17
ENDBRANCH   1  15
TORSDOF 6
