REMARK  Name = ZINCvU00000006aG.0
REMARK                            x       y       z     vdW  Elec       q    Type
REMARK                         _______ _______ _______ _____ _____    ______ ____
ROOT
ATOM      1  N   LIG    1        7.148   2.200   3.019  0.00  0.00    -0.390 N 
ATOM      2  C   LIG    1        8.174   2.930   2.441  0.00  0.00    +0.030 A 
ATOM      3  C   LIG    1        7.674   3.465   1.297  0.00  0.00    +0.200 A 
ATOM      4  N   LIG    1        6.398   3.076   1.174  0.00  0.00    -0.480 NA
ATOM      5  C   LIG    1        6.067   2.316   2.194  0.00  0.00    +0.190 A 
ENDROOT
BRANCH   1  12
ATOM      6  C   LIG    1        6.461   3.542   5.433  0.00  0.00    +0.110 C 
ATOM      7  C   LIG    1        6.881   2.095   5.420  0.00  0.00    -0.060 A 
ATOM      8  C   LIG    1        6.942   1.382   6.600  0.00  0.00    +0.030 A 
ATOM      9  C   LIG    1        7.327   0.053   6.588  0.00  0.00    +0.040 A 
ATOM     10  C   LIG    1        7.653  -0.564   5.395  0.00  0.00    +0.020 A 
ATOM     11  C   LIG    1        7.590   0.143   4.210  0.00  0.00    +0.040 A 
ATOM     12  C   LIG    1        7.208   1.478   4.219  0.00  0.00    +0.090 A 
ENDBRANCH   1  12
BRANCH   2  13
ATOM     13  C   LIG    1        9.544   3.099   2.970  0.00  0.00    -0.010 A 
ATOM     14  C   LIG    1        9.944   2.406   4.114  0.00  0.00    +0.030 A 
ATOM     15  C   LIG    1       11.225   2.565   4.600  0.00  0.00    +0.040 A 
ATOM     16  C   LIG    1       12.110   3.417   3.962  0.00  0.00    -0.030 A 
ATOM     17  C   LIG    1       11.717   4.111   2.830  0.00  0.00    +0.040 A 
ATOM     18 CL   LIG    1       13.719   3.617   4.584  0.00  0.00    -0.070 Cl
ATOM     19  C   LIG    1       10.441   3.957   2.331  0.00  0.00    +0.050 A 
ENDBRANCH   2  13
BRANCH   5  20
ATOM     20  S   LIG    1        4.490   1.577   2.457  0.00  0.00    +0.080 S 
BRANCH  20  21
ATOM     21  C   LIG    1        3.614   2.177   0.990  0.00  0.00    +0.110 C 
BRANCH  21  22
ATOM     22  C   LIG    1        2.200   1.655   1.001  0.00  0.00    +0.540 C 
ATOM     23  N   LIG    1        1.357   1.975  -0.000  0.00  0.00    -0.710 N 
ATOM     24  H   LIG    1        1.659   2.541  -0.728  0.00  0.00    +0.410 HD
ATOM     25  O   LIG    1        1.822   0.948   1.910  0.00  0.00    -0.510 OA
BRANCH  23  26
ATOM     26  C   LIG    1       -0.018   1.468   0.010  0.00  0.00    +0.280 C 
ATOM     27  C   LIG    1       -0.734   1.961   1.269  0.00  0.00    +0.080 C 
BRANCH  26  28
ATOM     28  C   LIG    1       -0.758   1.975  -1.229  0.00  0.00    +0.000 C 
ATOM     29  C   LIG    1       -0.888   3.497  -1.159  0.00  0.00    +0.050 C 
ATOM     30  C   LIG    1       -2.152   1.346  -1.284  0.00  0.00    +0.050 C 
ENDBRANCH  26  28
BRANCH  26  31
ATOM     31  C   LIG    1        0.002  -0.004   0.002  0.00  0.00    +0.200 C 
ATOM     32  N   LIG    1        0.018  -1.140  -0.004  0.00  0.00    -0.410 NA
ENDBRANCH  26  31
ENDBRANCH  23  26
ENDBRANCH  21  22
ENDBRANCH  20  21
ENDBRANCH   5  20
TORSDOF 8
