REMARK  Name = ZINCpk00000xScoF.0
REMARK                            x       y       z     vdW  Elec       q    Type
REMARK                         _______ _______ _______ _____ _____    ______ ____
ROOT
ATOM      1  N   LIG    1       -0.237  -2.522  -2.826  0.00  0.00    -0.500 NA
ATOM      2  C   LIG    1       -1.630  -2.368  -3.318  0.00  0.00    +0.180 C 
ATOM      3  C   LIG    1       -1.740  -3.363  -4.492  0.00  0.00    +0.040 C 
ATOM      4  C   LIG    1       -0.656  -4.426  -4.220  0.00  0.00    +0.050 C 
ATOM      5  C   LIG    1        0.018  -3.983  -2.904  0.00  0.00    +0.260 C 
ENDROOT
BRANCH   5   6
ATOM      6  C   LIG    1        1.499  -4.256  -2.951  0.00  0.00    +0.210 A 
ATOM      7  N   LIG    1        2.145  -5.166  -2.265  0.00  0.00    -0.440 NA
ATOM      8  C   LIG    1        3.441  -5.043  -2.630  0.00  0.00    +0.130 A 
ATOM      9  N   LIG    1        3.506  -4.077  -3.507  0.00  0.00    -0.350 NA
ATOM     10  O   LIG    1        2.401  -3.620  -3.706  0.00  0.00    +0.120 OA
BRANCH   8  11
ATOM     11  C   LIG    1        4.578  -5.855  -2.127  0.00  0.00    +0.620 C 
ATOM     12  N   LIG    1        5.825  -5.622  -2.582  0.00  0.00    -0.680 N 
ATOM     13  H   LIG    1        5.980  -4.924  -3.237  0.00  0.00    +0.410 HD
ATOM     14  O   LIG    1        4.385  -6.730  -1.307  0.00  0.00    -0.490 OA
BRANCH  12  15
ATOM     15  C   LIG    1        6.947  -6.423  -2.086  0.00  0.00    +0.210 C 
ATOM     16  C   LIG    1        8.240  -5.685  -1.731  0.00  0.00    +0.020 C 
ATOM     17  C   LIG    1        8.176  -6.554  -2.989  0.00  0.00    +0.030 C 
ENDBRANCH  12  15
ENDBRANCH   8  11
ENDBRANCH   5   6
BRANCH   1  18
ATOM     18  C   LIG    1       -0.110  -2.038  -1.445  0.00  0.00    +0.160 C 
BRANCH  18  19
ATOM     19  C   LIG    1       -0.130  -0.508  -1.437  0.00  0.00    +0.040 C 
BRANCH  19  20
ATOM     20  C   LIG    1        0.002  -0.004   0.002  0.00  0.00    +0.120 C 
BRANCH  20  26
ATOM     21  C   LIG    1        2.476   1.924  -0.011  0.00  0.00    +0.320 C 
ATOM     22  N   LIG    1        1.069   2.334   0.004  0.00  0.00    -0.460 N 
ATOM     23  C   LIG    1        0.604   3.601   0.015  0.00  0.00    +0.380 A 
ATOM     24  N   LIG    1       -0.701   3.568   0.027  0.00  0.00    -0.490 NA
ATOM     25  C   LIG    1       -1.110   2.291   0.019  0.00  0.00    +0.150 A 
ATOM     26  C   LIG    1       -0.018   1.503   0.010  0.00  0.00    -0.020 A 
ENDBRANCH  20  26
ENDBRANCH  19  20
ENDBRANCH  18  19
ENDBRANCH   1  18
TORSDOF 7
