REMARK  Name = ZINCqH0000036j5g.0
REMARK                            x       y       z     vdW  Elec       q    Type
REMARK                         _______ _______ _______ _____ _____    ______ ____
ROOT
ATOM      1  N   LIG    1        0.931   5.371   1.000  0.00  0.00    -0.660 NA
ATOM      2  H   LIG    1        1.127   6.323   0.727  0.00  0.00    +0.350 HD
ENDROOT
BRANCH   1   3
ATOM      3  C   LIG    1        1.465   5.087   2.339  0.00  0.00    +0.220 C 
ATOM      4  C   LIG    1        2.824   5.770   2.502  0.00  0.00    +0.020 C 
BRANCH   3   9
ATOM      5  C   LIG    1       -0.319   5.607   5.637  0.00  0.00    +0.100 A 
ATOM      6  C   LIG    1       -1.244   6.579   5.294  0.00  0.00    -0.070 A 
ATOM      7  C   LIG    1       -1.291   7.064   4.000  0.00  0.00    +0.040 A 
ATOM      8  C   LIG    1       -0.412   6.584   3.047  0.00  0.00    +0.020 A 
ATOM      9  C   LIG    1        0.511   5.611   3.381  0.00  0.00    -0.050 A 
ATOM     10  C   LIG    1        0.563   5.121   4.676  0.00  0.00    +0.070 A 
BRANCH   5  12
ATOM     11  C   LIG    1       -1.207   5.675   7.842  0.00  0.00    +0.250 C 
ATOM     12  O   LIG    1       -0.272   5.130   6.909  0.00  0.00    -0.310 OA
ENDBRANCH   5  12
BRANCH  10  13
ATOM     13  O   LIG    1        1.475   4.168   5.008  0.00  0.00    -0.480 OA
ATOM     14  H   LIG    1        2.319   4.522   5.319  0.00  0.00    +0.380 HD
ENDBRANCH  10  13
ENDBRANCH   3   9
ENDBRANCH   1   3
BRANCH   1  15
ATOM     15  C   LIG    1        1.456   4.421   0.011  0.00  0.00    +0.300 C 
BRANCH  15  16
ATOM     16  C   LIG    1        1.421   5.050  -1.358  0.00  0.00    -0.120 A 
ATOM     17  C   LIG    1        0.588   6.124  -1.604  0.00  0.00    +0.080 A 
ATOM     18  C   LIG    1        0.560   6.705  -2.858  0.00  0.00    +0.000 A 
ATOM     19  C   LIG    1        1.357   6.205  -3.871  0.00  0.00    +0.040 A 
ATOM     20  C   LIG    1        2.187   5.126  -3.629  0.00  0.00    -0.010 A 
ATOM     21  C   LIG    1        2.220   4.548  -2.372  0.00  0.00    +0.110 A 
ATOM     22  F   LIG    1        3.031   3.493  -2.135  0.00  0.00    -0.140 F 
ENDBRANCH  15  16
BRANCH  15  23
ATOM     23  C   LIG    1        0.610   3.174   0.013  0.00  0.00    +0.210 A 
ATOM     24  N   LIG    1       -0.695   3.141   0.025  0.00  0.00    -0.450 NA
ATOM     25  C   LIG    1       -1.105   1.864   0.017  0.00  0.00    +0.140 A 
ATOM     26  C   LIG    1       -0.013   1.076   0.008  0.00  0.00    +0.110 A 
ATOM     27  N   LIG    1        1.075   1.907   0.002  0.00  0.00    -0.460 N 
ATOM     28  C   LIG    1        2.482   1.497  -0.013  0.00  0.00    +0.320 C 
ENDBRANCH  15  23
ENDBRANCH   1  15
TORSDOF 7
