REMARK  Name = ZINCvU0000000IdT.0
REMARK                            x       y       z     vdW  Elec       q    Type
REMARK                         _______ _______ _______ _____ _____    ______ ____
ROOT
ATOM      1  N   LIG    1        1.841   1.557   0.793  0.00  0.00    -0.520 N 
ATOM      2  C   LIG    1        0.639   0.928   0.865  0.00  0.00    +0.600 A 
ATOM      3  N   LIG    1       -0.468   1.585   1.042  0.00  0.00    -0.500 NA
ATOM      4  C   LIG    1       -0.483   2.929   1.176  0.00  0.00    +0.080 A 
ATOM      5  C   LIG    1        0.711   3.637   1.112  0.00  0.00    -0.220 A 
ATOM      6  C   LIG    1        0.511   5.071   1.269  0.00  0.00    +0.030 A 
ATOM      7  C   LIG    1       -0.762   5.433   1.442  0.00  0.00    -0.040 A 
ATOM      8  S   LIG    1       -1.824   4.039   1.426  0.00  0.00    +0.220 S 
ATOM      9  C   LIG    1        1.915   2.897   0.911  0.00  0.00    +0.560 A 
ATOM     10  O   LIG    1        2.991   3.467   0.847  0.00  0.00    -0.500 OA
ENDROOT
BRANCH   6  11
ATOM     11  C   LIG    1        1.623   6.044   1.239  0.00  0.00    -0.140 A 
ATOM     12  C   LIG    1        1.662   7.160   0.485  0.00  0.00    +0.020 A 
ATOM     13  C   LIG    1        2.808   7.915   0.630  0.00  0.00    -0.010 A 
ATOM     14  C   LIG    1        3.706   7.421   1.487  0.00  0.00    -0.190 A 
ATOM     15  C   LIG    1        5.034   8.056   1.813  0.00  0.00    +0.150 C 
ATOM     16  S   LIG    1        3.106   5.919   2.177  0.00  0.00    +0.180 S 
ENDBRANCH   6  11
BRANCH   1  17
ATOM     17  C   LIG    1        3.062   0.774   0.586  0.00  0.00    +0.330 C 
BRANCH  17  18
ATOM     18  C   LIG    1        3.327   0.638  -0.891  0.00  0.00    +0.420 C 
ATOM     19  O   LIG    1        2.571   1.146  -1.692  0.00  0.00    -0.460 OA
BRANCH  18  23
ATOM     20  N   LIG    1        6.010  -1.049  -2.664  0.00  0.00    -0.430 N 
ATOM     21  C   LIG    1        6.392  -1.326  -1.383  0.00  0.00    +0.020 A 
ATOM     22  C   LIG    1        5.513  -0.773  -0.531  0.00  0.00    +0.000 A 
ATOM     23  C   LIG    1        4.498  -0.106  -1.359  0.00  0.00    -0.270 A 
ATOM     24  C   LIG    1        7.610  -2.120  -0.987  0.00  0.00    +0.130 C 
ATOM     25  C   LIG    1        4.880  -0.321  -2.670  0.00  0.00    +0.120 A 
ATOM     26  C   LIG    1        4.154   0.176  -3.894  0.00  0.00    +0.150 C 
BRANCH  20  27
ATOM     27  C   LIG    1        6.730  -1.484  -3.863  0.00  0.00    +0.240 C 
ATOM     28  C   LIG    1        7.038  -0.270  -4.742  0.00  0.00    +0.060 C 
BRANCH  27  29
ATOM     29  C   LIG    1        5.865  -2.474  -4.646  0.00  0.00    +0.170 C 
BRANCH  29  31
ATOM     30  C   LIG    1        5.900  -3.949  -6.536  0.00  0.00    +0.210 C 
ATOM     31  O   LIG    1        6.620  -3.008  -5.736  0.00  0.00    -0.380 OA
ENDBRANCH  29  31
ENDBRANCH  27  29
ENDBRANCH  20  27
ENDBRANCH  18  23
ENDBRANCH  17  18
ENDBRANCH   1  17
TORSDOF 7
