REMARK  Name = ZINCpe000000ZCI9.0
REMARK                            x       y       z     vdW  Elec       q    Type
REMARK                         _______ _______ _______ _____ _____    ______ ____
ROOT
ATOM      1  O   LIG    1       -2.857   4.802  -0.547  0.00  0.00    -0.510 OA
ATOM      2  C   LIG    1       -2.600   3.861   0.179  0.00  0.00    +0.560 C 
ATOM      3  N   LIG    1       -3.514   3.400   1.051  0.00  0.00    -0.740 N 
ATOM      4  H   LIG    1       -4.409   3.773   1.071  0.00  0.00    +0.410 HD
ATOM      5  C   LIG    1       -3.138   2.331   1.977  0.00  0.00    +0.250 C 
ATOM      6  C   LIG    1       -3.107   0.983   1.272  0.00  0.00    +0.230 C 
ATOM      7  N   LIG    1       -2.426   1.066  -0.019  0.00  0.00    -0.500 N 
ATOM      8  C   LIG    1       -1.243   1.785   0.051  0.00  0.00    +0.110 A 
ATOM      9  C   LIG    1       -0.014   1.140   0.044  0.00  0.00    +0.030 A 
ATOM     10  C   LIG    1        1.152   1.879   0.070  0.00  0.00    +0.040 A 
ATOM     11  C   LIG    1        1.108   3.264   0.110  0.00  0.00    +0.010 A 
ATOM     12  C   LIG    1       -0.104   3.922   0.134  0.00  0.00    +0.070 A 
ATOM     13  C   LIG    1       -1.288   3.188   0.117  0.00  0.00    -0.150 A 
ENDROOT
BRANCH   7  14
ATOM     14  C   LIG    1       -3.316   1.617  -1.050  0.00  0.00    +0.320 C 
BRANCH  14  15
ATOM     15  C   LIG    1       -2.664   1.481  -2.402  0.00  0.00    +0.190 A 
ATOM     16  N   LIG    1       -1.885   2.357  -2.986  0.00  0.00    -0.280 NA
ATOM     17  N   LIG    1       -1.528   1.875  -4.127  0.00  0.00    -0.070 NA
ATOM     18  N   LIG    1       -2.066   0.716  -4.288  0.00  0.00    -0.090 NA
ATOM     19  N   LIG    1       -2.774   0.438  -3.246  0.00  0.00    -0.290 N 
BRANCH  19  20
ATOM     20  C   LIG    1       -3.551  -0.784  -3.023  0.00  0.00    +0.360 C 
BRANCH  20  21
ATOM     21  C   LIG    1       -4.971  -0.590  -3.561  0.00  0.00    -0.020 C 
ATOM     22  C   LIG    1       -5.684   0.493  -2.745  0.00  0.00    -0.010 C 
ATOM     23  C   LIG    1       -7.128   0.622  -3.237  0.00  0.00    +0.210 C 
ATOM     24  O   LIG    1       -7.785  -0.642  -3.124  0.00  0.00    -0.380 OA
ATOM     25  C   LIG    1       -7.190  -1.680  -3.904  0.00  0.00    +0.210 C 
ATOM     26  C   LIG    1       -5.749  -1.904  -3.438  0.00  0.00    +0.010 C 
ENDBRANCH  20  21
ENDBRANCH  19  20
ENDBRANCH  14  15
ENDBRANCH   7  14
TORSDOF 4
