REMARK  Name = ZINCrH000004sV7f.0
REMARK                            x       y       z     vdW  Elec       q    Type
REMARK                         _______ _______ _______ _____ _____    ______ ____
ROOT
ATOM      1  S   LIG    1       -0.306  -2.691   5.986  0.00  0.00    -0.050 S 
ENDROOT
BRANCH   1   2
ATOM      2  C   LIG    1       -0.027  -4.023   7.185  0.00  0.00    -0.020 C 
ATOM      3  C   LIG    1        1.377  -4.599   6.990  0.00  0.00    +0.080 C 
BRANCH   2   4
ATOM      4  C   LIG    1       -0.155  -3.475   8.583  0.00  0.00    +0.540 C 
ATOM      5  N   LIG    1       -0.390  -4.309   9.615  0.00  0.00    -0.670 N 
ATOM      6  H   LIG    1       -0.553  -5.251   9.450  0.00  0.00    +0.420 HD
ATOM      7  O   LIG    1       -0.046  -2.283   8.780  0.00  0.00    -0.480 OA
BRANCH   5   8
ATOM      8  C   LIG    1       -0.400  -3.818  10.921  0.00  0.00    +0.180 A 
ATOM      9  C   LIG    1        0.450  -2.776  11.277  0.00  0.00    +0.030 A 
ATOM     10  C   LIG    1        0.440  -2.285  12.563  0.00  0.00    +0.090 A 
ATOM     11  C   LIG    1       -0.417  -2.844  13.516  0.00  0.00    -0.050 A 
ATOM     12  C   LIG    1       -1.265  -3.895  13.156  0.00  0.00    +0.090 A 
ATOM     13  C   LIG    1       -1.254  -4.377  11.866  0.00  0.00    -0.010 A 
BRANCH  11  14
ATOM     14  C   LIG    1       -0.426  -2.341  14.857  0.00  0.00    +0.250 C 
ATOM     15  N   LIG    1       -0.432  -1.942  15.920  0.00  0.00    -0.410 NA
ENDBRANCH  11  14
ENDBRANCH   5   8
ENDBRANCH   2   4
ENDBRANCH   1   2
BRANCH   1  16
ATOM     16  C   LIG    1       -0.264  -3.560   4.394  0.00  0.00    +0.140 C 
BRANCH  16  24
ATOM     17  C   LIG    1       -1.212  -0.173  -2.495  0.00  0.00    +0.160 C 
ATOM     18  C   LIG    1       -1.034  -0.751  -1.115  0.00  0.00    -0.200 A 
ATOM     19  C   LIG    1       -1.073  -0.045   0.000  0.00  0.00    -0.030 A 
ATOM     20  C   LIG    1       -0.881  -0.815   1.213  0.00  0.00    -0.220 A 
ATOM     21  C   LIG    1       -0.686  -2.162   0.953  0.00  0.00    +0.050 A 
ATOM     22  N   LIG    1       -0.490  -3.022   2.012  0.00  0.00    -0.580 N 
ATOM     23  H   LIG    1       -0.352  -3.966   1.841  0.00  0.00    +0.420 HD
ATOM     24  C   LIG    1       -0.485  -2.573   3.277  0.00  0.00    +0.460 A 
ATOM     25  N   LIG    1       -0.663  -1.316   3.578  0.00  0.00    -0.560 NA
ATOM     26  C   LIG    1       -0.864  -0.390   2.627  0.00  0.00    +0.550 A 
ATOM     27  O   LIG    1       -1.028   0.782   2.925  0.00  0.00    -0.470 OA
ATOM     28  C   LIG    1       -1.304   1.444   0.011  0.00  0.00    +0.130 C 
ATOM     29  S   LIG    1       -0.744  -2.448  -0.779  0.00  0.00    +0.170 S 
ENDBRANCH  16  24
ENDBRANCH   1  16
TORSDOF 6
