REMARK  Name = ZINCpe000000U9Na.0
REMARK                            x       y       z     vdW  Elec       q    Type
REMARK                         _______ _______ _______ _____ _____    ______ ____
ROOT
ATOM      1  N   LIG    1        0.031   7.913  -1.633  0.00  0.00    -0.530 NA
ATOM      2  C   LIG    1        0.852   7.498  -0.488  0.00  0.00    +0.180 C 
ATOM      3  C   LIG    1        1.625   6.226  -0.851  0.00  0.00    +0.280 C 
ATOM      4  N   LIG    1        0.666   5.217  -1.326  0.00  0.00    -0.590 N 
ATOM      5  C   LIG    1       -0.281   5.600  -2.385  0.00  0.00    +0.280 C 
ATOM      6  C   LIG    1        0.658   3.972  -0.809  0.00  0.00    +0.570 C 
ATOM      7  O   LIG    1        1.384   3.699   0.126  0.00  0.00    -0.540 OA
ATOM      8  C   LIG    1       -0.982   6.899  -1.957  0.00  0.00    +0.180 C 
ENDROOT
BRANCH   6   9
ATOM      9  C   LIG    1       -0.233   2.940  -1.380  0.00  0.00    -0.090 A 
ATOM     10  C   LIG    1       -0.234   2.696  -2.754  0.00  0.00    +0.040 A 
ATOM     11  C   LIG    1       -1.073   1.736  -3.281  0.00  0.00    +0.020 A 
ATOM     12  C   LIG    1       -1.907   1.011  -2.449  0.00  0.00    +0.030 A 
ATOM     13  C   LIG    1       -1.907   1.243  -1.085  0.00  0.00    +0.030 A 
ATOM     14  C   LIG    1       -1.074   2.201  -0.545  0.00  0.00    -0.070 A 
BRANCH  14  15
ATOM     15  C   LIG    1       -1.075   2.453   0.940  0.00  0.00    +0.380 C 
BRANCH  15  16
ATOM     16  N   LIG    1       -2.002   3.545   1.250  0.00  0.00    -0.370 N 
ATOM     17  C   LIG    1       -3.031   3.507   2.113  0.00  0.00    +0.470 A 
ATOM     18  N   LIG    1       -3.611   4.681   2.105  0.00  0.00    -0.550 NA
ATOM     19  C   LIG    1       -2.987   5.487   1.247  0.00  0.00    +0.410 A 
ATOM     20  N   LIG    1       -1.995   4.836   0.698  0.00  0.00    -0.300 NA
ENDBRANCH  15  16
ENDBRANCH  14  15
ENDBRANCH   6   9
BRANCH   1  21
ATOM     21  C   LIG    1       -0.592   9.220  -1.388  0.00  0.00    +0.190 C 
BRANCH  21  22
ATOM     22  C   LIG    1       -1.765   9.053  -0.420  0.00  0.00    +0.170 C 
BRANCH  22  24
ATOM     23  C   LIG    1       -3.749  10.189   0.587  0.00  0.00    +0.010 C 
ATOM     24  C   LIG    1       -2.506  10.385  -0.282  0.00  0.00    -0.020 C 
ENDBRANCH  22  24
BRANCH  22  25
ATOM     25  O   LIG    1       -1.272   8.648   0.859  0.00  0.00    -0.550 OA
ATOM     26  H   LIG    1       -0.657   9.276   1.261  0.00  0.00    +0.370 HD
ENDBRANCH  22  25
ENDBRANCH  21  22
ENDBRANCH   1  21
TORSDOF 7
