REMARK  Name = ZINCpk00000kIEAD.0
REMARK                            x       y       z     vdW  Elec       q    Type
REMARK                         _______ _______ _______ _____ _____    ______ ____
ROOT
ATOM      1  C   LIG    1       -1.278   1.400   0.046  0.00  0.00    +0.270 C 
ENDROOT
BRANCH   1   2
ATOM      2  N   LIG    1        0.086   0.867   0.080  0.00  0.00    -1.110 NA
ATOM      3  H   LIG    1        0.232  -0.082   0.219  0.00  0.00    +0.420 HD
BRANCH   2   4
ATOM      4  S   LIG    1        1.377   1.883  -0.126  0.00  0.00    +2.700 S 
ATOM      5  O   LIG    1        1.105   2.646  -1.293  0.00  0.00    -0.950 OA
ATOM      6  O   LIG    1        2.543   1.085   0.027  0.00  0.00    -0.950 OA
BRANCH   4  12
ATOM      7  C   LIG    1        0.927   6.721   1.801  0.00  0.00    +0.090 C 
ATOM      8  C   LIG    1        1.154   5.252   2.052  0.00  0.00    -0.110 A 
ATOM      9  C   LIG    1        1.357   4.795   3.340  0.00  0.00    +0.070 A 
ATOM     10  C   LIG    1        1.565   3.447   3.570  0.00  0.00    -0.010 A 
ATOM     11  C   LIG    1        1.571   2.558   2.512  0.00  0.00    +0.010 A 
ATOM     12  C   LIG    1        1.369   3.016   1.223  0.00  0.00    -0.680 A 
ATOM     13  C   LIG    1        1.799   1.090   2.763  0.00  0.00    +0.100 C 
ATOM     14  C   LIG    1        1.165   4.364   0.993  0.00  0.00    +0.120 A 
ENDBRANCH   4  12
ENDBRANCH   2   4
ENDBRANCH   1   2
BRANCH   1  15
ATOM     15  C   LIG    1       -2.270   0.252  -0.158  0.00  0.00    +0.290 C 
BRANCH  15  16
ATOM     16  N   LIG    1       -3.634   0.786  -0.192  0.00  0.00    -0.690 N 
ATOM     17  H   LIG    1       -3.785   1.738  -0.091  0.00  0.00    +0.420 HD
BRANCH  16  18
ATOM     18  C   LIG    1       -4.708  -0.071  -0.368  0.00  0.00    +0.350 A 
ATOM     19  N   LIG    1       -4.622  -1.354  -0.511  0.00  0.00    -0.500 NA
ATOM     20  C   LIG    1       -5.760  -2.033  -0.675  0.00  0.00    +0.060 A 
ATOM     21  C   LIG    1       -6.880  -1.249  -0.653  0.00  0.00    -0.230 A 
ATOM     22  C   LIG    1       -8.273  -1.809  -0.803  0.00  0.00    +0.130 C 
ATOM     23  C   LIG    1       -8.201  -3.079  -1.654  0.00  0.00    +0.290 C 
ATOM     24  N   LIG    1       -7.123  -3.961  -1.224  0.00  0.00    -0.720 N 
ATOM     25  H   LIG    1       -7.285  -4.917  -1.203  0.00  0.00    +0.410 HD
ATOM     26  C   LIG    1       -5.910  -3.502  -0.856  0.00  0.00    +0.600 C 
ATOM     27  O   LIG    1       -4.975  -4.260  -0.677  0.00  0.00    -0.510 OA
ATOM     28  S   LIG    1       -6.398   0.420  -0.422  0.00  0.00    +0.100 S 
ENDBRANCH  16  18
ENDBRANCH  15  16
ENDBRANCH   1  15
TORSDOF 6
