REMARK  Name = ZINCpk00000xIeaD.0
REMARK                            x       y       z     vdW  Elec       q    Type
REMARK                         _______ _______ _______ _____ _____    ______ ____
ROOT
ATOM      1  C   LIG    1        1.551   5.247   3.208  0.00  0.00    +0.160 A 
ATOM      2  C   LIG    1        0.382   4.895   3.885  0.00  0.00    +0.040 A 
ATOM      3  C   LIG    1        0.170   5.349   5.170  0.00  0.00    +0.200 A 
ATOM      4  C   LIG    1        1.112   6.151   5.788  0.00  0.00    -0.670 A 
ATOM      5  C   LIG    1        2.273   6.504   5.123  0.00  0.00    +0.230 A 
ATOM      6  C   LIG    1        2.501   6.052   3.840  0.00  0.00    -0.020 A 
ENDROOT
BRANCH   4   7
ATOM      7  S   LIG    1        0.832   6.727   7.430  0.00  0.00    +2.710 S 
ATOM      8  O   LIG    1       -0.574   6.700   7.630  0.00  0.00    -0.950 OA
ATOM      9  O   LIG    1        1.617   7.902   7.582  0.00  0.00    -0.950 OA
BRANCH   7  10
ATOM     10  N   LIG    1        1.473   5.601   8.461  0.00  0.00    -1.250 NA
ATOM     11  H   LIG    1        1.421   5.735   9.420  0.00  0.00    +0.430 HD
ATOM     12  H   LIG    1        1.901   4.806   8.105  0.00  0.00    +0.420 HD
ENDBRANCH   7  10
ENDBRANCH   4   7
BRANCH   6  13
ATOM     13  N   LIG    1        3.746   6.425   3.132  0.00  0.00    +0.020 N 
ATOM     14  O   LIG    1        3.944   6.029   1.998  0.00  0.00    -0.100 OA
ATOM     15  O   LIG    1        4.574   7.128   3.685  0.00  0.00    -0.160 OA
ENDBRANCH   6  13
BRANCH   1  17
ATOM     16  N   LIG    1        0.926   4.079   1.375  0.00  0.00    -0.180 NA
ATOM     17  N   LIG    1        1.769   4.799   1.931  0.00  0.00    -0.190 NA
BRANCH  16  18
ATOM     18  C   LIG    1        1.159   3.600   0.010  0.00  0.00    +0.290 C 
BRANCH  18  23
ATOM     19  C   LIG    1        0.002  -0.004   0.002  0.00  0.00    +0.100 A 
ATOM     20  C   LIG    1        1.213  -0.677  -0.013  0.00  0.00    -0.050 A 
ATOM     21  C   LIG    1        2.399   0.034  -0.021  0.00  0.00    +0.040 A 
ATOM     22  C   LIG    1        2.380   1.415  -0.013  0.00  0.00    +0.010 A 
ATOM     23  C   LIG    1        1.175   2.094   0.002  0.00  0.00    -0.080 A 
ATOM     24  C   LIG    1       -0.017   1.388   0.010  0.00  0.00    +0.100 A 
BRANCH  19  26
ATOM     25  C   LIG    1       -1.069  -2.127   0.001  0.00  0.00    +0.240 C 
ATOM     26  O   LIG    1       -1.165  -0.702   0.010  0.00  0.00    -0.310 OA
ENDBRANCH  19  26
BRANCH  24  27
ATOM     27  O   LIG    1       -1.203   2.053   0.019  0.00  0.00    -0.480 OA
ATOM     28  H   LIG    1       -1.542   2.241   0.905  0.00  0.00    +0.390 HD
ENDBRANCH  24  27
ENDBRANCH  18  23
ENDBRANCH  16  18
ENDBRANCH   1  17
TORSDOF 8
