REMARK  Name = ZINCrg000000rxjC.0
REMARK                            x       y       z     vdW  Elec       q    Type
REMARK                         _______ _______ _______ _____ _____    ______ ____
ROOT
ATOM      1  N   LIG    1        0.124   3.479   0.755  0.00  0.00    -0.510 NA
ATOM      2  C   LIG    1       -0.282   3.960  -0.572  0.00  0.00    +0.180 C 
ATOM      3  C   LIG    1       -0.915   5.349  -0.437  0.00  0.00    +0.280 C 
ATOM      4  N   LIG    1        0.026   6.223   0.279  0.00  0.00    -0.640 N 
ATOM      5  C   LIG    1        0.584   5.748   1.554  0.00  0.00    +0.310 C 
ATOM      6  C   LIG    1        0.367   7.428  -0.219  0.00  0.00    +0.720 C 
ATOM      7  N   LIG    1       -0.417   8.023  -1.140  0.00  0.00    -0.630 N 
ATOM      8  C   LIG    1       -1.744   7.481  -1.469  0.00  0.00    +0.250 C 
ATOM      9  C   LIG    1       -2.765   8.627  -1.386  0.00  0.00    +0.220 C 
ATOM     10  O   LIG    1       -2.309   9.720  -2.188  0.00  0.00    -0.380 OA
ATOM     11  C   LIG    1       -1.072  10.289  -1.753  0.00  0.00    +0.220 C 
ATOM     12  C   LIG    1        0.033   9.230  -1.851  0.00  0.00    +0.260 C 
ATOM     13  O   LIG    1        1.382   7.979   0.162  0.00  0.00    -0.580 OA
ATOM     14  C   LIG    1        1.158   4.343   1.341  0.00  0.00    +0.180 C 
ENDROOT
BRANCH   1  16
ATOM     15  C   LIG    1        1.763   1.974  -0.267  0.00  0.00    +0.030 C 
ATOM     16  C   LIG    1        0.577   2.083   0.694  0.00  0.00    +0.180 C 
BRANCH  16  17
ATOM     17  C   LIG    1       -0.549   1.211   0.204  0.00  0.00    +0.530 C 
ATOM     18  N   LIG    1       -0.401  -0.129   0.177  0.00  0.00    -0.550 N 
ATOM     19  C   LIG    1        0.757  -0.857   0.702  0.00  0.00    +0.270 C 
ATOM     20  C   LIG    1        0.454  -2.341   0.439  0.00  0.00    +0.090 C 
ATOM     21  C   LIG    1       -0.898  -2.339  -0.239  0.00  0.00    -0.140 A 
ATOM     22  C   LIG    1       -1.678  -3.378  -0.708  0.00  0.00    +0.050 A 
ATOM     23  C   LIG    1       -2.906  -3.118  -1.287  0.00  0.00    -0.010 A 
ATOM     24  C   LIG    1       -3.347  -1.813  -1.408  0.00  0.00    +0.040 A 
ATOM     25  C   LIG    1       -2.570  -0.772  -0.946  0.00  0.00    +0.010 A 
ATOM     26  C   LIG    1       -1.333  -1.028  -0.352  0.00  0.00    +0.140 A 
ATOM     27  O   LIG    1       -1.589   1.714  -0.166  0.00  0.00    -0.500 OA
ENDBRANCH  16  17
ENDBRANCH   1  16
TORSDOF 2
