REMARK  Name = ZINCrD000000AqSp.0
REMARK                            x       y       z     vdW  Elec       q    Type
REMARK                         _______ _______ _______ _____ _____    ______ ____
ROOT
ATOM      1  O   LIG    1       -2.611  -0.124   0.137  0.00  0.00    -0.480 OA
ATOM      2  C   LIG    1       -3.557  -0.875   0.030  0.00  0.00    +0.520 C 
ATOM      3  N   LIG    1       -4.806  -0.376  -0.058  0.00  0.00    -0.550 N 
ATOM      4  C   LIG    1       -5.970  -1.273  -0.053  0.00  0.00    +0.280 C 
ATOM      5  C   LIG    1       -7.021  -0.673   0.891  0.00  0.00    +0.260 C 
ATOM      6  C   LIG    1       -7.471   0.678   0.334  0.00  0.00    +0.100 C 
ATOM      7  C   LIG    1       -6.280   1.547   0.030  0.00  0.00    -0.110 A 
ATOM      8  C   LIG    1       -6.457   2.917  -0.066  0.00  0.00    +0.040 A 
ATOM      9  C   LIG    1       -5.384   3.741  -0.347  0.00  0.00    +0.000 A 
ATOM     10  C   LIG    1       -4.125   3.202  -0.533  0.00  0.00    +0.030 A 
ATOM     11  C   LIG    1       -3.939   1.837  -0.437  0.00  0.00    +0.030 A 
ATOM     12  C   LIG    1       -5.017   1.007  -0.149  0.00  0.00    +0.150 A 
ENDROOT
BRANCH   5  13
ATOM     13  N   LIG    1       -8.171  -1.575   0.982  0.00  0.00    -0.370 N 
ATOM     14  C   LIG    1       -9.220  -1.612   0.134  0.00  0.00    +0.220 A 
ATOM     15  C   LIG    1      -10.062  -2.581   0.561  0.00  0.00    -0.120 A 
ATOM     16  C   LIG    1       -9.513  -3.150   1.715  0.00  0.00    +0.240 A 
ATOM     17  N   LIG    1       -8.380  -2.547   1.968  0.00  0.00    -0.290 NA
ENDBRANCH   5  13
BRANCH   2  18
ATOM     18  C   LIG    1       -3.337  -2.365  -0.005  0.00  0.00    +0.240 C 
BRANCH  18  19
ATOM     19  O   LIG    1       -1.934  -2.639  -0.020  0.00  0.00    -0.280 OA
BRANCH  19  20
ATOM     20  C   LIG    1       -1.560  -3.946  -0.052  0.00  0.00    +0.090 A 
ATOM     21  C   LIG    1       -2.523  -4.942  -0.068  0.00  0.00    +0.000 A 
ATOM     22  C   LIG    1       -2.142  -6.271  -0.100  0.00  0.00    +0.030 A 
ATOM     23  C   LIG    1       -0.800  -6.607  -0.116  0.00  0.00    +0.100 A 
ATOM     24  C   LIG    1        0.165  -5.614  -0.099  0.00  0.00    +0.010 A 
ATOM     25  F   LIG    1       -0.430  -7.906  -0.148  0.00  0.00    -0.130 F 
ATOM     26  C   LIG    1       -0.213  -4.284  -0.067  0.00  0.00    +0.110 A 
ATOM     27  F   LIG    1        0.728  -3.314  -0.051  0.00  0.00    -0.120 F 
ENDBRANCH  19  20
ENDBRANCH  18  19
ENDBRANCH   2  18
TORSDOF 4
