REMARK  Name = ZINCwl0000000vdl.1
REMARK                            x       y       z     vdW  Elec       q    Type
REMARK                         _______ _______ _______ _____ _____    ______ ____
ROOT
ATOM      1  C   LIG    1        3.680   1.752   0.321  0.00  0.00    +0.250 C 
ENDROOT
BRANCH   1   2
ATOM      2  N   LIG    1        2.429   0.995   0.173  0.00  0.00    -0.490 N 
ATOM      3  H   LIG    1        2.499   0.383  -0.626  0.00  0.00    +0.440 HD
ATOM      4  H   LIG    1        2.268   0.446   1.004  0.00  0.00    +0.440 HD
BRANCH   2   5
ATOM      5  C   LIG    1        1.312   1.929  -0.021  0.00  0.00    +0.220 C 
BRANCH   5   6
ATOM      6  C   LIG    1        0.015   1.162  -0.050  0.00  0.00    +0.510 C 
ATOM      7  N   LIG    1       -1.126   1.753   0.354  0.00  0.00    -0.590 N 
ATOM      8  C   LIG    1       -1.149   3.174   0.736  0.00  0.00    +0.250 C 
ATOM      9  C   LIG    1       -2.296   3.857  -0.027  0.00  0.00    +0.230 C 
ATOM     10  O   LIG    1       -3.504   3.123   0.186  0.00  0.00    -0.370 OA
ATOM     11  C   LIG    1       -3.470   1.784  -0.313  0.00  0.00    +0.230 C 
ATOM     12  C   LIG    1       -2.385   0.996   0.431  0.00  0.00    +0.270 C 
ATOM     13  O   LIG    1       -0.001   0.014  -0.442  0.00  0.00    -0.510 OA
ENDBRANCH   5   6
BRANCH   5  14
ATOM     14  C   LIG    1        1.492   2.663  -1.325  0.00  0.00    -0.150 A 
ATOM     15  C   LIG    1        1.804   1.962  -2.475  0.00  0.00    +0.020 A 
ATOM     16  C   LIG    1        1.964   2.634  -3.672  0.00  0.00    +0.040 A 
ATOM     17  C   LIG    1        1.821   4.008  -3.718  0.00  0.00    +0.060 A 
ATOM     18  C   LIG    1        1.514   4.709  -2.567  0.00  0.00    +0.040 A 
ATOM     19  C   LIG    1        1.350   4.037  -1.371  0.00  0.00    +0.050 A 
ENDBRANCH   5  14
ENDBRANCH   2   5
ENDBRANCH   1   2
BRANCH   1  20
ATOM     20  C   LIG    1        4.843   0.779   0.524  0.00  0.00    +0.230 C 
BRANCH  20  21
ATOM     21  O   LIG    1        5.016  -0.009  -0.656  0.00  0.00    -0.540 OA
ATOM     22  H   LIG    1        5.211   0.507  -1.449  0.00  0.00    +0.390 HD
ENDBRANCH  20  21
BRANCH  20  23
ATOM     23  C   LIG    1        6.125   1.567   0.802  0.00  0.00    +0.190 C 
BRANCH  23  24
ATOM     24  O   LIG    1        7.186   0.659   1.105  0.00  0.00    -0.300 OA
BRANCH  24  31
ATOM     25  O   LIG    1       14.322   2.599   2.414  0.00  0.00    -0.520 OA
ATOM     26  C   LIG    1       13.245   2.106   2.151  0.00  0.00    +0.520 C 
ATOM     27  C   LIG    1       13.168   0.658   1.749  0.00  0.00    +0.090 C 
ATOM     28  C   LIG    1       11.880   0.035   2.290  0.00  0.00    +0.110 C 
ATOM     29  C   LIG    1       10.712   0.927   1.961  0.00  0.00    -0.080 A 
ATOM     30  C   LIG    1        9.476   0.377   1.688  0.00  0.00    +0.030 A 
ATOM     31  C   LIG    1        8.403   1.202   1.379  0.00  0.00    +0.100 A 
ATOM     32  C   LIG    1        8.569   2.578   1.356  0.00  0.00    -0.050 A 
ATOM     33  C   LIG    1        9.805   3.130   1.634  0.00  0.00    +0.030 A 
ATOM     34  C   LIG    1       10.880   2.306   1.937  0.00  0.00    +0.140 A 
ATOM     35  N   LIG    1       12.133   2.861   2.221  0.00  0.00    -0.670 N 
ATOM     36  H   LIG    1       12.201   3.797   2.469  0.00  0.00    +0.410 HD
ENDBRANCH  24  31
ENDBRANCH  23  24
ENDBRANCH  20  23
ENDBRANCH   1  20
TORSDOF 9
