REMARK  Name = ZINCrH00000tj13X.0
REMARK                            x       y       z     vdW  Elec       q    Type
REMARK                         _______ _______ _______ _____ _____    ______ ____
ROOT
ATOM      1  C   LIG    1        5.982   0.611  -0.051  0.00  0.00    +0.550 C 
ATOM      2  O   LIG    1        6.638   1.635  -0.051  0.00  0.00    -0.480 OA
ENDROOT
BRANCH   1   8
ATOM      3  C   LIG    1       -0.017   1.388   0.010  0.00  0.00    +0.110 A 
ATOM      4  C   LIG    1        0.002  -0.004   0.002  0.00  0.00    -0.010 A 
ATOM      5  C   LIG    1        1.196  -0.691  -0.013  0.00  0.00    +0.070 A 
ATOM      6  C   LIG    1        2.399   0.004  -0.021  0.00  0.00    +0.050 A 
ATOM      7  O   LIG    1        3.689  -0.388  -0.035  0.00  0.00    -0.170 OA
ATOM      8  C   LIG    1        4.516   0.678  -0.037  0.00  0.00    -0.020 A 
ATOM      9  C   LIG    1        3.786   1.824  -0.024  0.00  0.00    -0.060 A 
ATOM     10  C   LIG    1        4.314   3.236  -0.021  0.00  0.00    +0.150 C 
ATOM     11  C   LIG    1        2.383   1.411  -0.013  0.00  0.00    -0.110 A 
ATOM     12  C   LIG    1        1.167   2.099   0.002  0.00  0.00    +0.050 A 
BRANCH   3  14
ATOM     13  C   LIG    1       -2.391   1.254   0.020  0.00  0.00    +0.240 C 
ATOM     14  O   LIG    1       -1.205   2.050   0.019  0.00  0.00    -0.310 OA
ENDBRANCH   3  14
ENDBRANCH   1   8
BRANCH   1  15
ATOM     15  O   LIG    1        6.602  -0.587  -0.063  0.00  0.00    -0.320 OA
BRANCH  15  16
ATOM     16  C   LIG    1        8.054  -0.578  -0.076  0.00  0.00    +0.270 C 
BRANCH  16  17
ATOM     17  C   LIG    1        8.565  -1.995  -0.089  0.00  0.00    +0.520 C 
ATOM     18  N   LIG    1        9.892  -2.233  -0.102  0.00  0.00    -0.720 N 
ATOM     19  H   LIG    1       10.518  -1.492  -0.104  0.00  0.00    +0.400 HD
ATOM     20  O   LIG    1        7.783  -2.922  -0.087  0.00  0.00    -0.510 OA
BRANCH  18  21
ATOM     21  C   LIG    1       10.389  -3.611  -0.114  0.00  0.00    +0.290 C 
ATOM     22  C   LIG    1       10.431  -4.125  -1.555  0.00  0.00    +0.040 C 
BRANCH  21  23
ATOM     23  C   LIG    1       11.776  -3.650   0.473  0.00  0.00    -0.100 A 
ATOM     24  C   LIG    1       12.682  -2.650   0.173  0.00  0.00    +0.000 A 
ATOM     25  C   LIG    1       13.953  -2.684   0.716  0.00  0.00    +0.000 A 
ATOM     26  C   LIG    1       14.321  -3.722   1.551  0.00  0.00    +0.000 A 
ATOM     27  C   LIG    1       13.416  -4.724   1.847  0.00  0.00    +0.020 A 
ATOM     28  C   LIG    1       12.144  -4.689   1.308  0.00  0.00    +0.020 A 
ENDBRANCH  21  23
ENDBRANCH  18  21
ENDBRANCH  16  17
ENDBRANCH  15  16
ENDBRANCH   1  15
TORSDOF 7
