REMARK  Name = ZINCtV00001bB37b.0
REMARK                            x       y       z     vdW  Elec       q    Type
REMARK                         _______ _______ _______ _____ _____    ______ ____
ROOT
ATOM      1  N   LIG    1        4.885  -4.264  -0.064  0.00  0.00    -0.720 N 
ATOM      2  H   LIG    1        4.037  -4.735  -0.059  0.00  0.00    +0.400 HD
ATOM      3  C   LIG    1        4.907  -2.916  -0.057  0.00  0.00    +0.550 C 
ATOM      4  O   LIG    1        5.970  -2.324  -0.064  0.00  0.00    -0.540 OA
ENDROOT
BRANCH   1   6
ATOM      5  C   LIG    1        6.631  -5.163  -1.521  0.00  0.00    +0.040 C 
ATOM      6  C   LIG    1        6.142  -5.016  -0.079  0.00  0.00    +0.280 C 
BRANCH   6   7
ATOM      7  C   LIG    1        5.916  -6.382   0.517  0.00  0.00    -0.090 A 
ATOM      8  C   LIG    1        4.752  -7.074   0.233  0.00  0.00    +0.010 A 
ATOM      9  C   LIG    1        4.543  -8.327   0.772  0.00  0.00    +0.020 A 
ATOM     10  C   LIG    1        5.502  -8.891   1.612  0.00  0.00    -0.040 A 
ATOM     11  C   LIG    1        6.670  -8.187   1.898  0.00  0.00    +0.020 A 
ATOM     12  C   LIG    1        6.871  -6.937   1.349  0.00  0.00    +0.030 A 
BRANCH  10  13
ATOM     13  C   LIG    1        5.279 -10.235   2.199  0.00  0.00    -0.050 A 
ATOM     14  C   LIG    1        6.240 -10.801   3.034  0.00  0.00    +0.020 A 
ATOM     15  C   LIG    1        6.026 -12.050   3.581  0.00  0.00    +0.010 A 
ATOM     16  C   LIG    1        4.865 -12.744   3.294  0.00  0.00    +0.000 A 
ATOM     17  C   LIG    1        3.910 -12.189   2.461  0.00  0.00    +0.010 A 
ATOM     18  C   LIG    1        4.111 -10.939   1.913  0.00  0.00    +0.020 A 
ENDBRANCH  10  13
ENDBRANCH   6   7
ENDBRANCH   1   6
BRANCH   3  19
ATOM     19  C   LIG    1        3.652  -2.164  -0.042  0.00  0.00    -0.090 C 
ATOM     20  C   LIG    1        3.674  -0.813  -0.036  0.00  0.00    +0.130 C 
BRANCH  20  21
ATOM     21  C   LIG    1        2.415  -0.059  -0.021  0.00  0.00    -0.070 A 
ATOM     22  C   LIG    1        1.190  -0.721  -0.013  0.00  0.00    +0.040 A 
ATOM     23  C   LIG    1        0.002  -0.004   0.002  0.00  0.00    +0.010 A 
ATOM     24  C   LIG    1       -0.016   1.357   0.009  0.00  0.00    +0.040 A 
ATOM     25  C   LIG    1        1.182   2.091   0.002  0.00  0.00    -0.060 A 
ATOM     26  C   LIG    1        1.178   3.497   0.009  0.00  0.00    +0.030 A 
ATOM     27  C   LIG    1        2.360   4.173   0.002  0.00  0.00    +0.010 A 
ATOM     28  C   LIG    1        3.575   3.494  -0.013  0.00  0.00    +0.020 A 
ATOM     29  C   LIG    1        3.615   2.131  -0.021  0.00  0.00    +0.020 A 
ATOM     30  C   LIG    1        2.420   1.404  -0.013  0.00  0.00    -0.030 A 
ENDBRANCH  20  21
ENDBRANCH   3  19
TORSDOF 5
