REMARK  Name = ZINCpk000000oFg6.0
REMARK                            x       y       z     vdW  Elec       q    Type
REMARK                         _______ _______ _______ _____ _____    ______ ____
ROOT
ATOM      1  C   LIG    1       -4.512  -0.974   0.217  0.00  0.00    -0.020 A 
ATOM      2  N   LIG    1       -4.303  -2.277   0.222  0.00  0.00    -0.220 NA
ATOM      3  N   LIG    1       -3.086  -2.537   0.540  0.00  0.00    -0.200 N 
ATOM      4  C   LIG    1       -2.406  -1.370   0.769  0.00  0.00    -0.040 A 
ATOM      5  C   LIG    1       -3.300  -0.349   0.575  0.00  0.00    +0.060 A 
ENDROOT
BRANCH   3   6
ATOM      6  C   LIG    1       -2.537  -3.821   0.638  0.00  0.00    +0.110 A 
ATOM      7  C   LIG    1       -1.302  -4.096   0.064  0.00  0.00    +0.070 A 
ATOM      8  C   LIG    1       -0.761  -5.362   0.167  0.00  0.00    +0.020 A 
ATOM      9  C   LIG    1       -1.452  -6.359   0.831  0.00  0.00    +0.030 A 
ATOM     10  C   LIG    1       -2.683  -6.090   1.399  0.00  0.00    +0.030 A 
ATOM     11  C   LIG    1       -3.228  -4.825   1.304  0.00  0.00    +0.040 A 
ENDBRANCH   3   6
BRANCH   4  12
ATOM     12  C   LIG    1       -0.993  -1.239   1.155  0.00  0.00    +0.590 C 
ATOM     13  O   LIG    1       -0.336  -2.231   1.406  0.00  0.00    -0.520 OA
ATOM     14  N   LIG    1       -0.425  -0.018   1.232  0.00  0.00    -0.830 N 
ATOM     15  H   LIG    1        0.483   0.075   1.560  0.00  0.00    +0.410 HD
ATOM     16  H   LIG    1       -0.927   0.767   0.962  0.00  0.00    +0.410 HD
ENDBRANCH   4  12
BRANCH   1  18
ATOM     17  N   LIG    1       -6.832  -1.005  -0.560  0.00  0.00    -0.600 N 
ATOM     18  C   LIG    1       -5.784  -0.293  -0.100  0.00  0.00    +0.610 C 
ATOM     19  O   LIG    1       -5.886   0.908   0.055  0.00  0.00    -0.530 OA
BRANCH  17  21
ATOM     20  C   LIG    1       -7.031  -3.099   0.687  0.00  0.00    +0.020 C 
ATOM     21  C   LIG    1       -6.735  -2.462  -0.672  0.00  0.00    +0.270 C 
ENDBRANCH  17  21
BRANCH  17  22
ATOM     22  C   LIG    1       -8.068  -0.321  -0.949  0.00  0.00    +0.310 C 
BRANCH  22  23
ATOM     23  C   LIG    1       -7.935   0.197  -2.382  0.00  0.00    -0.050 C 
ATOM     24  C   LIG    1       -9.262   0.842  -2.851  0.00  0.00    +0.010 C 
ATOM     25  C   LIG    1       -9.366   0.344  -4.315  0.00  0.00    +0.200 C 
ATOM     26  O   LIG    1       -8.846  -1.001  -4.251  0.00  0.00    -0.380 OA
ATOM     27  C   LIG    1       -7.717  -0.973  -3.361  0.00  0.00    +0.200 C 
ENDBRANCH  22  23
ENDBRANCH  17  22
ENDBRANCH   1  18
TORSDOF 6
