REMARK  Name = ZINCpk0000058q1G.0
REMARK                            x       y       z     vdW  Elec       q    Type
REMARK                         _______ _______ _______ _____ _____    ______ ____
ROOT
ATOM      1  C   LIG    1        2.427  -1.997   7.664  0.00  0.00    +0.230 C 
ATOM      2  C   LIG    1        3.704  -2.722   7.235  0.00  0.00    +0.040 C 
ENDROOT
BRANCH   1   4
ATOM      3  C   LIG    1        2.054  -0.327   5.929  0.00  0.00    +0.560 C 
ATOM      4  N   LIG    1        1.719  -1.512   6.477  0.00  0.00    -0.730 N 
ATOM      5  H   LIG    1        1.008  -2.043   6.085  0.00  0.00    +0.400 HD
ATOM      6  O   LIG    1        2.944   0.340   6.421  0.00  0.00    -0.530 OA
BRANCH   3  10
ATOM      7  C   LIG    1        0.000   1.080   2.488  0.00  0.00    -0.050 A 
ATOM      8  C   LIG    1       -0.350  -0.135   3.050  0.00  0.00    +0.000 A 
ATOM      9  C   LIG    1        0.316  -0.600   4.165  0.00  0.00    +0.040 A 
ATOM     10  C   LIG    1        1.339   0.163   4.731  0.00  0.00    -0.150 A 
ATOM     11  C   LIG    1        1.684   1.390   4.162  0.00  0.00    +0.090 A 
ATOM     12  C   LIG    1        1.013   1.841   3.045  0.00  0.00    +0.000 A 
BRANCH   7  14
ATOM     13  C   LIG    1       -0.013   1.086   0.008  0.00  0.00    +0.030 C 
ATOM     14  C   LIG    1       -0.729   1.579   1.267  0.00  0.00    +0.070 C 
ENDBRANCH   7  14
ENDBRANCH   3  10
ENDBRANCH   1   4
BRANCH   1  15
ATOM     15  C   LIG    1        1.526  -2.963   8.436  0.00  0.00    +0.280 C 
BRANCH  15  16
ATOM     16  N   LIG    1        0.254  -2.305   8.743  0.00  0.00    -0.730 N 
ATOM     17  H   LIG    1        0.099  -1.391   8.457  0.00  0.00    +0.400 HD
ATOM     18  C   LIG    1       -0.702  -2.970   9.422  0.00  0.00    +0.500 C 
ATOM     19  O   LIG    1       -0.509  -4.112   9.780  0.00  0.00    -0.520 OA
BRANCH  18  20
ATOM     20  C   LIG    1       -2.011  -2.292   9.738  0.00  0.00    +0.230 C 
ATOM     21  C   LIG    1       -2.912  -2.332   8.503  0.00  0.00    +0.040 C 
ATOM     22  C   LIG    1       -4.311  -1.846   8.900  0.00  0.00    +0.050 C 
ATOM     23  C   LIG    1       -4.931  -2.878   9.845  0.00  0.00    +0.060 C 
ATOM     24  C   LIG    1       -3.956  -3.227  10.932  0.00  0.00    +0.520 C 
ATOM     25  O   LIG    1       -4.380  -3.766  11.932  0.00  0.00    -0.540 OA
ATOM     26  N   LIG    1       -2.649  -2.975  10.857  0.00  0.00    -0.590 N 
ATOM     27  C   LIG    1       -1.800  -3.412  11.968  0.00  0.00    +0.280 C 
ENDBRANCH  18  20
ENDBRANCH  15  16
ENDBRANCH   1  15
TORSDOF 6
