REMARK  Name = ZINCvU00000006BO.0
REMARK                            x       y       z     vdW  Elec       q    Type
REMARK                         _______ _______ _______ _____ _____    ______ ____
ROOT
ATOM      1  C   LIG    1        0.249   0.901   0.582  0.00  0.00    +0.550 C 
ATOM      2  N   LIG    1       -0.229   1.561   1.655  0.00  0.00    -0.600 N 
ATOM      3  O   LIG    1       -0.193  -0.196   0.296  0.00  0.00    -0.540 OA
ENDROOT
BRANCH   1   5
ATOM      4  C   LIG    1        1.742   0.877  -1.332  0.00  0.00    +0.140 C 
ATOM      5  C   LIG    1        1.305   1.506  -0.244  0.00  0.00    -0.090 C 
ENDBRANCH   1   5
BRANCH   2   6
ATOM      6  C   LIG    1       -1.210   0.919   2.533  0.00  0.00    +0.280 C 
BRANCH   6   7
ATOM      7  C   LIG    1       -0.488  -0.004   3.516  0.00  0.00    -0.010 C 
ATOM      8  C   LIG    1        0.319   0.832   4.530  0.00  0.00    +0.040 C 
ATOM      9  C   LIG    1        0.171   0.057   5.864  0.00  0.00    +0.030 C 
ATOM     10  C   LIG    1       -1.295  -0.440   5.811  0.00  0.00    +0.090 C 
ATOM     11  C   LIG    1       -1.514  -0.813   4.330  0.00  0.00    +0.080 C 
BRANCH  10  12
ATOM     12  C   LIG    1       -1.477  -1.668   6.705  0.00  0.00    +0.430 C 
ATOM     13  F   LIG    1       -2.773  -2.170   6.550  0.00  0.00    -0.170 F 
ATOM     14  F   LIG    1       -1.273  -1.307   8.041  0.00  0.00    -0.180 F 
ATOM     15  F   LIG    1       -0.550  -2.651   6.341  0.00  0.00    -0.180 F 
ENDBRANCH  10  12
BRANCH  10  16
ATOM     16  O   LIG    1       -2.191   0.602   6.202  0.00  0.00    -0.520 OA
ATOM     17  H   LIG    1       -2.096   0.876   7.124  0.00  0.00    +0.390 HD
ENDBRANCH  10  16
ENDBRANCH   6   7
ENDBRANCH   2   6
BRANCH   2  18
ATOM     18  C   LIG    1        0.234   2.920   1.944  0.00  0.00    +0.330 C 
BRANCH  18  19
ATOM     19  C   LIG    1       -0.467   3.894   1.032  0.00  0.00    -0.110 A 
ATOM     20  C   LIG    1        0.175   4.369  -0.096  0.00  0.00    +0.020 A 
ATOM     21  C   LIG    1       -0.468   5.262  -0.933  0.00  0.00    +0.000 A 
ATOM     22  C   LIG    1       -1.753   5.680  -0.641  0.00  0.00    +0.010 A 
ATOM     23  C   LIG    1       -2.395   5.205   0.487  0.00  0.00    +0.030 A 
ATOM     24  C   LIG    1       -1.754   4.309   1.322  0.00  0.00    -0.070 A 
BRANCH  24  25
ATOM     25  C   LIG    1       -2.456   3.787   2.549  0.00  0.00    +0.220 C 
BRANCH  25  26
ATOM     26  O   LIG    1       -3.691   4.483   2.723  0.00  0.00    -0.380 OA
BRANCH  26  27
ATOM     27  C   LIG    1       -4.386   4.142   3.925  0.00  0.00    +0.150 C 
ATOM     28  C   LIG    1       -5.245   2.900   3.682  0.00  0.00    -0.010 C 
ATOM     29  C   LIG    1       -5.989   2.534   4.968  0.00  0.00    +0.010 C 
ATOM     30  C   LIG    1       -6.886   3.701   5.387  0.00  0.00    +0.000 C 
ATOM     31  C   LIG    1       -6.027   4.944   5.630  0.00  0.00    +0.010 C 
ATOM     32  C   LIG    1       -5.283   5.309   4.344  0.00  0.00    +0.030 C 
ENDBRANCH  26  27
ENDBRANCH  25  26
ENDBRANCH  24  25
ENDBRANCH  18  19
ENDBRANCH   2  18
TORSDOF 10
