REMARK  Name = ZINCqH0000008zYG.0
REMARK                            x       y       z     vdW  Elec       q    Type
REMARK                         _______ _______ _______ _____ _____    ______ ____
ROOT
ATOM      1  N   LIG    1       -1.215   3.489  -0.320  0.00  0.00    -1.010 NA
ATOM      2  C   LIG    1       -0.567   3.399  -1.636  0.00  0.00    +0.300 C 
ATOM      3  C   LIG    1       -0.783   1.989  -2.196  0.00  0.00    +0.040 C 
ATOM      4  C   LIG    1       -0.286   0.959  -1.179  0.00  0.00    +0.130 C 
ATOM      5  C   LIG    1       -1.089   1.092   0.117  0.00  0.00    +0.040 C 
ATOM      6  C   LIG    1       -0.877   2.491   0.704  0.00  0.00    +0.300 C 
ENDROOT
BRANCH   4   7
ATOM      7  C   LIG    1       -0.466  -0.428  -1.740  0.00  0.00    +0.260 A 
ATOM      8  N   LIG    1        0.496  -1.277  -1.943  0.00  0.00    -0.470 NA
ATOM      9  C   LIG    1       -0.030  -2.422  -2.456  0.00  0.00    +0.030 A 
ATOM     10  C   LIG    1        0.517  -3.642  -2.857  0.00  0.00    +0.100 A 
ATOM     11  C   LIG    1       -0.306  -4.631  -3.350  0.00  0.00    -0.040 A 
ATOM     12  C   LIG    1       -1.674  -4.421  -3.450  0.00  0.00    +0.070 A 
ATOM     13  C   LIG    1       -2.228  -3.220  -3.057  0.00  0.00    +0.070 A 
ATOM     14 CL   LIG    1        0.372  -6.149  -3.849  0.00  0.00    -0.050 Cl
ATOM     15  C   LIG    1       -1.414  -2.214  -2.559  0.00  0.00    +0.010 A 
ATOM     16  O   LIG    1       -1.643  -0.964  -2.098  0.00  0.00    -0.210 OA
ENDBRANCH   4   7
BRANCH   1  17
ATOM     17  S   LIG    1       -2.305   4.693   0.003  0.00  0.00    +2.780 S 
ATOM     18  O   LIG    1       -2.209   5.620  -1.070  0.00  0.00    -0.970 OA
ATOM     19  O   LIG    1       -2.111   5.056   1.363  0.00  0.00    -0.970 OA
BRANCH  17  26
ATOM     20  C   LIG    1       -3.628   4.485  -2.491  0.00  0.00    +0.040 C 
ATOM     21  C   LIG    1       -4.473   3.835  -1.392  0.00  0.00    +0.230 C 
ATOM     22  C   LIG    1       -5.854   4.496  -1.348  0.00  0.00    +0.010 C 
ATOM     23  C   LIG    1       -6.643   3.940  -0.160  0.00  0.00    +0.010 C 
ATOM     24  C   LIG    1       -5.909   4.269   1.141  0.00  0.00    +0.020 C 
ATOM     25  C   LIG    1       -4.525   3.601   1.125  0.00  0.00    +0.280 C 
ATOM     26  N   LIG    1       -3.817   4.024  -0.091  0.00  0.00    -1.000 NA
ENDBRANCH  17  26
ENDBRANCH   1  17
TORSDOF 3
