REMARK  Name = ZINCvU00000007Ym.0
REMARK                            x       y       z     vdW  Elec       q    Type
REMARK                         _______ _______ _______ _____ _____    ______ ____
ROOT
ATOM      1  C   LIG    1        0.122   0.990  -2.724  0.00  0.00    +0.160 A 
ATOM      2  N   LIG    1        1.194   0.253  -2.549  0.00  0.00    -0.290 NA
ATOM      3  N   LIG    1        1.683  -0.084  -3.689  0.00  0.00    -0.250 NA
ATOM      4  C   LIG    1        0.958   0.414  -4.651  0.00  0.00    +0.180 A 
ATOM      5  N   LIG    1       -0.066   1.111  -4.071  0.00  0.00    -0.450 N 
ENDROOT
BRANCH   1   6
ATOM      6  S   LIG    1       -0.888   1.685  -1.458  0.00  0.00    +0.070 S 
BRANCH   6   7
ATOM      7  C   LIG    1       -0.013   1.086   0.008  0.00  0.00    +0.090 C 
BRANCH   7   8
ATOM      8  C   LIG    1       -0.718   1.572   1.248  0.00  0.00    +0.420 C 
ATOM      9  O   LIG    1       -1.714   2.256   1.150  0.00  0.00    -0.440 OA
BRANCH   8  13
ATOM     10  C   LIG    1        0.782   0.547   5.081  0.00  0.00    -0.040 A 
ATOM     11  C   LIG    1       -0.356   1.327   4.973  0.00  0.00    +0.000 A 
ATOM     12  C   LIG    1       -0.850   1.665   3.731  0.00  0.00    +0.090 A 
ATOM     13  C   LIG    1       -0.198   1.216   2.578  0.00  0.00    -0.170 A 
ATOM     14  C   LIG    1        0.948   0.422   2.695  0.00  0.00    +0.070 A 
ATOM     15  C   LIG    1        1.433   0.098   3.945  0.00  0.00    +0.000 A 
BRANCH  10  17
ATOM     16  C   LIG    1        0.679  -1.130   6.905  0.00  0.00    +0.030 C 
ATOM     17  C   LIG    1        1.315   0.182   6.443  0.00  0.00    +0.070 C 
ENDBRANCH  10  17
ENDBRANCH   8  13
ENDBRANCH   7   8
ENDBRANCH   6   7
ENDBRANCH   1   6
BRANCH   4  18
ATOM     18  C   LIG    1        1.199   0.247  -6.129  0.00  0.00    +0.330 C 
BRANCH  18  19
ATOM     19  O   LIG    1        0.512  -0.916  -6.596  0.00  0.00    -0.310 OA
BRANCH  19  20
ATOM     20  C   LIG    1        0.627  -1.212  -7.917  0.00  0.00    +0.130 A 
ATOM     21  C   LIG    1        1.380  -0.397  -8.749  0.00  0.00    -0.080 A 
ATOM     22  C   LIG    1        1.500  -0.703 -10.091  0.00  0.00    +0.050 A 
ATOM     23  C   LIG    1        0.861  -1.815 -10.607  0.00  0.00    -0.020 A 
ATOM     24  C   LIG    1        0.105  -2.626  -9.781  0.00  0.00    +0.050 A 
ATOM     25  C   LIG    1       -0.013  -2.328  -8.437  0.00  0.00    -0.020 A 
ENDBRANCH  19  20
ENDBRANCH  18  19
ENDBRANCH   4  18
BRANCH   5  26
ATOM     26  C   LIG    1       -1.139   1.839  -4.752  0.00  0.00    +0.440 C 
BRANCH  26  27
ATOM     27  C   LIG    1       -0.706   3.262  -4.993  0.00  0.00    -0.060 A 
ATOM     28  C   LIG    1       -0.064   3.715  -6.084  0.00  0.00    -0.020 A 
ATOM     29  C   LIG    1        0.145   5.100  -5.891  0.00  0.00    -0.070 A 
ATOM     30  C   LIG    1       -0.383   5.410  -4.694  0.00  0.00    +0.200 A 
ATOM     31  O   LIG    1       -0.902   4.294  -4.157  0.00  0.00    -0.160 OA
ENDBRANCH  26  27
ENDBRANCH   5  26
TORSDOF 10
