REMARK  Name = ZINCkj00000vA0oo.1
REMARK                            x       y       z     vdW  Elec       q    Type
REMARK                         _______ _______ _______ _____ _____    ______ ____
ROOT
ATOM      1  C   LIG    1       -1.378   0.930   1.838  0.00  0.00    +0.500 C 
ATOM      2  N   LIG    1       -1.028   1.721   0.805  0.00  0.00    -0.580 N 
ATOM      3  C   LIG    1       -0.646   1.139  -0.489  0.00  0.00    +0.270 C 
ATOM      4  C   LIG    1       -1.502   1.772  -1.590  0.00  0.00    +0.020 C 
ATOM      5  C   LIG    1       -1.367   3.295  -1.523  0.00  0.00    +0.030 C 
ATOM      6  C   LIG    1       -1.876   3.794  -0.168  0.00  0.00    +0.030 C 
ATOM      7  C   LIG    1       -1.024   3.184   0.949  0.00  0.00    +0.230 C 
ATOM      8  O   LIG    1       -1.786   1.422   2.868  0.00  0.00    -0.520 OA
ENDROOT
BRANCH   1  14
ATOM      9  C   LIG    1       -0.114  -0.015   3.753  0.00  0.00    +0.320 C 
ATOM     10  N   LIG    1       -0.526  -1.112   2.868  0.00  0.00    -0.380 N 
ATOM     11  C   LIG    1       -1.424  -2.035   3.601  0.00  0.00    +0.270 C 
ATOM     12  C   LIG    1       -2.460  -2.500   2.547  0.00  0.00    +0.080 C 
ATOM     13  C   LIG    1       -2.667  -1.205   1.719  0.00  0.00    +0.100 C 
ATOM     14  C   LIG    1       -1.262  -0.568   1.712  0.00  0.00    +0.150 C 
ATOM     15  H   LIG    1        0.289  -1.612   2.547  0.00  0.00    +0.430 HD
ENDBRANCH   1  14
BRANCH   7  16
ATOM     16  C   LIG    1       -1.610   3.570   2.309  0.00  0.00    +0.360 C 
BRANCH  16  17
ATOM     17  N   LIG    1       -1.589   5.027   2.454  0.00  0.00    -0.380 N 
ATOM     18  C   LIG    1       -2.647   5.810   2.752  0.00  0.00    +0.220 A 
ATOM     19  C   LIG    1       -2.213   7.091   2.794  0.00  0.00    -0.120 A 
ATOM     20  C   LIG    1       -0.843   7.091   2.512  0.00  0.00    +0.240 A 
ATOM     21  N   LIG    1       -0.467   5.854   2.313  0.00  0.00    -0.300 NA
ENDBRANCH  16  17
ENDBRANCH   7  16
TORSDOF 3
