REMARK  Name = ZINCkj00000vA0oo.0
REMARK                            x       y       z     vdW  Elec       q    Type
REMARK                         _______ _______ _______ _____ _____    ______ ____
ROOT
ATOM      1  C   LIG    1        3.068  -1.891  -0.156  0.00  0.00    +0.510 C 
ATOM      2  N   LIG    1        3.621  -1.461   0.996  0.00  0.00    -0.580 N 
ATOM      3  C   LIG    1        3.993  -2.414   2.050  0.00  0.00    +0.270 C 
ATOM      4  C   LIG    1        5.462  -2.191   2.421  0.00  0.00    +0.020 C 
ATOM      5  C   LIG    1        5.671  -0.723   2.799  0.00  0.00    +0.030 C 
ATOM      6  C   LIG    1        5.335   0.168   1.601  0.00  0.00    +0.030 C 
ATOM      7  C   LIG    1        3.864  -0.029   1.220  0.00  0.00    +0.230 C 
ATOM      8  O   LIG    1        2.861  -1.109  -1.059  0.00  0.00    -0.530 OA
ENDROOT
BRANCH   1  14
ATOM      9  C   LIG    1        0.502  -4.141  -0.860  0.00  0.00    +0.320 C 
ATOM     10  N   LIG    1        1.708  -3.495  -1.395  0.00  0.00    -0.380 N 
ATOM     11  C   LIG    1        2.289  -4.333  -2.465  0.00  0.00    +0.270 C 
ATOM     12  C   LIG    1        3.384  -5.172  -1.760  0.00  0.00    +0.080 C 
ATOM     13  C   LIG    1        3.955  -4.151  -0.742  0.00  0.00    +0.100 C 
ATOM     14  C   LIG    1        2.708  -3.345  -0.321  0.00  0.00    +0.160 C 
ATOM     15  H   LIG    1        1.470  -2.588  -1.766  0.00  0.00    +0.430 HD
ENDBRANCH   1  14
BRANCH   7  16
ATOM     16  C   LIG    1        3.557   0.750  -0.061  0.00  0.00    +0.360 C 
BRANCH  16  17
ATOM     17  N   LIG    1        3.799   2.177   0.167  0.00  0.00    -0.380 N 
ATOM     18  C   LIG    1        4.606   2.972  -0.566  0.00  0.00    +0.220 A 
ATOM     19  C   LIG    1        4.555   4.215  -0.034  0.00  0.00    -0.120 A 
ATOM     20  C   LIG    1        3.686   4.178   1.062  0.00  0.00    +0.240 A 
ATOM     21  N   LIG    1        3.232   2.957   1.183  0.00  0.00    -0.300 NA
ENDBRANCH  16  17
ENDBRANCH   7  16
TORSDOF 3
