REMARK  Name = ZINCnE000001Uq4X.1
REMARK                            x       y       z     vdW  Elec       q    Type
REMARK                         _______ _______ _______ _____ _____    ______ ____
ROOT
ATOM      1  O   LIG    1        3.602   6.994   0.004  0.00  0.00    -0.510 OA
ATOM      2  C   LIG    1        3.613   5.773  -0.002  0.00  0.00    +0.550 A 
ATOM      3  N   LIG    1        2.465   5.085   0.005  0.00  0.00    -0.600 NA
ATOM      4  C   LIG    1        2.452   3.771  -0.002  0.00  0.00    +0.540 A 
ATOM      5  N   LIG    1        3.594   3.036  -0.011  0.00  0.00    -0.580 N 
ATOM      6  H   LIG    1        3.540   2.068  -0.012  0.00  0.00    +0.430 HD
ATOM      7  C   LIG    1        4.827   3.647  -0.026  0.00  0.00    +0.080 A 
ATOM      8  S   LIG    1        6.453   2.978  -0.045  0.00  0.00    +0.180 S 
ATOM      9  C   LIG    1        7.165   4.583  -0.043  0.00  0.00    -0.180 A 
ATOM     10  C   LIG    1        6.210   5.517  -0.029  0.00  0.00    +0.110 A 
ATOM     11  C   LIG    1        4.894   5.034  -0.019  0.00  0.00    -0.240 A 
ENDROOT
BRANCH   4  12
ATOM     12  C   LIG    1        1.152   3.068   0.007  0.00  0.00    -0.060 A 
ATOM     13  C   LIG    1       -0.032   3.807   0.023  0.00  0.00    +0.100 A 
ATOM     14  C   LIG    1       -1.243   3.139   0.031  0.00  0.00    -0.130 A 
ATOM     15  C   LIG    1       -1.232   1.747   0.017  0.00  0.00    +0.260 A 
ATOM     16  C   LIG    1       -0.013   1.076   0.008  0.00  0.00    +0.120 A 
ATOM     17  O   LIG    1       -2.398   1.051   0.019  0.00  0.00    -0.680 OA
ATOM     18  N   LIG    1        1.121   1.740   0.001  0.00  0.00    -0.430 NA
ENDBRANCH   4  12
BRANCH   9  19
ATOM     19  C   LIG    1        8.616   4.862  -0.055  0.00  0.00    +0.000 A 
ATOM     20  C   LIG    1        9.077   6.179  -0.058  0.00  0.00    +0.020 A 
ATOM     21  C   LIG    1       10.433   6.432  -0.063  0.00  0.00    +0.020 A 
ATOM     22  C   LIG    1       11.336   5.384  -0.077  0.00  0.00    +0.000 A 
ATOM     23  C   LIG    1       10.886   4.075  -0.081  0.00  0.00    +0.010 A 
ATOM     24  C   LIG    1        9.532   3.808  -0.070  0.00  0.00    +0.000 A 
ENDBRANCH   9  19
TORSDOF 2
