REMARK  Name = ZINCpk000000pUfM.0
REMARK                            x       y       z     vdW  Elec       q    Type
REMARK                         _______ _______ _______ _____ _____    ______ ____
ROOT
ATOM      1  C   LIG    1       -0.018   1.523   0.010  0.00  0.00    +0.100 C 
ATOM      2  C   LIG    1       -0.762   2.033  -1.230  0.00  0.00    +0.290 C 
ATOM      3  N   LIG    1       -2.182   1.667  -1.100  0.00  0.00    -0.630 N 
ATOM      4  C   LIG    1       -2.873   2.005   0.154  0.00  0.00    +0.240 C 
ATOM      5  C   LIG    1       -2.025   1.496   1.325  0.00  0.00    +0.220 C 
ATOM      6  C   LIG    1       -2.830   1.040  -2.102  0.00  0.00    +0.720 C 
ATOM      7  N   LIG    1       -4.100   0.624  -1.926  0.00  0.00    -0.720 N 
ATOM      8  H   LIG    1       -4.572   0.840  -1.107  0.00  0.00    +0.410 HD
ATOM      9  O   LIG    1       -2.270   0.850  -3.164  0.00  0.00    -0.590 OA
ATOM     10  C   LIG    1        0.003  -0.007  -0.001  0.00  0.00    +0.020 C 
ATOM     11  O   LIG    1       -0.688   1.983   1.185  0.00  0.00    -0.360 OA
ENDROOT
BRANCH   1  13
ATOM     12  C   LIG    1        2.195   1.446   1.169  0.00  0.00    +0.030 C 
ATOM     13  C   LIG    1        1.417   2.053  -0.001  0.00  0.00    +0.040 C 
ENDBRANCH   1  13
BRANCH   7  14
ATOM     14  C   LIG    1       -4.767  -0.155  -2.973  0.00  0.00    +0.460 C 
BRANCH  14  15
ATOM     15  C   LIG    1       -5.367   0.781  -3.990  0.00  0.00    +0.190 A 
ATOM     16  N   LIG    1       -6.052   1.859  -3.720  0.00  0.00    -0.450 NA
ATOM     17  C   LIG    1       -6.428   2.442  -4.868  0.00  0.00    +0.140 A 
ATOM     18  C   LIG    1       -5.960   1.697  -5.887  0.00  0.00    +0.130 A 
ATOM     19  N   LIG    1       -5.282   0.646  -5.331  0.00  0.00    -0.450 N 
ATOM     20  C   LIG    1       -4.594  -0.426  -6.054  0.00  0.00    +0.320 C 
ENDBRANCH  14  15
BRANCH  14  21
ATOM     21  C   LIG    1       -5.857  -0.994  -2.357  0.00  0.00    +0.190 A 
ATOM     22  N   LIG    1       -6.726  -0.584  -1.474  0.00  0.00    -0.450 NA
ATOM     23  C   LIG    1       -7.543  -1.598  -1.153  0.00  0.00    +0.160 A 
ATOM     24  C   LIG    1       -7.165  -2.678  -1.863  0.00  0.00    +0.140 A 
ATOM     25  N   LIG    1       -6.100  -2.294  -2.631  0.00  0.00    -0.450 N 
ATOM     26  C   LIG    1       -5.359  -3.137  -3.573  0.00  0.00    +0.310 C 
ENDBRANCH  14  21
ENDBRANCH   7  14
TORSDOF 4
