REMARK  Name = ZINCtV00000L6kpV.0
REMARK                            x       y       z     vdW  Elec       q    Type
REMARK                         _______ _______ _______ _____ _____    ______ ____
ROOT
ATOM      1  C   LIG    1        0.826  -0.849   0.143  0.00  0.00    +0.250 A 
ATOM      2  C   LIG    1        1.954  -0.086  -0.176  0.00  0.00    +0.020 A 
ATOM      3  C   LIG    1        1.811   1.243  -0.466  0.00  0.00    -0.060 A 
ATOM      4  C   LIG    1        0.523   1.797  -0.433  0.00  0.00    -0.180 A 
ATOM      5  C   LIG    1        0.010   3.094  -0.669  0.00  0.00    +0.120 A 
ATOM      6  N   LIG    1       -1.281   3.067  -0.500  0.00  0.00    -0.210 NA
ATOM      7  N   LIG    1       -1.687   1.772  -0.154  0.00  0.00    -0.340 N 
ATOM      8  C   LIG    1        0.821   4.305  -1.052  0.00  0.00    +0.180 C 
ATOM      9  C   LIG    1       -0.573   0.973  -0.103  0.00  0.00    +0.330 A 
ATOM     10  N   LIG    1       -0.383  -0.309   0.170  0.00  0.00    -0.460 NA
ENDROOT
BRANCH   7  11
ATOM     11  C   LIG    1       -3.004   1.364   0.098  0.00  0.00    +0.110 A 
ATOM     12  C   LIG    1       -3.496   0.204  -0.484  0.00  0.00    +0.100 A 
ATOM     13  C   LIG    1       -4.794  -0.197  -0.234  0.00  0.00    +0.020 A 
ATOM     14  C   LIG    1       -5.606   0.556   0.597  0.00  0.00    +0.140 A 
ATOM     15  C   LIG    1       -5.119   1.714   1.180  0.00  0.00    -0.020 A 
ATOM     16  F   LIG    1       -6.875   0.161   0.839  0.00  0.00    -0.120 F 
ATOM     17  C   LIG    1       -3.819   2.117   0.937  0.00  0.00    +0.150 A 
ATOM     18  F   LIG    1       -3.341   3.243   1.510  0.00  0.00    -0.110 F 
ENDBRANCH   7  11
BRANCH   1  25
ATOM     19  C   LIG    1       -0.422  -1.947   2.511  0.00  0.00    +0.100 C 
ATOM     20  C   LIG    1        0.389  -2.827   1.596  0.00  0.00    -0.040 A 
ATOM     21  C   LIG    1        0.538  -4.170   1.880  0.00  0.00    +0.010 A 
ATOM     22  C   LIG    1        1.287  -4.978   1.044  0.00  0.00    +0.030 A 
ATOM     23  C   LIG    1        1.887  -4.447  -0.084  0.00  0.00    +0.000 A 
ATOM     24  C   LIG    1        1.741  -3.108  -0.381  0.00  0.00    +0.040 A 
ATOM     25  C   LIG    1        0.987  -2.289   0.457  0.00  0.00    -0.060 A 
ENDBRANCH   1  25
BRANCH   3  26
ATOM     26  C   LIG    1        3.008   2.090  -0.814  0.00  0.00    +0.510 C 
ATOM     27  F   LIG    1        3.125   3.134   0.111  0.00  0.00    -0.160 F 
ATOM     28  F   LIG    1        2.846   2.621  -2.098  0.00  0.00    -0.160 F 
ATOM     29  F   LIG    1        4.163   1.303  -0.777  0.00  0.00    -0.170 F 
ENDBRANCH   3  26
TORSDOF 3
