REMARK  Name = ZINCpk00000Fdkqn.0
REMARK                            x       y       z     vdW  Elec       q    Type
REMARK                         _______ _______ _______ _____ _____    ______ ____
ROOT
ATOM      1  C   LIG    1        1.090   5.855   3.070  0.00  0.00    +0.290 C 
ENDROOT
BRANCH   1   2
ATOM      2  C   LIG    1        1.059   7.385   3.078  0.00  0.00    -0.010 C 
ATOM      3  C   LIG    1        1.187   7.891   4.518  0.00  0.00    +0.050 C 
ATOM      4  C   LIG    1        1.394   9.411   4.503  0.00  0.00    +0.180 C 
ATOM      5  C   LIG    1        0.349  10.020   3.599  0.00  0.00    +0.230 A 
ATOM      6  N   LIG    1       -0.007  11.270   3.534  0.00  0.00    -0.450 NA
ATOM      7  C   LIG    1       -0.968  11.408   2.606  0.00  0.00    -0.100 A 
ATOM      8  C   LIG    1       -1.216  10.192   2.077  0.00  0.00    +0.220 A 
ATOM      9  N   LIG    1       -0.383   9.315   2.704  0.00  0.00    -0.450 N 
ATOM     10  C   LIG    1       -0.267   7.872   2.482  0.00  0.00    +0.300 C 
BRANCH   7  11
ATOM     11  C   LIG    1       -1.651  12.695   2.223  0.00  0.00    +0.550 C 
ATOM     12  F   LIG    1       -3.005  12.625   2.567  0.00  0.00    -0.170 F 
ATOM     13  F   LIG    1       -1.530  12.895   0.844  0.00  0.00    -0.170 F 
ATOM     14  F   LIG    1       -1.052  13.761   2.904  0.00  0.00    -0.170 F 
ENDBRANCH   7  11
ENDBRANCH   1   2
BRANCH   1  17
ATOM     15  O   LIG    1        1.137   3.258   2.351  0.00  0.00    -0.520 OA
ATOM     16  C   LIG    1        1.112   4.051   1.433  0.00  0.00    +0.500 C 
ATOM     17  N   LIG    1        1.087   5.374   1.687  0.00  0.00    -0.730 N 
ATOM     18  H   LIG    1        1.067   6.008   0.953  0.00  0.00    +0.400 HD
BRANCH  16  19
ATOM     19  C   LIG    1        1.109   3.555   0.010  0.00  0.00    +0.320 C 
BRANCH  19  20
ATOM     20  N   LIG    1        1.140   2.091   0.002  0.00  0.00    -0.480 N 
ATOM     21  C   LIG    1        2.333   1.444  -0.012  0.00  0.00    +0.290 A 
ATOM     22  C   LIG    1        2.387   0.092  -0.020  0.00  0.00    -0.080 A 
ATOM     23  C   LIG    1        1.200  -0.655  -0.013  0.00  0.00    +0.130 A 
ATOM     24  C   LIG    1        0.002  -0.004   0.002  0.00  0.00    -0.090 A 
ATOM     25  C   LIG    1       -0.017   1.401   0.010  0.00  0.00    +0.520 A 
ATOM     26  O   LIG    1       -1.082   1.997   0.018  0.00  0.00    -0.550 OA
ENDBRANCH  19  20
ENDBRANCH  16  19
ENDBRANCH   1  17
TORSDOF 5
