REMARK  Name = ZINCtj00000002BD.1
REMARK                            x       y       z     vdW  Elec       q    Type
REMARK                         _______ _______ _______ _____ _____    ______ ____
ROOT
ATOM      1  C   LIG    1       -2.353   4.123   0.926  0.00  0.00    +0.520 C 
ATOM      2  N   LIG    1       -2.658   5.435   0.909  0.00  0.00    -0.720 N 
ATOM      3  H   LIG    1       -2.014   6.079   0.575  0.00  0.00    +0.400 HD
ATOM      4  O   LIG    1       -3.120   3.328   1.425  0.00  0.00    -0.520 OA
ENDROOT
BRANCH   1   5
ATOM      5  C   LIG    1       -1.057   3.643   0.325  0.00  0.00    +0.250 C 
BRANCH   5   7
ATOM      6  C   LIG    1        0.534   1.881   0.873  0.00  0.00    +0.520 C 
ATOM      7  N   LIG    1       -0.743   2.308   0.841  0.00  0.00    -0.720 N 
ATOM      8  H   LIG    1       -1.456   1.732   1.159  0.00  0.00    +0.410 HD
ATOM      9  O   LIG    1        1.425   2.600   0.471  0.00  0.00    -0.530 OA
BRANCH   6  10
ATOM     10  C   LIG    1        0.857   0.508   1.404  0.00  0.00    +0.060 C 
BRANCH  10  11
ATOM     11  C   LIG    1        2.366   0.272   1.324  0.00  0.00    +0.040 C 
BRANCH  11  12
ATOM     12  C   LIG    1        2.693  -1.122   1.863  0.00  0.00    +0.040 C 
BRANCH  12  14
ATOM     13  C   LIG    1        4.848  -1.696   2.859  0.00  0.00    +0.010 C 
ATOM     14  C   LIG    1        4.180  -1.355   1.784  0.00  0.00    -0.050 C 
ENDBRANCH  12  14
ENDBRANCH  11  12
ENDBRANCH  10  11
ENDBRANCH   6  10
ENDBRANCH   5   7
BRANCH   5  15
ATOM     15  C   LIG    1       -1.193   3.582  -1.198  0.00  0.00    -0.020 C 
ATOM     16  C   LIG    1       -2.237   2.529  -1.575  0.00  0.00    +0.020 C 
ATOM     17  C   LIG    1        0.156   3.207  -1.816  0.00  0.00    +0.040 C 
ENDBRANCH   5  15
ENDBRANCH   1   5
BRANCH   2  18
ATOM     18  C   LIG    1       -3.964   5.890   1.395  0.00  0.00    +0.370 C 
BRANCH  18  19
ATOM     19  C   LIG    1       -4.053   7.389   1.269  0.00  0.00    +0.190 A 
ATOM     20  C   LIG    1       -4.635   7.965   0.151  0.00  0.00    -0.060 A 
ATOM     21  C   LIG    1       -4.701   9.348   0.077  0.00  0.00    +0.360 A 
ATOM     22  N   LIG    1       -4.200  10.072   1.064  0.00  0.00    -0.540 NA
ATOM     23  C   LIG    1       -3.646   9.489   2.118  0.00  0.00    +0.480 A 
ATOM     24  N   LIG    1       -3.571   8.171   2.221  0.00  0.00    -0.510 NA
BRANCH  23  25
ATOM     25  N   LIG    1       -3.132  10.277   3.133  0.00  0.00    -0.460 N 
ATOM     26  C   LIG    1       -3.742   9.935   4.425  0.00  0.00    +0.250 C 
ATOM     27  C   LIG    1       -3.106  10.785   5.527  0.00  0.00    +0.280 C 
ATOM     28  N   LIG    1       -3.313  12.208   5.230  0.00  0.00    -0.390 N 
ATOM     29  C   LIG    1       -2.677  12.540   3.948  0.00  0.00    +0.280 C 
ATOM     30  C   LIG    1       -2.718  13.023   6.297  0.00  0.00    +0.330 C 
ATOM     31  H   LIG    1       -4.302  12.399   5.173  0.00  0.00    +0.420 HD
ATOM     32  C   LIG    1       -3.310  11.705   2.833  0.00  0.00    +0.250 C 
ENDBRANCH  23  25
ENDBRANCH  18  19
ENDBRANCH   2  18
TORSDOF 10
