REMARK  Name = ZINCrD000000Bn7V.0
REMARK                            x       y       z     vdW  Elec       q    Type
REMARK                         _______ _______ _______ _____ _____    ______ ____
ROOT
ATOM      1  O   LIG    1       -2.137  -5.956  -0.705  0.00  0.00    -0.550 OA
ATOM      2  C   LIG    1       -1.815  -5.234  -1.630  0.00  0.00    +0.580 C 
ATOM      3  N   LIG    1       -1.248  -4.036  -1.384  0.00  0.00    -0.720 N 
ATOM      4  H   LIG    1       -0.924  -3.493  -2.119  0.00  0.00    +0.420 HD
ENDROOT
BRANCH   2   5
ATOM      5  C   LIG    1       -2.043  -5.669  -3.016  0.00  0.00    -0.280 A 
ATOM      6  C   LIG    1       -2.737  -6.847  -3.285  0.00  0.00    +0.220 A 
ATOM      7  C   LIG    1       -2.938  -7.224  -4.613  0.00  0.00    -0.080 A 
ATOM      8  C   LIG    1       -2.454  -6.455  -5.621  0.00  0.00    +0.340 A 
ATOM      9  N   LIG    1       -1.774  -5.312  -5.367  0.00  0.00    -0.480 N 
ATOM     10  C   LIG    1       -1.556  -4.899  -4.104  0.00  0.00    +0.530 A 
ATOM     11  O   LIG    1       -0.942  -3.867  -3.896  0.00  0.00    -0.540 OA
BRANCH   9  12
ATOM     12  C   LIG    1       -1.267  -4.511  -6.484  0.00  0.00    +0.350 C 
BRANCH  12  13
ATOM     13  C   LIG    1        0.125  -4.967  -6.839  0.00  0.00    -0.120 A 
ATOM     14  C   LIG    1        1.220  -4.380  -6.232  0.00  0.00    +0.040 A 
ATOM     15  C   LIG    1        2.496  -4.802  -6.553  0.00  0.00    +0.010 A 
ATOM     16  C   LIG    1        2.678  -5.803  -7.490  0.00  0.00    +0.020 A 
ATOM     17  C   LIG    1        1.584  -6.385  -8.101  0.00  0.00    +0.010 A 
ATOM     18  C   LIG    1        0.307  -5.967  -7.775  0.00  0.00    +0.020 A 
ENDBRANCH  12  13
ENDBRANCH   9  12
ENDBRANCH   2   5
BRANCH   3  19
ATOM     19  C   LIG    1       -1.122  -3.555  -0.006  0.00  0.00    +0.350 C 
BRANCH  19  20
ATOM     20  C   LIG    1       -0.460  -2.201  -0.005  0.00  0.00    +0.060 A 
ATOM     21  C   LIG    1       -1.109  -1.026   0.013  0.00  0.00    -0.020 A 
ATOM     22  C   LIG    1       -0.090   0.026   0.005  0.00  0.00    -0.110 A 
ATOM     23  C   LIG    1       -0.135   1.421   0.016  0.00  0.00    +0.050 A 
ATOM     24  C   LIG    1        1.028   2.138   0.004  0.00  0.00    -0.030 A 
ATOM     25  C   LIG    1        2.256   1.490  -0.019  0.00  0.00    +0.030 A 
ATOM     26  C   LIG    1        2.323   0.114  -0.030  0.00  0.00    -0.010 A 
ATOM     27  C   LIG    1        1.152  -0.636  -0.018  0.00  0.00    +0.100 A 
ATOM     28  N   LIG    1        0.891  -1.988  -0.024  0.00  0.00    -0.590 N 
ATOM     29  H   LIG    1        1.565  -2.685  -0.039  0.00  0.00    +0.410 HD
ENDBRANCH  19  20
ENDBRANCH   3  19
TORSDOF 5
