REMARK  Name = ZINCvU00000009H9.0
REMARK                            x       y       z     vdW  Elec       q    Type
REMARK                         _______ _______ _______ _____ _____    ______ ____
ROOT
ATOM      1  C   LIG    1        0.283   5.280   0.026  0.00  0.00    -0.220 A 
ATOM      2  C   LIG    1        1.643   5.332   0.014  0.00  0.00    +0.120 A 
ATOM      3  O   LIG    1        2.146   4.092   0.003  0.00  0.00    -0.170 OA
ATOM      4  C   LIG    1        1.165   3.164   0.007  0.00  0.00    +0.050 A 
ATOM      5  C   LIG    1        1.175   1.775   0.000  0.00  0.00    +0.080 A 
ATOM      6  C   LIG    1       -0.013   1.076   0.008  0.00  0.00    +0.050 A 
ATOM      7  C   LIG    1       -1.231   1.749   0.017  0.00  0.00    +0.140 A 
ATOM      8  C   LIG    1       -1.258   3.134   0.030  0.00  0.00    +0.050 A 
ATOM      9  C   LIG    1        2.462   6.598   0.013  0.00  0.00    +0.190 C 
ATOM     10  C   LIG    1       -0.062   3.844   0.022  0.00  0.00    -0.070 A 
ENDROOT
BRANCH   1  11
ATOM     11  C   LIG    1       -0.648   6.416   0.041  0.00  0.00    +0.550 C 
ATOM     12  O   LIG    1       -1.044   6.891  -1.006  0.00  0.00    -0.490 OA
BRANCH  11  13
ATOM     13  O   LIG    1       -1.064   6.931   1.215  0.00  0.00    -0.350 OA
BRANCH  13  14
ATOM     14  C   LIG    1       -1.984   8.053   1.153  0.00  0.00    +0.200 C 
BRANCH  14  15
ATOM     15  C   LIG    1       -2.341   8.499   2.573  0.00  0.00    +0.030 C 
BRANCH  15  16
ATOM     16  C   LIG    1       -3.311   9.681   2.508  0.00  0.00    +0.020 C 
BRANCH  16  17
ATOM     17  C   LIG    1       -3.668  10.126   3.927  0.00  0.00    +0.000 C 
BRANCH  17  18
ATOM     18  C   LIG    1       -4.637  11.308   3.862  0.00  0.00    +0.000 C 
BRANCH  18  20
ATOM     19  C   LIG    1       -5.964  12.935   5.216  0.00  0.00    +0.000 C 
ATOM     20  C   LIG    1       -4.994  11.753   5.282  0.00  0.00    -0.010 C 
ENDBRANCH  18  20
ENDBRANCH  17  18
ENDBRANCH  16  17
ENDBRANCH  15  16
ENDBRANCH  14  15
ENDBRANCH  13  14
ENDBRANCH  11  13
ENDBRANCH   1  11
BRANCH   7  21
ATOM     21  N   LIG    1       -2.429   1.027   0.020  0.00  0.00    -1.050 N 
ATOM     22  H   LIG    1       -3.154   1.288  -0.570  0.00  0.00    +0.430 HD
BRANCH  21  23
ATOM     23  S   LIG    1       -2.610  -0.274   1.028  0.00  0.00    +2.690 S 
ATOM     24  O   LIG    1       -1.448  -1.075   0.861  0.00  0.00    -0.940 OA
ATOM     25  O   LIG    1       -3.928  -0.763   0.821  0.00  0.00    -0.940 OA
BRANCH  23  26
ATOM     26  C   LIG    1       -2.559   0.336   2.680  0.00  0.00    -0.690 A 
ATOM     27  C   LIG    1       -1.353   0.420   3.349  0.00  0.00    +0.160 A 
ATOM     28  C   LIG    1       -1.311   0.903   4.643  0.00  0.00    -0.020 A 
ATOM     29  C   LIG    1       -2.481   1.292   5.274  0.00  0.00    +0.160 A 
ATOM     30  C   LIG    1       -3.690   1.203   4.605  0.00  0.00    -0.030 A 
ATOM     31  F   LIG    1       -2.442   1.759   6.541  0.00  0.00    -0.130 F 
ATOM     32  C   LIG    1       -3.728   0.725   3.309  0.00  0.00    +0.160 A 
ENDBRANCH  23  26
ENDBRANCH  21  23
ENDBRANCH   7  21
TORSDOF 11
