REMARK  Name = ZINCqH0000004Zzn.0
REMARK                            x       y       z     vdW  Elec       q    Type
REMARK                         _______ _______ _______ _____ _____    ______ ____
ROOT
ATOM      1  C   LIG    1       -3.469   6.038   2.818  0.00  0.00    -0.110 A 
ATOM      2  C   LIG    1       -3.527   5.245   3.965  0.00  0.00    +0.020 A 
ATOM      3  C   LIG    1       -3.706   5.833   5.201  0.00  0.00    +0.020 A 
ATOM      4  C   LIG    1       -3.840   7.204   5.307  0.00  0.00    +0.010 A 
ATOM      5  C   LIG    1       -3.790   8.002   4.170  0.00  0.00    +0.160 A 
ATOM      6  C   LIG    1       -3.604   7.423   2.924  0.00  0.00    +0.090 A 
ENDROOT
BRANCH   5   7
ATOM      7  N   LIG    1       -3.926   9.390   4.282  0.00  0.00    -0.690 N 
ATOM      8  H   LIG    1       -3.570   9.851   5.058  0.00  0.00    +0.410 HD
ATOM      9  C   LIG    1       -4.552  10.087   3.313  0.00  0.00    +0.710 C 
ATOM     10  N   LIG    1       -4.588  11.433   3.366  0.00  0.00    -0.710 N 
ATOM     11  H   LIG    1       -4.162  11.901   4.102  0.00  0.00    +0.400 HD
ATOM     12  O   LIG    1       -5.085   9.501   2.391  0.00  0.00    -0.560 OA
BRANCH  10  13
ATOM     13  C   LIG    1       -5.268  12.190   2.312  0.00  0.00    +0.240 C 
ATOM     14  C   LIG    1       -4.564  13.435   1.770  0.00  0.00    +0.010 C 
ATOM     15  C   LIG    1       -5.793  13.582   2.669  0.00  0.00    +0.020 C 
ENDBRANCH  10  13
ENDBRANCH   5   7
BRANCH   1  18
ATOM     16  C   LIG    1       -2.668   3.336   2.616  0.00  0.00    +0.280 C 
ATOM     17  N   LIG    1       -2.804   4.151   1.406  0.00  0.00    -0.600 N 
ATOM     18  C   LIG    1       -3.271   5.412   1.493  0.00  0.00    +0.560 C 
ATOM     19  O   LIG    1       -3.530   6.035   0.481  0.00  0.00    -0.530 OA
BRANCH  17  20
ATOM     20  C   LIG    1       -2.431   3.596   0.103  0.00  0.00    +0.290 C 
ATOM     21  C   LIG    1       -3.160   2.256  -0.154  0.00  0.00    +0.040 C 
ATOM     22  C   LIG    1       -2.146   1.223   0.380  0.00  0.00    +0.070 C 
ATOM     23  C   LIG    1       -0.793   1.888   0.241  0.00  0.00    -0.090 A 
ATOM     24  C   LIG    1        0.480   1.345   0.259  0.00  0.00    +0.010 A 
ATOM     25  C   LIG    1        1.586   2.159   0.106  0.00  0.00    +0.020 A 
ATOM     26  C   LIG    1        1.422   3.521  -0.060  0.00  0.00    +0.000 A 
ATOM     27  C   LIG    1        0.152   4.066  -0.073  0.00  0.00    +0.030 A 
ATOM     28  C   LIG    1       -0.957   3.252   0.081  0.00  0.00    -0.110 A 
ENDBRANCH  17  20
ENDBRANCH   1  18
TORSDOF 4
