REMARK  Name = ZINCrg000000rRqk.0
REMARK                            x       y       z     vdW  Elec       q    Type
REMARK                         _______ _______ _______ _____ _____    ______ ____
ROOT
ATOM      1  C   LIG    1        5.454  -0.594  -1.772  0.00  0.00    +0.110 A 
ATOM      2  C   LIG    1        4.927  -0.258  -0.534  0.00  0.00    +0.150 A 
ATOM      3  C   LIG    1        4.022  -1.101   0.083  0.00  0.00    -0.670 A 
ATOM      4  C   LIG    1        3.644  -2.282  -0.529  0.00  0.00    +0.130 A 
ATOM      5  C   LIG    1        4.160  -2.621  -1.766  0.00  0.00    +0.010 A 
ATOM      6  C   LIG    1        5.068  -1.782  -2.391  0.00  0.00    +0.130 A 
ENDROOT
BRANCH   1   8
ATOM      7  C   LIG    1        7.119   1.105  -1.663  0.00  0.00    +0.520 C 
ATOM      8  N   LIG    1        6.372   0.259  -2.400  0.00  0.00    -0.670 N 
ATOM      9  H   LIG    1        6.469   0.241  -3.365  0.00  0.00    +0.420 HD
ATOM     10  O   LIG    1        7.071   1.058  -0.452  0.00  0.00    -0.480 OA
BRANCH   7  11
ATOM     11  C   LIG    1        8.014   2.108  -2.344  0.00  0.00    +0.060 C 
BRANCH  11  13
ATOM     12  C   LIG    1        9.591   2.014  -0.409  0.00  0.00    +0.110 C 
ATOM     13  C   LIG    1        8.745   2.938  -1.288  0.00  0.00    +0.120 C 
BRANCH  13  14
ATOM     14  C   LIG    1        9.654   3.957  -1.979  0.00  0.00    +0.420 C 
ATOM     15  F   LIG    1       10.589   3.285  -2.773  0.00  0.00    -0.180 F 
ATOM     16  F   LIG    1       10.323   4.716  -1.013  0.00  0.00    -0.170 F 
ATOM     17  F   LIG    1        8.881   4.802  -2.782  0.00  0.00    -0.180 F 
ENDBRANCH  13  14
BRANCH  13  18
ATOM     18  O   LIG    1        7.790   3.625  -0.476  0.00  0.00    -0.510 OA
ATOM     19  H   LIG    1        7.218   4.230  -0.968  0.00  0.00    +0.380 HD
ENDBRANCH  13  18
ENDBRANCH  11  13
ENDBRANCH   7  11
ENDBRANCH   1   8
BRANCH   3  20
ATOM     20  S   LIG    1        3.354  -0.673   1.656  0.00  0.00    +2.690 S 
ATOM     21  O   LIG    1        2.941  -1.891   2.261  0.00  0.00    -0.950 OA
ATOM     22  O   LIG    1        4.284   0.217   2.258  0.00  0.00    -0.940 OA
BRANCH  20  23
ATOM     23  N   LIG    1        1.977   0.204   1.382  0.00  0.00    -1.000 NA
ATOM     24  C   LIG    1        0.669  -0.458   1.258  0.00  0.00    +0.270 C 
ATOM     25  C   LIG    1       -0.009   0.045  -0.021  0.00  0.00    +0.220 C 
ATOM     26  O   LIG    1       -0.019   1.474  -0.018  0.00  0.00    -0.370 OA
ATOM     27  C   LIG    1        1.282   2.069  -0.024  0.00  0.00    +0.210 C 
ATOM     28  C   LIG    1        2.025   1.669   1.256  0.00  0.00    +0.270 C 
ENDBRANCH  20  23
ENDBRANCH   3  20
BRANCH   6  29
ATOM     29  O   LIG    1        5.582  -2.116  -3.605  0.00  0.00    -0.490 OA
ATOM     30  H   LIG    1        6.395  -2.636  -3.558  0.00  0.00    +0.400 HD
ENDBRANCH   6  29
TORSDOF 8
