REMARK  Name = ZINCrD00000hQ6OH.0
REMARK                            x       y       z     vdW  Elec       q    Type
REMARK                         _______ _______ _______ _____ _____    ______ ____
ROOT
ATOM      1  C   LIG    1        3.655   2.158  -0.022  0.00  0.00    +0.140 C 
ATOM      2  N   LIG    1        4.830   1.631  -0.036  0.00  0.00    -0.210 NA
ATOM      3  N   LIG    1        5.870   2.559  -0.042  0.00  0.00    -0.850 N 
ATOM      4  C   LIG    1        5.298   3.915  -0.030  0.00  0.00    +0.270 C 
ATOM      5  C   LIG    1        3.776   3.665  -0.021  0.00  0.00    +0.100 C 
ENDROOT
BRANCH   1   9
ATOM      6  C   LIG    1        0.002  -0.004   0.002  0.00  0.00    -0.060 A 
ATOM      7  C   LIG    1       -0.017   1.379   0.010  0.00  0.00    +0.010 A 
ATOM      8  C   LIG    1        1.166   2.089   0.002  0.00  0.00    +0.050 A 
ATOM      9  C   LIG    1        2.385   1.407  -0.013  0.00  0.00    -0.040 A 
ATOM     10  C   LIG    1        2.397   0.010  -0.020  0.00  0.00    +0.050 A 
ATOM     11  C   LIG    1        1.206  -0.686  -0.013  0.00  0.00    +0.010 A 
BRANCH   6  13
ATOM     12  C   LIG    1       -1.747  -1.024  -1.429  0.00  0.00    +0.030 C 
ATOM     13  C   LIG    1       -1.295  -0.772   0.010  0.00  0.00    +0.050 C 
ENDBRANCH   6  13
ENDBRANCH   1   9
BRANCH   4  14
ATOM     14  C   LIG    1        5.702   4.672  -1.268  0.00  0.00    -0.020 A 
ATOM     15  C   LIG    1        5.770   4.020  -2.485  0.00  0.00    -0.040 A 
ATOM     16  C   LIG    1        6.137   4.717  -3.627  0.00  0.00    +0.170 A 
ATOM     17  C   LIG    1        6.446   6.066  -3.546  0.00  0.00    -0.150 A 
ATOM     18  C   LIG    1        6.383   6.717  -2.323  0.00  0.00    +0.170 A 
ATOM     19  C   LIG    1        6.011   6.017  -1.184  0.00  0.00    -0.020 A 
BRANCH  18  20
ATOM     20  O   LIG    1        6.686   8.039  -2.240  0.00  0.00    -0.310 OA
ATOM     21  C   LIG    1        7.061   8.696  -3.452  0.00  0.00    +0.250 C 
ENDBRANCH  18  20
BRANCH  16  22
ATOM     22  O   LIG    1        6.197   4.077  -4.824  0.00  0.00    -0.310 OA
ATOM     23  C   LIG    1        6.587   4.855  -5.957  0.00  0.00    +0.250 C 
ENDBRANCH  16  22
ENDBRANCH   4  14
BRANCH   3  24
ATOM     24  S   LIG    1        7.485   2.195  -0.060  0.00  0.00    +2.620 S 
ATOM     25  O   LIG    1        8.104   3.374  -0.555  0.00  0.00    -0.930 OA
ATOM     26  O   LIG    1        7.561   0.971  -0.778  0.00  0.00    -0.930 OA
ATOM     27  C   LIG    1        7.910   1.938   1.685  0.00  0.00    -0.280 C 
ENDBRANCH   3  24
TORSDOF 6
