REMARK  Name = ZINCrD00000bGMMe.0
REMARK                            x       y       z     vdW  Elec       q    Type
REMARK                         _______ _______ _______ _____ _____    ______ ____
ROOT
ATOM      1  C   LIG    1        2.508   1.442  -0.014  0.00  0.00    +0.390 C 
ENDROOT
BRANCH   1   2
ATOM      2  C   LIG    1        1.068   1.886   0.002  0.00  0.00    +0.060 A 
ATOM      3  C   LIG    1       -0.013   1.076   0.008  0.00  0.00    -0.070 A 
ATOM      4  C   LIG    1       -1.162   1.890   0.017  0.00  0.00    +0.110 A 
ATOM      5  N   LIG    1       -0.769   3.146   0.025  0.00  0.00    -0.270 NA
ATOM      6  N   LIG    1        0.631   3.164   0.013  0.00  0.00    -0.470 N 
ATOM      7  H   LIG    1        1.191   3.957   0.012  0.00  0.00    +0.440 HD
BRANCH   4   8
ATOM      8  C   LIG    1       -2.568   1.415   0.020  0.00  0.00    +0.020 A 
ATOM      9  C   LIG    1       -2.845   0.053   0.119  0.00  0.00    +0.000 A 
ATOM     10  C   LIG    1       -4.154  -0.387   0.121  0.00  0.00    +0.050 A 
ATOM     11  C   LIG    1       -5.192   0.521   0.026  0.00  0.00    -0.070 A 
ATOM     12  C   LIG    1       -4.924   1.879  -0.072  0.00  0.00    +0.130 A 
ATOM     13  C   LIG    1       -3.614   2.329  -0.070  0.00  0.00    +0.020 A 
BRANCH  12  14
ATOM     14  O   LIG    1       -5.948   2.769  -0.165  0.00  0.00    -0.320 OA
ATOM     15  C   LIG    1       -7.274   2.235  -0.155  0.00  0.00    +0.250 C 
ENDBRANCH  12  14
ENDBRANCH   4   8
ENDBRANCH   1   2
BRANCH   1  17
ATOM     16  C   LIG    1        2.879   0.300  -2.135  0.00  0.00    +0.520 C 
ATOM     17  N   LIG    1        2.997   1.421  -1.395  0.00  0.00    -0.620 N 
ATOM     18  C   LIG    1        3.615   2.617  -1.972  0.00  0.00    +0.290 C 
ATOM     19  O   LIG    1        2.367  -0.690  -1.657  0.00  0.00    -0.520 OA
BRANCH  16  20
ATOM     20  C   LIG    1        3.382   0.278  -3.555  0.00  0.00    +0.050 C 
BRANCH  20  21
ATOM     21  C   LIG    1        3.127  -1.102  -4.165  0.00  0.00    +0.130 C 
BRANCH  21  22
ATOM     22  C   LIG    1        3.638  -1.124  -5.607  0.00  0.00    +0.040 C 
ATOM     23  N   LIG    1        4.760  -0.253  -5.967  0.00  0.00    -0.120 NA
ATOM     24  N   LIG    1        3.648   0.128  -6.367  0.00  0.00    -0.120 NA
BRANCH  22  25
ATOM     25  C   LIG    1        3.459  -2.440  -6.367  0.00  0.00    +0.120 C 
BRANCH  25  26
ATOM     26  C   LIG    1        4.020  -2.292  -7.783  0.00  0.00    +0.160 C 
BRANCH  26  28
ATOM     27  C   LIG    1        3.711  -4.567  -9.097  0.00  0.00    +0.030 C 
ATOM     28  C   LIG    1        3.848  -3.558  -8.514  0.00  0.00    -0.190 C 
ENDBRANCH  26  28
ENDBRANCH  25  26
ENDBRANCH  22  25
ENDBRANCH  21  22
ENDBRANCH  20  21
ENDBRANCH  16  20
ENDBRANCH   1  17
TORSDOF 10
