REMARK  Name = ZINCpk00000ealDB.0
REMARK                            x       y       z     vdW  Elec       q    Type
REMARK                         _______ _______ _______ _____ _____    ______ ____
ROOT
ATOM      1  C   LIG    1       -2.446  -0.399  -3.824  0.00  0.00    +0.260 C 
ATOM      2  C   LIG    1       -3.407   0.421  -4.689  0.00  0.00    +0.050 C 
ATOM      3  C   LIG    1       -3.883  -0.433  -5.866  0.00  0.00    +0.210 C 
ATOM      4  N   LIG    1       -4.556  -1.635  -5.359  0.00  0.00    -0.480 N 
ATOM      5  C   LIG    1       -3.639  -2.463  -4.565  0.00  0.00    +0.220 C 
ATOM      6  C   LIG    1       -3.156  -1.669  -3.349  0.00  0.00    +0.030 C 
ENDROOT
BRANCH   1  11
ATOM      7  C   LIG    1       -0.808   1.621   1.227  0.00  0.00    +0.160 C 
ATOM      8  C   LIG    1       -0.013   1.086   0.008  0.00  0.00    +0.080 C 
ATOM      9  C   LIG    1       -0.827   1.630  -1.183  0.00  0.00    +0.180 C 
ATOM     10  C   LIG    1       -0.751   0.723  -2.385  0.00  0.00    +0.530 C 
ATOM     11  N   LIG    1       -2.032   0.394  -2.664  0.00  0.00    -0.580 N 
ATOM     12  C   LIG    1       -2.878   0.885  -1.744  0.00  0.00    +0.740 C 
ATOM     13  O   LIG    1       -4.088   0.825  -1.832  0.00  0.00    -0.520 OA
ATOM     14  O   LIG    1        0.245   0.365  -2.974  0.00  0.00    -0.460 OA
ATOM     15  N   LIG    1       -2.229   1.448  -0.721  0.00  0.00    -0.630 N 
ATOM     16  C   LIG    1       -2.232   1.892   0.677  0.00  0.00    +0.320 C 
BRANCH   7  18
ATOM     17  C   LIG    1       -0.923   1.185   3.581  0.00  0.00    +0.220 C 
ATOM     18  O   LIG    1       -0.850   0.637   2.263  0.00  0.00    -0.370 OA
ENDBRANCH   7  18
ENDBRANCH   1  11
BRANCH   4  19
ATOM     19  C   LIG    1       -5.116  -2.369  -6.398  0.00  0.00    +0.320 A 
ATOM     20  C   LIG    1       -6.015  -1.759  -7.267  0.00  0.00    -0.050 A 
ATOM     21  C   LIG    1       -6.564  -2.500  -8.297  0.00  0.00    +0.090 A 
ATOM     22  C   LIG    1       -6.194  -3.832  -8.425  0.00  0.00    -0.070 A 
ATOM     23  C   LIG    1       -5.296  -4.374  -7.527  0.00  0.00    +0.150 A 
ATOM     24  C   LIG    1       -4.890  -5.819  -7.662  0.00  0.00    +0.130 C 
ATOM     25  N   LIG    1       -4.784  -3.641  -6.557  0.00  0.00    -0.520 NA
ENDBRANCH   4  19
TORSDOF 3
