REMARK  Name = ZINCrH000004lzTY.0
REMARK                            x       y       z     vdW  Elec       q    Type
REMARK                         _______ _______ _______ _____ _____    ______ ____
ROOT
ATOM      1  C   LIG    1        5.984   0.914  -0.213  0.00  0.00    +0.600 C 
ATOM      2  N   LIG    1        6.567   2.118  -0.048  0.00  0.00    -0.660 N 
ATOM      3  H   LIG    1        6.021   2.918   0.006  0.00  0.00    +0.420 HD
ATOM      4  O   LIG    1        6.671  -0.076  -0.378  0.00  0.00    -0.490 OA
ENDROOT
BRANCH   2   5
ATOM      5  C   LIG    1        7.960   2.214   0.046  0.00  0.00    +0.120 A 
ATOM      6  C   LIG    1        8.691   1.197   0.645  0.00  0.00    +0.060 A 
ATOM      7  C   LIG    1       10.063   1.290   0.733  0.00  0.00    +0.000 A 
ATOM      8  C   LIG    1       10.729   2.409   0.231  0.00  0.00    +0.130 A 
ATOM      9  C   LIG    1        9.993   3.424  -0.361  0.00  0.00    -0.110 A 
ATOM     10  C   LIG    1       10.945   4.507  -0.816  0.00  0.00    +0.110 C 
ATOM     11  C   LIG    1       12.337   3.995  -0.412  0.00  0.00    +0.280 C 
ATOM     12  N   LIG    1       12.099   2.697   0.225  0.00  0.00    -0.550 N 
ATOM     13  C   LIG    1       13.059   1.897   0.731  0.00  0.00    +0.520 C 
ATOM     14  O   LIG    1       14.222   2.237   0.677  0.00  0.00    -0.520 OA
ATOM     15  C   LIG    1       12.687   0.581   1.364  0.00  0.00    +0.120 C 
ATOM     16  C   LIG    1        8.618   3.330  -0.455  0.00  0.00    +0.040 A 
ENDBRANCH   2   5
BRANCH   1  18
ATOM     17  C   LIG    1        3.825  -0.358  -0.352  0.00  0.00    -0.070 A 
ATOM     18  C   LIG    1        4.519   0.799  -0.196  0.00  0.00    -0.020 A 
ATOM     19  O   LIG    1        3.662   1.826  -0.022  0.00  0.00    -0.180 OA
ATOM     20  C   LIG    1        2.385   1.396  -0.055  0.00  0.00    +0.070 A 
ATOM     21  C   LIG    1        1.160   2.039   0.071  0.00  0.00    +0.030 A 
ATOM     22  C   LIG    1       -0.009   1.312  -0.009  0.00  0.00    +0.060 A 
ATOM     23  C   LIG    1        0.022  -0.060  -0.215  0.00  0.00    +0.010 A 
ATOM     24  C   LIG    1        1.215  -0.715  -0.342  0.00  0.00    +0.070 A 
ATOM     25  C   LIG    1        2.411   0.004  -0.263  0.00  0.00    -0.130 A 
BRANCH  17  26
ATOM     26  C   LIG    1        4.396  -1.735  -0.571  0.00  0.00    +0.260 C 
BRANCH  26  28
ATOM     27  C   LIG    1        5.081  -3.258  -2.291  0.00  0.00    +0.210 C 
ATOM     28  O   LIG    1        4.544  -1.972  -1.972  0.00  0.00    -0.380 OA
ENDBRANCH  26  28
ENDBRANCH  17  26
ENDBRANCH   1  18
TORSDOF 4
