REMARK  Name = ZINCvU0000000AG3.0
REMARK                            x       y       z     vdW  Elec       q    Type
REMARK                         _______ _______ _______ _____ _____    ______ ____
ROOT
ATOM      1  O   LIG    1        0.561   2.810   1.944  0.00  0.00    -0.490 OA
ATOM      2  C   LIG    1        0.881   1.770   1.409  0.00  0.00    +0.520 C 
ATOM      3  N   LIG    1        0.037   1.168   0.547  0.00  0.00    -0.620 N 
ATOM      4  H   LIG    1        0.293   0.336   0.119  0.00  0.00    +0.430 HD
ENDROOT
BRANCH   2   5
ATOM      5  C   LIG    1        2.221   1.149   1.708  0.00  0.00    +0.010 C 
ATOM      6  C   LIG    1        2.018  -0.243   2.312  0.00  0.00    +0.070 C 
ATOM      7  C   LIG    1        3.379  -0.843   2.669  0.00  0.00    +0.210 C 
ATOM      8  N   LIG    1        4.064   0.032   3.630  0.00  0.00    -0.470 N 
ATOM      9  C   LIG    1        4.312   1.360   3.056  0.00  0.00    +0.220 C 
ATOM     10  C   LIG    1        2.978   2.026   2.710  0.00  0.00    +0.080 C 
BRANCH   8  11
ATOM     11  C   LIG    1        5.247  -0.548   4.077  0.00  0.00    +0.260 A 
ATOM     12  C   LIG    1        5.230  -1.816   4.658  0.00  0.00    +0.040 A 
ATOM     13  C   LIG    1        6.435  -2.349   5.087  0.00  0.00    +0.080 A 
ATOM     14  C   LIG    1        7.584  -1.589   4.912  0.00  0.00    +0.090 A 
ATOM     15  N   LIG    1        7.507  -0.397   4.351  0.00  0.00    -0.200 NA
ATOM     16 CL   LIG    1        9.121  -2.207   5.431  0.00  0.00    -0.000 Cl
ATOM     17  N   LIG    1        6.395   0.099   3.947  0.00  0.00    -0.260 NA
ENDBRANCH   8  11
ENDBRANCH   2   5
BRANCH   3  18
ATOM     18  C   LIG    1       -1.195   1.743   0.268  0.00  0.00    +0.270 A 
ATOM     19  N   LIG    1       -2.077   1.253  -0.546  0.00  0.00    -0.490 NA
ATOM     20  C   LIG    1       -3.205   1.930  -0.698  0.00  0.00    +0.170 A 
ATOM     21  C   LIG    1       -3.287   3.084   0.045  0.00  0.00    -0.190 A 
ATOM     22  S   LIG    1       -1.796   3.240   0.971  0.00  0.00    +0.250 S 
BRANCH  21  23
ATOM     23  C   LIG    1       -4.419   4.019   0.066  0.00  0.00    -0.120 A 
ATOM     24  C   LIG    1       -4.322   5.377   0.002  0.00  0.00    +0.020 A 
ATOM     25  C   LIG    1       -5.532   6.037   0.036  0.00  0.00    +0.010 A 
ATOM     26  C   LIG    1       -6.606   5.249   0.137  0.00  0.00    -0.050 A 
ATOM     27  S   LIG    1       -6.113   3.563   0.188  0.00  0.00    +0.150 S 
ENDBRANCH  21  23
BRANCH  20  28
ATOM     28  C   LIG    1       -4.288   1.481  -1.593  0.00  0.00    -0.130 A 
ATOM     29  C   LIG    1       -5.015   2.283  -2.401  0.00  0.00    +0.040 A 
ATOM     30  C   LIG    1       -5.976   1.630  -3.146  0.00  0.00    +0.010 A 
ATOM     31  C   LIG    1       -6.040   0.310  -2.956  0.00  0.00    -0.040 A 
ATOM     32  S   LIG    1       -4.829  -0.182  -1.780  0.00  0.00    +0.150 S 
ENDBRANCH  20  28
ENDBRANCH   3  18
TORSDOF 5
