REMARK  Name = ZINCpk00000ebpP0.0
REMARK                            x       y       z     vdW  Elec       q    Type
REMARK                         _______ _______ _______ _____ _____    ______ ____
ROOT
ATOM      1  N   LIG    1       -3.362  -5.118   0.008  0.00  0.00    -0.670 N 
ATOM      2  H   LIG    1       -4.261  -4.754  -0.027  0.00  0.00    +0.420 HD
ATOM      3  C   LIG    1       -2.308  -4.294   0.168  0.00  0.00    +0.520 C 
ATOM      4  O   LIG    1       -1.194  -4.754   0.308  0.00  0.00    -0.490 OA
ENDROOT
BRANCH   1   9
ATOM      5  C   LIG    1       -3.902  -8.745   0.283  0.00  0.00    -0.660 A 
ATOM      6  C   LIG    1       -2.763  -9.226  -0.335  0.00  0.00    +0.120 A 
ATOM      7  C   LIG    1       -1.822  -8.347  -0.839  0.00  0.00    +0.020 A 
ATOM      8  C   LIG    1       -2.020  -6.985  -0.732  0.00  0.00    +0.090 A 
ATOM      9  C   LIG    1       -3.161  -6.498  -0.107  0.00  0.00    +0.130 A 
ATOM     10  C   LIG    1       -4.104  -7.383   0.399  0.00  0.00    +0.110 A 
BRANCH   5  11
ATOM     11  S   LIG    1       -5.098  -9.869   0.924  0.00  0.00    +2.700 S 
ATOM     12  O   LIG    1       -5.811  -9.164   1.932  0.00  0.00    -0.960 OA
ATOM     13  O   LIG    1       -4.412 -11.089   1.167  0.00  0.00    -0.960 OA
BRANCH  11  14
ATOM     14  N   LIG    1       -6.183 -10.175  -0.289  0.00  0.00    -1.250 NA
ATOM     15  H   LIG    1       -6.927 -10.778  -0.133  0.00  0.00    +0.420 HD
ATOM     16  H   LIG    1       -6.074  -9.752  -1.155  0.00  0.00    +0.420 HD
ENDBRANCH  11  14
ENDBRANCH   5  11
ENDBRANCH   1   9
BRANCH   3  17
ATOM     17  C   LIG    1       -2.512  -2.801   0.172  0.00  0.00    +0.270 C 
BRANCH  17  18
ATOM     18  O   LIG    1       -1.233  -2.138   0.359  0.00  0.00    -0.330 OA
BRANCH  18  19
ATOM     19  C   LIG    1       -1.241  -0.791   0.387  0.00  0.00    +0.520 C 
ATOM     20  O   LIG    1       -2.287  -0.187   0.259  0.00  0.00    -0.490 OA
BRANCH  19  21
ATOM     21  C   LIG    1        0.023  -0.049   0.573  0.00  0.00    -0.070 A 
ATOM     22  C   LIG    1        0.018   1.346   0.602  0.00  0.00    +0.060 A 
ATOM     23  C   LIG    1        1.203   2.035   0.777  0.00  0.00    +0.130 A 
ATOM     24  C   LIG    1        2.395   1.343   0.923  0.00  0.00    +0.010 A 
ATOM     25  C   LIG    1        2.406  -0.042   0.895  0.00  0.00    +0.120 A 
ATOM     26  F   LIG    1        3.571  -0.710   1.038  0.00  0.00    -0.120 F 
ATOM     27  F   LIG    1        1.200   3.386   0.805  0.00  0.00    -0.120 F 
ATOM     28  C   LIG    1        1.227  -0.741   0.721  0.00  0.00    +0.050 A 
ENDBRANCH  19  21
ENDBRANCH  18  19
ENDBRANCH  17  18
ENDBRANCH   3  17
TORSDOF 7
