REMARK  Name = ZINCqH0000005j0R.0
REMARK                            x       y       z     vdW  Elec       q    Type
REMARK                         _______ _______ _______ _____ _____    ______ ____
ROOT
ATOM      1  C   LIG    1       -6.041  -0.438   0.161  0.00  0.00    +0.280 C 
ATOM      2  N   LIG    1       -6.093  -1.902   0.154  0.00  0.00    -0.610 N 
ATOM      3  C   LIG    1       -4.956  -2.616   0.031  0.00  0.00    +0.570 C 
ATOM      4  O   LIG    1       -5.006  -3.828  -0.054  0.00  0.00    -0.530 OA
ENDROOT
BRANCH   3   5
ATOM      5  C   LIG    1       -3.651  -1.927  -0.001  0.00  0.00    -0.160 A 
ATOM      6  C   LIG    1       -2.518  -2.549   0.529  0.00  0.00    +0.110 A 
ATOM      7  C   LIG    1       -1.302  -1.902   0.498  0.00  0.00    +0.000 A 
ATOM      8  C   LIG    1       -1.202  -0.633  -0.059  0.00  0.00    +0.130 A 
ATOM      9  C   LIG    1       -2.329  -0.009  -0.582  0.00  0.00    -0.060 A 
ATOM     10  C   LIG    1       -3.547  -0.650  -0.560  0.00  0.00    +0.090 A 
BRANCH   8  11
ATOM     11  O   LIG    1       -0.003   0.001  -0.088  0.00  0.00    -0.320 OA
BRANCH  11  12
ATOM     12  C   LIG    1        0.029   1.304  -0.675  0.00  0.00    +0.600 C 
ATOM     13  F   LIG    1       -0.829   2.154   0.031  0.00  0.00    -0.200 F 
ATOM     14  F   LIG    1       -0.386   1.224  -2.008  0.00  0.00    -0.200 F 
ENDBRANCH  11  12
ENDBRANCH   8  11
ENDBRANCH   3   5
BRANCH   2  15
ATOM     15  C   LIG    1       -7.380  -2.590   0.281  0.00  0.00    +0.380 C 
BRANCH  15  16
ATOM     16  C   LIG    1       -7.676  -2.837   1.738  0.00  0.00    -0.250 A 
ATOM     17  C   LIG    1       -8.342  -2.002   2.568  0.00  0.00    +0.250 A 
ATOM     18  N   LIG    1       -8.396  -2.589   3.785  0.00  0.00    -0.320 N 
ATOM     19  N   LIG    1       -7.740  -3.824   3.697  0.00  0.00    -0.290 NA
ATOM     20  C   LIG    1       -7.315  -3.974   2.469  0.00  0.00    +0.270 A 
BRANCH  18  21
ATOM     21  C   LIG    1       -9.000  -2.055   4.932  0.00  0.00    +0.160 A 
ATOM     22  C   LIG    1       -9.614  -0.811   4.880  0.00  0.00    -0.010 A 
ATOM     23  C   LIG    1      -10.214  -0.291   6.010  0.00  0.00    +0.040 A 
ATOM     24  C   LIG    1      -10.194  -1.003   7.196  0.00  0.00    +0.000 A 
ATOM     25  C   LIG    1       -9.578  -2.240   7.252  0.00  0.00    +0.040 A 
ATOM     26  C   LIG    1       -8.982  -2.768   6.124  0.00  0.00    +0.020 A 
ENDBRANCH  18  21
ENDBRANCH  15  16
ENDBRANCH   2  15
TORSDOF 6
