REMARK  Name = ZINCrH00000No4B4.0
REMARK                            x       y       z     vdW  Elec       q    Type
REMARK                         _______ _______ _______ _____ _____    ______ ____
ROOT
ATOM      1  N   LIG    1        3.270   0.972   3.765  0.00  0.00    -0.500 N 
ATOM      2  C   LIG    1        3.632   0.483   4.992  0.00  0.00    +0.190 A 
ATOM      3  C   LIG    1        2.653   0.214   5.868  0.00  0.00    -0.020 A 
ATOM      4  S   LIG    1        1.141   0.634   5.042  0.00  0.00    +0.020 S 
ATOM      5  C   LIG    1        1.935   1.145   3.541  0.00  0.00    +0.390 A 
ATOM      6  N   LIG    1        1.358   1.600   2.445  0.00  0.00    -0.520 NA
ENDROOT
BRANCH   6   7
ATOM      7  C   LIG    1        0.007   1.808   2.419  0.00  0.00    +0.110 A 
ATOM      8  C   LIG    1       -0.609   2.548   3.431  0.00  0.00    +0.080 A 
ATOM      9  C   LIG    1       -1.973   2.753   3.398  0.00  0.00    -0.660 A 
ATOM     10  C   LIG    1       -2.730   2.228   2.367  0.00  0.00    +0.110 A 
ATOM     11  C   LIG    1       -2.126   1.498   1.357  0.00  0.00    +0.020 A 
ATOM     12  C   LIG    1       -0.765   1.280   1.380  0.00  0.00    -0.030 A 
ATOM     13  C   LIG    1       -0.110   0.481   0.283  0.00  0.00    +0.100 C 
BRANCH   9  14
ATOM     14  S   LIG    1       -2.752   3.686   4.674  0.00  0.00    +2.690 S 
ATOM     15  O   LIG    1       -1.897   3.609   5.807  0.00  0.00    -0.950 OA
ATOM     16  O   LIG    1       -4.112   3.276   4.697  0.00  0.00    -0.950 OA
BRANCH  14  17
ATOM     17  N   LIG    1       -2.749   5.271   4.194  0.00  0.00    -1.010 NA
ATOM     18  C   LIG    1       -1.623   6.141   4.545  0.00  0.00    +0.300 C 
ATOM     19  C   LIG    1       -3.872   5.803   3.418  0.00  0.00    +0.290 C 
ENDBRANCH  14  17
ENDBRANCH   9  14
ENDBRANCH   6   7
BRANCH   2  20
ATOM     20  C   LIG    1        5.046   0.259   5.336  0.00  0.00    +0.020 A 
ATOM     21  C   LIG    1        5.515  -0.216   6.524  0.00  0.00    +0.000 A 
ATOM     22  C   LIG    1        6.919  -0.271   6.413  0.00  0.00    -0.050 A 
ATOM     23  C   LIG    1        7.236   0.176   5.183  0.00  0.00    +0.190 A 
ATOM     24  O   LIG    1        6.103   0.495   4.534  0.00  0.00    -0.170 OA
ENDBRANCH   2  20
BRANCH   1  25
ATOM     25  C   LIG    1        4.268   1.296   2.742  0.00  0.00    +0.350 C 
BRANCH  25  27
ATOM     26  C   LIG    1        5.965   3.026   3.034  0.00  0.00    +0.040 C 
ATOM     27  C   LIG    1        4.696   2.732   2.895  0.00  0.00    -0.070 C 
ENDBRANCH  25  27
ENDBRANCH   1  25
TORSDOF 6
