REMARK  Name = ZINCvU0000000GuG.0
REMARK                            x       y       z     vdW  Elec       q    Type
REMARK                         _______ _______ _______ _____ _____    ______ ____
ROOT
ATOM      1  C   LIG    1        0.913   6.407   1.035  0.00  0.00    +0.490 A 
ATOM      2  C   LIG    1        0.804   5.080   1.524  0.00  0.00    -0.220 A 
ATOM      3  C   LIG    1        0.985   4.876   2.889  0.00  0.00    +0.110 A 
ATOM      4  S   LIG    1        0.800   3.171   3.258  0.00  0.00    +0.170 S 
ATOM      5  C   LIG    1        0.487   2.761   1.577  0.00  0.00    -0.170 A 
ATOM      6  C   LIG    1        0.205   1.352   1.096  0.00  0.00    +0.120 C 
ATOM      7  C   LIG    1        1.047   1.037  -0.138  0.00  0.00    +0.020 C 
ATOM      8  C   LIG    1        0.268   1.430  -1.390  0.00  0.00    +0.020 C 
ATOM      9  C   LIG    1       -0.594   2.656  -1.096  0.00  0.00    +0.020 C 
ATOM     10  C   LIG    1        0.300   3.827  -0.706  0.00  0.00    +0.090 C 
ATOM     11  N   LIG    1        1.256   5.926   3.676  0.00  0.00    -0.510 NA
ATOM     12  C   LIG    1        1.350   7.137   3.177  0.00  0.00    +0.380 A 
ATOM     13  C   LIG    1        0.523   3.843   0.799  0.00  0.00    -0.060 A 
ATOM     14  N   LIG    1        1.184   7.383   1.890  0.00  0.00    -0.560 NA
ENDROOT
BRANCH   1  15
ATOM     15  N   LIG    1        0.740   6.678  -0.310  0.00  0.00    -0.830 N 
ATOM     16  H   LIG    1        0.473   7.566  -0.596  0.00  0.00    +0.410 HD
ATOM     17  H   LIG    1        0.886   5.981  -0.968  0.00  0.00    +0.410 HD
ENDBRANCH   1  15
BRANCH  12  18
ATOM     18  C   LIG    1        1.657   8.285   4.104  0.00  0.00    +0.220 C 
BRANCH  18  19
ATOM     19  S   LIG    1        3.450   8.508   4.215  0.00  0.00    +0.050 S 
BRANCH  19  20
ATOM     20  C   LIG    1        3.520   9.872   5.328  0.00  0.00    +0.160 A 
ATOM     21  N   LIG    1        2.497  10.492   5.869  0.00  0.00    -0.280 NA
ATOM     22  N   LIG    1        2.913  11.438   6.633  0.00  0.00    -0.280 NA
ATOM     23  C   LIG    1        4.215  11.486   6.621  0.00  0.00    +0.230 A 
ATOM     24  N   LIG    1        4.651  10.489   5.788  0.00  0.00    -0.420 N 
BRANCH  24  25
ATOM     25  C   LIG    1        5.979  10.169   5.473  0.00  0.00    +0.100 A 
ATOM     26  C   LIG    1        6.835   9.702   6.461  0.00  0.00    +0.030 A 
ATOM     27  C   LIG    1        8.142   9.383   6.147  0.00  0.00    +0.040 A 
ATOM     28  C   LIG    1        8.600   9.537   4.851  0.00  0.00    +0.030 A 
ATOM     29  C   LIG    1        7.751  10.007   3.866  0.00  0.00    +0.040 A 
ATOM     30  C   LIG    1        6.442  10.323   4.174  0.00  0.00    +0.030 A 
ENDBRANCH  24  25
BRANCH  23  31
ATOM     31  C   LIG    1        5.080  12.457   7.380  0.00  0.00    +0.030 C 
ATOM     32  C   LIG    1        4.396  13.358   8.411  0.00  0.00    +0.070 C 
ATOM     33  C   LIG    1        4.893  13.948   7.089  0.00  0.00    +0.060 C 
ENDBRANCH  23  31
ENDBRANCH  19  20
ENDBRANCH  18  19
ENDBRANCH  12  18
TORSDOF 6
