REMARK  Name = ZINCpe000000XMJW.0
REMARK                            x       y       z     vdW  Elec       q    Type
REMARK                         _______ _______ _______ _____ _____    ______ ____
ROOT
ATOM      1  N   LIG    1       -0.016   1.340   0.009  0.00  0.00    -0.610 N 
ATOM      2  C   LIG    1        1.344   1.892  -0.001  0.00  0.00    +0.300 C 
ATOM      3  C   LIG    1        2.265   0.725   0.420  0.00  0.00    +0.000 C 
ATOM      4  C   LIG    1        1.429  -0.505  -0.004  0.00  0.00    +0.070 C 
ATOM      5  C   LIG    1        0.002  -0.004   0.002  0.00  0.00    +0.520 C 
ATOM      6  O   LIG    1       -0.983  -0.712   0.001  0.00  0.00    -0.520 OA
ENDROOT
BRANCH   3   7
ATOM      7  C   LIG    1        3.572   0.773  -0.328  0.00  0.00    +0.530 C 
ATOM      8  N   LIG    1        4.463  -0.229  -0.194  0.00  0.00    -0.730 N 
ATOM      9  H   LIG    1        4.262  -0.982   0.384  0.00  0.00    +0.400 HD
ATOM     10  O   LIG    1        3.823   1.714  -1.051  0.00  0.00    -0.530 OA
BRANCH   8  11
ATOM     11  C   LIG    1        5.734  -0.182  -0.921  0.00  0.00    +0.290 C 
BRANCH  11  12
ATOM     12  C   LIG    1        6.554  -1.432  -0.596  0.00  0.00    +0.010 C 
ATOM     13  C   LIG    1        7.835  -1.458  -1.447  0.00  0.00    +0.080 C 
ATOM     14  C   LIG    1        8.792  -2.519  -0.868  0.00  0.00    -0.310 C 
ATOM     15  S   LIG    1        8.382  -2.610   0.912  0.00  0.00    +2.390 S 
ATOM     16  O   LIG    1        9.461  -2.083   1.671  0.00  0.00    -0.930 OA
ATOM     17  O   LIG    1        7.866  -3.900   1.211  0.00  0.00    -0.930 OA
ATOM     18  C   LIG    1        7.008  -1.398   0.887  0.00  0.00    -0.310 C 
ENDBRANCH  11  12
ENDBRANCH   8  11
ENDBRANCH   3   7
BRANCH   1  19
ATOM     19  C   LIG    1       -1.237   2.150   0.020  0.00  0.00    +0.350 C 
BRANCH  19  24
ATOM     20  C   LIG    1       -2.813   3.187   5.482  0.00  0.00    +0.090 C 
ATOM     21  C   LIG    1       -2.403   2.917   4.057  0.00  0.00    -0.080 A 
ATOM     22  C   LIG    1       -1.552   3.790   3.406  0.00  0.00    +0.000 A 
ATOM     23  C   LIG    1       -1.175   3.542   2.099  0.00  0.00    +0.020 A 
ATOM     24  C   LIG    1       -1.648   2.421   1.444  0.00  0.00    -0.120 A 
ATOM     25  C   LIG    1       -2.503   1.550   2.094  0.00  0.00    +0.040 A 
ATOM     26  C   LIG    1       -2.877   1.796   3.402  0.00  0.00    +0.000 A 
ENDBRANCH  19  24
ENDBRANCH   1  19
TORSDOF 5
