REMARK  Name = ZINCnE000001P15w.0
REMARK                            x       y       z     vdW  Elec       q    Type
REMARK                         _______ _______ _______ _____ _____    ______ ____
ROOT
ATOM      1  C   LIG    1       -2.528   4.296   0.049  0.00  0.00    +0.570 C 
ATOM      2  N   LIG    1       -3.687   3.615  -0.045  0.00  0.00    -0.600 N 
ATOM      3  C   LIG    1       -5.030   4.214  -0.140  0.00  0.00    +0.280 C 
ATOM      4  C   LIG    1       -5.897   3.130  -0.833  0.00  0.00    +0.070 C 
ATOM      5  C   LIG    1       -5.324   1.830  -0.210  0.00  0.00    -0.200 C 
ATOM      6  C   LIG    1       -3.821   2.151  -0.065  0.00  0.00    +0.290 C 
ATOM      7  O   LIG    1       -2.541   5.508   0.147  0.00  0.00    -0.520 OA
ENDROOT
BRANCH   1  12
ATOM      8  C   LIG    1        2.484   1.468  -0.015  0.00  0.00    +0.090 C 
ATOM      9  C   LIG    1        1.172   2.209   0.002  0.00  0.00    -0.060 A 
ATOM     10  C   LIG    1        1.161   3.591  -0.057  0.00  0.00    +0.020 A 
ATOM     11  C   LIG    1       -0.038   4.276  -0.042  0.00  0.00    +0.010 A 
ATOM     12  C   LIG    1       -1.241   3.570   0.033  0.00  0.00    -0.120 A 
ATOM     13  C   LIG    1       -1.222   2.175   0.086  0.00  0.00    +0.070 A 
ATOM     14 CL   LIG    1       -0.050   6.011  -0.115  0.00  0.00    -0.040 Cl
ATOM     15  C   LIG    1       -0.017   1.504   0.076  0.00  0.00    -0.090 A 
ATOM     16  C   LIG    1        0.005  -0.002   0.139  0.00  0.00    +0.100 C 
ENDBRANCH   1  12
BRANCH   5  17
ATOM     17  C   LIG    1       -5.535   0.641  -1.148  0.00  0.00    +0.480 C 
ATOM     18  F   LIG    1       -4.984   0.931  -2.401  0.00  0.00    -0.190 F 
ATOM     19  F   LIG    1       -6.905   0.394  -1.287  0.00  0.00    -0.170 F 
ATOM     20  F   LIG    1       -4.909  -0.491  -0.615  0.00  0.00    -0.180 F 
ENDBRANCH   5  17
BRANCH   5  21
ATOM     21  C   LIG    1       -5.944   1.561   1.137  0.00  0.00    +0.520 C 
ATOM     22  O   LIG    1       -7.136   1.315   1.221  0.00  0.00    -0.660 OA
ATOM     23  O   LIG    1       -5.255   1.590   2.142  0.00  0.00    -0.660 OA
ENDBRANCH   5  21
TORSDOF 3
