REMARK  Name = ZINCrH000004p1Py.2
REMARK                            x       y       z     vdW  Elec       q    Type
REMARK                         _______ _______ _______ _____ _____    ______ ____
ROOT
ATOM      1  C   LIG    1       -2.195  -0.030  -1.078  0.00  0.00    +0.520 C 
ATOM      2  N   LIG    1       -3.098  -0.556  -1.929  0.00  0.00    -0.680 N 
ATOM      3  H   LIG    1       -2.802  -1.105  -2.672  0.00  0.00    +0.410 HD
ATOM      4  O   LIG    1       -2.556   0.733  -0.207  0.00  0.00    -0.500 OA
ENDROOT
BRANCH   2   5
ATOM      5  C   LIG    1       -4.465  -0.311  -1.741  0.00  0.00    +0.120 A 
ATOM      6  C   LIG    1       -4.975  -0.176  -0.456  0.00  0.00    +0.050 A 
ATOM      7  C   LIG    1       -6.321   0.071  -0.271  0.00  0.00    -0.020 A 
ATOM      8  C   LIG    1       -7.166   0.174  -1.368  0.00  0.00    +0.090 A 
ATOM      9  C   LIG    1       -6.656   0.034  -2.652  0.00  0.00    +0.010 A 
ATOM     10  C   LIG    1       -5.310  -0.208  -2.838  0.00  0.00    +0.010 A 
BRANCH   8  11
ATOM     11  N   LIG    1       -8.530   0.420  -1.180  0.00  0.00    -0.490 N 
ATOM     12  C   LIG    1       -8.953   1.626  -1.907  0.00  0.00    +0.160 C 
ATOM     13  C   LIG    1      -10.460   1.824  -1.722  0.00  0.00    +0.220 C 
ATOM     14  O   LIG    1      -10.759   1.901  -0.326  0.00  0.00    -0.380 OA
ATOM     15  C   LIG    1      -10.361   0.742   0.412  0.00  0.00    +0.220 C 
ATOM     16  C   LIG    1       -8.853   0.534   0.250  0.00  0.00    +0.160 C 
ENDBRANCH   8  11
ENDBRANCH   2   5
BRANCH   1  18
ATOM     17  C   LIG    1       -0.231   0.030  -2.591  0.00  0.00    +0.020 C 
ATOM     18  C   LIG    1       -0.738  -0.389  -1.209  0.00  0.00    +0.170 C 
BRANCH  18  19
ATOM     19  N   LIG    1        0.034   0.310  -0.172  0.00  0.00    -0.500 NA
ATOM     20  C   LIG    1       -0.012   1.770  -0.373  0.00  0.00    +0.200 C 
ATOM     21  C   LIG    1        1.446   2.261  -0.488  0.00  0.00    +0.000 C 
ATOM     22  C   LIG    1        2.250   1.140   0.220  0.00  0.00    +0.040 C 
ATOM     23  C   LIG    1        1.448  -0.123  -0.182  0.00  0.00    +0.200 C 
BRANCH  23  24
ATOM     24  C   LIG    1        1.666  -1.226   0.821  0.00  0.00    -0.100 A 
ATOM     25  C   LIG    1        1.092  -1.225   2.025  0.00  0.00    +0.000 A 
ATOM     26  S   LIG    1        1.578  -2.664   2.911  0.00  0.00    +0.090 S 
ATOM     27  C   LIG    1        2.564  -3.201   1.558  0.00  0.00    -0.060 A 
ATOM     28  C   LIG    1        2.474  -2.319   0.561  0.00  0.00    +0.010 A 
ENDBRANCH  23  24
ENDBRANCH  18  19
ENDBRANCH   1  18
TORSDOF 5
