REMARK  Name = ZINCnE000001TyIV.0
REMARK                            x       y       z     vdW  Elec       q    Type
REMARK                         _______ _______ _______ _____ _____    ______ ____
ROOT
ATOM      1  C   LIG    1       -3.227  -0.541  -1.131  0.00  0.00    -0.030 C 
ATOM      2  C   LIG    1       -1.826  -1.025  -1.511  0.00  0.00    +0.020 C 
ATOM      3  C   LIG    1       -1.074  -1.456  -0.250  0.00  0.00    +0.010 C 
ATOM      4  C   LIG    1       -0.931  -0.256   0.691  0.00  0.00    +0.250 C 
ATOM      5  N   LIG    1       -2.266   0.305   0.946  0.00  0.00    -0.600 N 
ATOM      6  C   LIG    1       -2.706   0.481   2.208  0.00  0.00    +0.550 C 
ATOM      7  O   LIG    1       -3.783   1.009   2.407  0.00  0.00    -0.520 OA
ATOM      8  C   LIG    1       -3.110   0.669  -0.200  0.00  0.00    +0.280 C 
ENDROOT
BRANCH   6   9
ATOM      9  C   LIG    1       -1.881   0.032   3.349  0.00  0.00    -0.080 A 
ATOM     10  C   LIG    1       -0.538   0.405   3.433  0.00  0.00    +0.050 A 
ATOM     11  C   LIG    1        0.225  -0.014   4.503  0.00  0.00    +0.070 A 
ATOM     12  C   LIG    1       -0.334  -0.811   5.486  0.00  0.00    -0.170 A 
ATOM     13  C   LIG    1       -1.663  -1.188   5.406  0.00  0.00    +0.070 A 
ATOM     14  C   LIG    1       -2.439  -0.772   4.344  0.00  0.00    +0.070 A 
BRANCH  12  15
ATOM     15  C   LIG    1        0.508  -1.269   6.649  0.00  0.00    +0.510 C 
ATOM     16  F   LIG    1       -0.304  -1.430   7.777  0.00  0.00    -0.180 F 
ATOM     17  F   LIG    1        1.494  -0.313   6.916  0.00  0.00    -0.180 F 
ATOM     18  F   LIG    1        1.115  -2.489   6.333  0.00  0.00    -0.180 F 
ENDBRANCH  12  15
ENDBRANCH   6   9
BRANCH   1  19
ATOM     19  C   LIG    1       -3.990  -0.142  -2.395  0.00  0.00    +0.040 C 
BRANCH  19  20
ATOM     20  C   LIG    1       -5.430   0.223  -2.028  0.00  0.00    -0.080 C 
BRANCH  20  22
ATOM     21  O   LIG    1       -5.618   0.606  -4.354  0.00  0.00    -0.700 OA
ATOM     22  C   LIG    1       -6.182   0.616  -3.273  0.00  0.00    +0.490 C 
ATOM     23  O   LIG    1       -7.354   0.945  -3.200  0.00  0.00    -0.710 OA
ENDBRANCH  20  22
ENDBRANCH  19  20
ENDBRANCH   1  19
TORSDOF 5
