REMARK  Name = ZINCrH00000No52R.0
REMARK                            x       y       z     vdW  Elec       q    Type
REMARK                         _______ _______ _______ _____ _____    ______ ____
ROOT
ATOM      1  C   LIG    1        4.928   2.062   0.154  0.00  0.00    +0.240 C 
ATOM      2  C   LIG    1        4.742   1.590  -1.309  0.00  0.00    +0.250 C 
ATOM      3  N   LIG    1        5.289   2.685  -2.132  0.00  0.00    -0.600 N 
ATOM      4  C   LIG    1        6.258   3.438  -1.325  0.00  0.00    +0.170 C 
ATOM      5  C   LIG    1        7.644   3.357  -1.961  0.00  0.00    +0.000 C 
ATOM      6  C   LIG    1        7.610   4.003  -3.348  0.00  0.00    +0.010 C 
ATOM      7  C   LIG    1        7.183   5.466  -3.219  0.00  0.00    -0.010 C 
ATOM      8  C   LIG    1        5.788   5.537  -2.595  0.00  0.00    +0.000 C 
ATOM      9  C   LIG    1        5.817   4.896  -1.206  0.00  0.00    +0.000 C 
ATOM     10  C   LIG    1        4.956   2.950  -3.410  0.00  0.00    +0.490 C 
ATOM     11  O   LIG    1        5.495   3.862  -4.001  0.00  0.00    -0.450 OA
ATOM     12  C   LIG    1        6.294   2.795   0.075  0.00  0.00    +0.050 C 
ENDROOT
BRANCH   1  14
ATOM     13  C   LIG    1        2.752   2.512   1.154  0.00  0.00    +0.550 C 
ATOM     14  N   LIG    1        3.860   2.984   0.549  0.00  0.00    -0.720 N 
ATOM     15  H   LIG    1        3.950   3.934   0.375  0.00  0.00    +0.400 HD
ATOM     16  O   LIG    1        2.639   1.321   1.372  0.00  0.00    -0.540 OA
BRANCH  13  18
ATOM     17  C   LIG    1        0.581   2.970   2.136  0.00  0.00    +0.150 C 
ATOM     18  C   LIG    1        1.677   3.437   1.544  0.00  0.00    -0.090 C 
ENDBRANCH  13  18
ENDBRANCH   1  14
BRANCH  10  19
ATOM     19  C   LIG    1        3.913   2.114  -4.106  0.00  0.00    +0.090 C 
BRANCH  19  20
ATOM     20  C   LIG    1        3.764   2.586  -5.554  0.00  0.00    -0.070 C 
ATOM     21  C   LIG    1        3.383   1.538  -6.603  0.00  0.00    +0.040 C 
ATOM     22  C   LIG    1        4.805   2.102  -6.566  0.00  0.00    +0.030 C 
BRANCH  20  23
ATOM     23  C   LIG    1        3.216   3.978  -5.731  0.00  0.00    -0.040 A 
ATOM     24  C   LIG    1        4.012   4.970  -6.273  0.00  0.00    +0.040 A 
ATOM     25  C   LIG    1        3.509   6.247  -6.439  0.00  0.00    +0.000 A 
ATOM     26  C   LIG    1        2.212   6.534  -6.054  0.00  0.00    +0.000 A 
ATOM     27  C   LIG    1        1.418   5.543  -5.507  0.00  0.00    +0.000 A 
ATOM     28  C   LIG    1        1.920   4.266  -5.345  0.00  0.00    +0.000 A 
ENDBRANCH  20  23
ENDBRANCH  19  20
ENDBRANCH  10  19
TORSDOF 5
