REMARK  Name = ZINCqH0000038GFy.0
REMARK                            x       y       z     vdW  Elec       q    Type
REMARK                         _______ _______ _______ _____ _____    ______ ____
ROOT
ATOM      1  N   LIG    1        1.362   1.593  -0.002  0.00  0.00    -0.740 N 
ATOM      2  H   LIG    1        1.574   2.409  -0.482  0.00  0.00    +0.400 HD
ATOM      3  C   LIG    1        2.331   0.925   0.654  0.00  0.00    +0.720 C 
ATOM      4  N   LIG    1        3.596   1.392   0.645  0.00  0.00    -0.630 N 
ATOM      5  C   LIG    1        4.057   2.610  -0.046  0.00  0.00    +0.240 C 
ATOM      6  C   LIG    1        5.335   3.038   0.722  0.00  0.00    +0.040 C 
ATOM      7  C   LIG    1        5.973   1.663   1.051  0.00  0.00    +0.050 C 
ATOM      8  C   LIG    1        4.745   0.767   1.316  0.00  0.00    +0.290 C 
ATOM      9  O   LIG    1        2.065  -0.097   1.255  0.00  0.00    -0.570 OA
ENDROOT
BRANCH   1  15
ATOM     10  C   LIG    1       -5.574   0.748   2.294  0.00  0.00    +0.190 C 
ATOM     11  C   LIG    1       -4.250   0.907   1.591  0.00  0.00    +0.220 A 
ATOM     12  N   LIG    1       -3.119   1.233   2.165  0.00  0.00    -0.310 NA
ATOM     13  N   LIG    1       -2.155   1.269   1.153  0.00  0.00    -0.370 N 
ATOM     14  C   LIG    1       -0.730   1.580   1.269  0.00  0.00    +0.310 C 
ATOM     15  C   LIG    1       -0.013   1.086   0.008  0.00  0.00    +0.260 C 
ATOM     16  C   LIG    1       -0.753   1.593  -1.233  0.00  0.00    +0.040 C 
ATOM     17  C   LIG    1       -2.108   0.881  -1.340  0.00  0.00    +0.180 C 
ATOM     18  C   LIG    1       -2.787   0.955   0.006  0.00  0.00    +0.270 A 
ATOM     19  N   LIG    1       -4.042   0.740   0.283  0.00  0.00    -0.530 NA
ENDBRANCH   1  15
BRANCH   8  20
ATOM     20  C   LIG    1        4.983  -0.609   0.749  0.00  0.00    -0.070 A 
ATOM     21  C   LIG    1        4.819  -0.837  -0.605  0.00  0.00    +0.040 A 
ATOM     22  C   LIG    1        5.042  -2.097  -1.127  0.00  0.00    +0.040 A 
ATOM     23  C   LIG    1        5.419  -3.134  -0.293  0.00  0.00    -0.030 A 
ATOM     24  C   LIG    1        5.577  -2.908   1.064  0.00  0.00    -0.030 A 
ATOM     25 CL   LIG    1        6.051  -4.208   2.112  0.00  0.00    -0.050 Cl
ATOM     26 CL   LIG    1        5.692  -4.719  -0.947  0.00  0.00    -0.050 Cl
ATOM     27  C   LIG    1        5.359  -1.645   1.584  0.00  0.00    +0.060 A 
ENDBRANCH   8  20
TORSDOF 2
