REMARK  Name = ZINCnE000001J0Hn.1
REMARK                            x       y       z     vdW  Elec       q    Type
REMARK                         _______ _______ _______ _____ _____    ______ ____
ROOT
ATOM      1  N   LIG    1       -1.191   1.867   0.018  0.00  0.00    -0.660 NA
ATOM      2  C   LIG    1       -0.014   1.209   0.009  0.00  0.00    +0.490 C 
ATOM      3  O   LIG    1        0.002  -0.004   0.002  0.00  0.00    -0.600 OA
ENDROOT
BRANCH   1  11
ATOM      4  C   LIG    1       -6.605  -0.751   1.848  0.00  0.00    +0.180 C 
ATOM      5  N   LIG    1       -6.565  -1.059   0.413  0.00  0.00    -0.530 NA
ATOM      6  C   LIG    1       -6.925   0.119  -0.389  0.00  0.00    +0.210 C 
ATOM      7  C   LIG    1       -6.063   1.312   0.034  0.00  0.00    +0.080 C 
ATOM      8  C   LIG    1       -4.606   0.869   0.028  0.00  0.00    +0.100 A 
ATOM      9  C   LIG    1       -4.262  -0.432   0.021  0.00  0.00    -0.380 A 
ATOM     10  S   LIG    1       -2.509  -0.550   0.004  0.00  0.00    +0.050 S 
ATOM     11  C   LIG    1       -2.385   1.155   0.020  0.00  0.00    +0.350 A 
ATOM     12  N   LIG    1       -3.564   1.687   0.028  0.00  0.00    -0.560 NA
ATOM     13  C   LIG    1       -5.245  -1.578   0.021  0.00  0.00    +0.290 C 
ENDBRANCH   1  11
BRANCH   2  14
ATOM     14  C   LIG    1        1.280   1.980   0.001  0.00  0.00    -0.080 C 
ATOM     15  C   LIG    1        2.128   1.923  -1.272  0.00  0.00    +0.050 C 
ATOM     16  C   LIG    1        2.582   1.175  -0.016  0.00  0.00    +0.050 C 
BRANCH  14  17
ATOM     17  C   LIG    1        1.272   3.273   0.774  0.00  0.00    -0.020 A 
ATOM     18  C   LIG    1        0.124   4.042   0.822  0.00  0.00    +0.110 A 
ATOM     19  C   LIG    1        0.115   5.228   1.533  0.00  0.00    +0.010 A 
ATOM     20  C   LIG    1        1.254   5.646   2.195  0.00  0.00    +0.000 A 
ATOM     21  C   LIG    1        2.403   4.877   2.147  0.00  0.00    -0.050 A 
ATOM     22 CL   LIG    1        3.834   5.401   2.978  0.00  0.00    -0.090 Cl
ATOM     23  C   LIG    1        2.410   3.687   1.441  0.00  0.00    +0.010 A 
ENDBRANCH  14  17
ENDBRANCH   2  14
TORSDOF 3
