REMARK  Name = ZINCrg000000rFWN.0
REMARK                            x       y       z     vdW  Elec       q    Type
REMARK                         _______ _______ _______ _____ _____    ______ ____
ROOT
ATOM      1  C   LIG    1        0.338   5.171   1.183  0.00  0.00    +0.150 A 
ATOM      2  C   LIG    1       -0.896   5.807   1.200  0.00  0.00    +0.030 A 
ATOM      3  C   LIG    1       -0.962   7.185   1.122  0.00  0.00    +0.040 A 
ATOM      4  C   LIG    1        0.198   7.929   1.016  0.00  0.00    +0.020 A 
ATOM      5  C   LIG    1        1.429   7.298   0.993  0.00  0.00    -0.080 A 
ATOM      6  C   LIG    1        1.502   5.921   1.076  0.00  0.00    +0.010 A 
ENDROOT
BRANCH   5   7
ATOM      7  C   LIG    1        2.691   8.113   0.878  0.00  0.00    +0.170 C 
ATOM      8  N   LIG    1        3.692   7.405   0.062  0.00  0.00    -0.720 N 
ATOM      9  H   LIG    1        4.095   6.544   0.256  0.00  0.00    +0.440 HD
ATOM     10  C   LIG    1        3.940   8.185  -1.006  0.00  0.00    +0.710 C 
ATOM     11  N   LIG    1        3.225   9.316  -0.989  0.00  0.00    -0.680 N 
ATOM     12  H   LIG    1        3.272  10.000  -1.675  0.00  0.00    +0.440 HD
ATOM     13  O   LIG    1        4.726   7.895  -1.886  0.00  0.00    -0.540 OA
ATOM     14  C   LIG    1        3.251   8.434   2.265  0.00  0.00    +0.100 C 
ATOM     15  C   LIG    1        2.433   9.387   0.099  0.00  0.00    +0.540 C 
ATOM     16  O   LIG    1        1.673  10.285   0.393  0.00  0.00    -0.450 OA
ENDBRANCH   5   7
BRANCH   1  18
ATOM     17  C   LIG    1       -0.499   3.098   1.998  0.00  0.00    +0.510 C 
ATOM     18  N   LIG    1        0.409   3.776   1.268  0.00  0.00    -0.670 N 
ATOM     19  H   LIG    1        1.111   3.297   0.801  0.00  0.00    +0.420 HD
ATOM     20  O   LIG    1       -1.319   3.701   2.658  0.00  0.00    -0.510 OA
BRANCH  17  22
ATOM     21  C   LIG    1       -0.717   1.085   0.567  0.00  0.00    +0.060 C 
ATOM     22  C   LIG    1       -0.496   1.591   1.994  0.00  0.00    +0.250 C 
BRANCH  22  23
ATOM     23  N   LIG    1       -1.571   1.098   2.858  0.00  0.00    -0.710 N 
ATOM     24  H   LIG    1       -2.349   1.652   3.029  0.00  0.00    +0.410 HD
ATOM     25  C   LIG    1       -1.480  -0.125   3.416  0.00  0.00    +0.600 C 
ATOM     26  O   LIG    1       -0.505  -0.820   3.202  0.00  0.00    -0.530 OA
BRANCH  25  27
ATOM     27  C   LIG    1       -2.561  -0.621   4.286  0.00  0.00    -0.240 A 
ATOM     28  C   LIG    1       -3.709   0.032   4.628  0.00  0.00    +0.240 A 
ATOM     29  O   LIG    1       -4.424  -0.764   5.429  0.00  0.00    -0.170 OA
ATOM     30  C   LIG    1       -3.787  -1.926   5.643  0.00  0.00    +0.170 A 
ATOM     31  C   LIG    1       -2.625  -1.920   4.972  0.00  0.00    +0.000 A 
ENDBRANCH  25  27
ENDBRANCH  22  23
ENDBRANCH  17  22
ENDBRANCH   1  18
TORSDOF 5
