REMARK  Name = ZINCpe00000VTH8e.0
REMARK                            x       y       z     vdW  Elec       q    Type
REMARK                         _______ _______ _______ _____ _____    ______ ____
ROOT
ATOM      1  N   LIG    1       -0.573   2.017  -1.454  0.00  0.00    -0.480 NA
ENDROOT
BRANCH   1   2
ATOM      2  C   LIG    1        0.175   1.452  -0.323  0.00  0.00    +0.190 C 
ATOM      3  C   LIG    1       -0.145   2.267   0.946  0.00  0.00    -0.340 C 
ATOM      4  S   LIG    1        1.444   2.228   1.869  0.00  0.00    +2.390 S 
ATOM      5  C   LIG    1        2.483   2.288   0.354  0.00  0.00    -0.350 C 
ATOM      6  O   LIG    1        1.602   3.431   2.609  0.00  0.00    -0.920 OA
ATOM      7  O   LIG    1        1.599   0.969   2.510  0.00  0.00    -0.930 OA
ATOM      8  C   LIG    1        1.662   1.463  -0.658  0.00  0.00    +0.210 C 
BRANCH   8   9
ATOM      9  O   LIG    1        1.839   2.020  -1.962  0.00  0.00    -0.510 OA
ATOM     10  H   LIG    1        2.751   1.991  -2.282  0.00  0.00    +0.370 HD
ENDBRANCH   8   9
ENDBRANCH   1   2
BRANCH   1  11
ATOM     11  C   LIG    1       -0.886   3.433  -1.222  0.00  0.00    +0.320 C 
BRANCH  11  13
ATOM     12  C   LIG    1        1.123   4.673  -2.206  0.00  0.00    -0.170 A 
ATOM     13  C   LIG    1        0.394   4.224  -1.143  0.00  0.00    +0.090 A 
ATOM     14  O   LIG    1        1.012   4.601  -0.020  0.00  0.00    -0.190 OA
ATOM     15  C   LIG    1        2.129   5.293  -0.295  0.00  0.00    +0.170 A 
ATOM     16  C   LIG    1        2.271   5.387  -1.626  0.00  0.00    -0.010 A 
BRANCH  12  17
ATOM     17  C   LIG    1        0.822   4.484  -3.635  0.00  0.00    +0.540 C 
ATOM     18  O   LIG    1       -0.171   3.869  -3.971  0.00  0.00    -0.490 OA
BRANCH  17  20
ATOM     19  C   LIG    1        1.288   4.769  -5.960  0.00  0.00    +0.260 C 
ATOM     20  O   LIG    1        1.647   4.993  -4.571  0.00  0.00    -0.360 OA
ENDBRANCH  17  20
ENDBRANCH  12  17
ENDBRANCH  11  13
ENDBRANCH   1  11
BRANCH   1  21
ATOM     21  C   LIG    1       -1.794   1.244  -1.717  0.00  0.00    +0.300 C 
BRANCH  21  22
ATOM     22  C   LIG    1       -1.422  -0.117  -2.246  0.00  0.00    +0.000 A 
ATOM     23  C   LIG    1       -1.304  -1.240  -1.514  0.00  0.00    -0.060 A 
ATOM     24  C   LIG    1       -0.943  -2.275  -2.408  0.00  0.00    -0.070 A 
ATOM     25  C   LIG    1       -0.862  -1.722  -3.632  0.00  0.00    +0.170 A 
ATOM     26  O   LIG    1       -1.159  -0.417  -3.528  0.00  0.00    -0.160 OA
ENDBRANCH  21  22
ENDBRANCH   1  21
TORSDOF 8
