REMARK  Name = ZINCrg00000BvZ0B.0
REMARK                            x       y       z     vdW  Elec       q    Type
REMARK                         _______ _______ _______ _____ _____    ______ ____
ROOT
ATOM      1  O   LIG    1       -3.251   2.506   3.187  0.00  0.00    -0.490 OA
ATOM      2  C   LIG    1       -3.643   1.458   2.712  0.00  0.00    +0.600 C 
ATOM      3  N   LIG    1       -3.131   1.012   1.548  0.00  0.00    -0.730 N 
ATOM      4  H   LIG    1       -3.386   0.139   1.209  0.00  0.00    +0.390 HD
ENDROOT
BRANCH   2   5
ATOM      5  C   LIG    1       -4.678   0.676   3.409  0.00  0.00    -0.090 A 
ATOM      6  C   LIG    1       -5.359   1.029   4.544  0.00  0.00    +0.240 A 
ATOM      7  N   LIG    1       -6.191   0.022   4.811  0.00  0.00    -0.270 NA
ATOM      8  N   LIG    1       -6.053  -0.895   3.922  0.00  0.00    -0.030 NA
ATOM      9  N   LIG    1       -5.165  -0.555   3.054  0.00  0.00    -0.270 N 
BRANCH   9  10
ATOM     10  C   LIG    1       -4.746  -1.346   1.895  0.00  0.00    +0.370 C 
BRANCH  10  11
ATOM     11  C   LIG    1       -5.594  -2.589   1.802  0.00  0.00    -0.110 A 
ATOM     12  C   LIG    1       -5.145  -3.775   2.352  0.00  0.00    +0.030 A 
ATOM     13  C   LIG    1       -5.924  -4.914   2.270  0.00  0.00    +0.010 A 
ATOM     14  C   LIG    1       -7.149  -4.869   1.630  0.00  0.00    +0.030 A 
ATOM     15  C   LIG    1       -7.596  -3.684   1.076  0.00  0.00    +0.010 A 
ATOM     16  C   LIG    1       -6.818  -2.544   1.161  0.00  0.00    +0.030 A 
ENDBRANCH  10  11
ENDBRANCH   9  10
ENDBRANCH   2   5
BRANCH   3  17
ATOM     17  C   LIG    1       -2.190   1.844   0.795  0.00  0.00    +0.260 C 
ATOM     18  C   LIG    1       -2.228   1.466  -0.700  0.00  0.00    +0.050 C 
ATOM     19  C   LIG    1       -0.756   1.593  -1.162  0.00  0.00    +0.000 C 
ATOM     20  C   LIG    1        0.033   1.056   0.058  0.00  0.00    +0.000 C 
ATOM     21  C   LIG    1       -0.749   1.584   1.279  0.00  0.00    +0.150 C 
BRANCH  21  22
ATOM     22  O   LIG    1       -0.162   2.800   1.748  0.00  0.00    -0.550 OA
ATOM     23  H   LIG    1        0.754   2.705   2.045  0.00  0.00    +0.380 HD
ENDBRANCH  21  22
BRANCH  19  24
ATOM     24  C   LIG    1       -0.498   0.726  -2.397  0.00  0.00    +0.330 C 
BRANCH  24  25
ATOM     25  N   LIG    1        0.902   0.863  -2.806  0.00  0.00    -0.370 N 
ATOM     26  C   LIG    1        1.782  -0.146  -2.974  0.00  0.00    +0.220 A 
ATOM     27  C   LIG    1        2.962   0.396  -3.355  0.00  0.00    -0.120 A 
ATOM     28  C   LIG    1        2.798   1.783  -3.422  0.00  0.00    +0.220 A 
ATOM     29  N   LIG    1        1.561   2.064  -3.099  0.00  0.00    -0.290 NA
ENDBRANCH  24  25
ENDBRANCH  19  24
ENDBRANCH   3  17
TORSDOF 7
