REMARK  Name = ZINCnE000001SaDq.1
REMARK                            x       y       z     vdW  Elec       q    Type
REMARK                         _______ _______ _______ _____ _____    ______ ____
ROOT
ATOM      1  C   LIG    1       -0.857  -2.239   0.046  0.00  0.00    -0.010 C 
ATOM      2  C   LIG    1        0.083  -2.509  -1.131  0.00  0.00    +0.030 C 
ATOM      3  C   LIG    1       -0.649  -2.223  -2.444  0.00  0.00    -0.010 C 
ATOM      4  C   LIG    1       -1.876  -3.131  -2.552  0.00  0.00    +0.000 C 
ATOM      5  C   LIG    1       -2.816  -2.861  -1.375  0.00  0.00    -0.020 C 
ATOM      6  C   LIG    1       -2.084  -3.147  -0.062  0.00  0.00    +0.040 C 
ENDROOT
BRANCH   1   7
ATOM      7  C   LIG    1       -0.125  -2.525   1.359  0.00  0.00    +0.050 C 
BRANCH   7   9
ATOM      8  O   LIG    1        0.081  -4.691   0.445  0.00  0.00    -0.570 OA
ATOM      9  C   LIG    1        0.382  -3.944   1.352  0.00  0.00    +0.470 C 
ATOM     10  N   LIG    1        1.169  -4.383   2.354  0.00  0.00    -0.700 NA
BRANCH  10  11
ATOM     11  C   LIG    1        1.637  -5.692   2.348  0.00  0.00    +0.350 A 
ATOM     12  N   LIG    1        1.372  -6.571   1.433  0.00  0.00    -0.570 NA
ATOM     13  C   LIG    1        1.905  -7.769   1.583  0.00  0.00    +0.230 A 
ATOM     14  C   LIG    1        2.647  -7.912   2.683  0.00  0.00    -0.220 A 
ATOM     15  S   LIG    1        2.640  -6.379   3.550  0.00  0.00    -0.010 S 
ENDBRANCH  10  11
ENDBRANCH   7   9
ENDBRANCH   1   7
BRANCH   1  16
ATOM     16  C   LIG    1       -1.301  -0.775   0.018  0.00  0.00    +0.040 C 
BRANCH  16  17
ATOM     17  C   LIG    1       -2.169  -0.491   1.217  0.00  0.00    +0.530 C 
ATOM     18  N   LIG    1       -2.578   0.769   1.469  0.00  0.00    -0.630 N 
ATOM     19  C   LIG    1       -2.248   1.954   0.664  0.00  0.00    +0.240 C 
ATOM     20  C   LIG    1       -2.912   3.169   1.345  0.00  0.00    +0.030 C 
ATOM     21  C   LIG    1       -3.099   2.687   2.808  0.00  0.00    +0.030 C 
ATOM     22  C   LIG    1       -3.425   1.186   2.601  0.00  0.00    +0.240 C 
ATOM     23  O   LIG    1       -2.499  -1.395   1.955  0.00  0.00    -0.520 OA
ENDBRANCH  16  17
ENDBRANCH   1  16
TORSDOF 5
