REMARK  Name = ZINCtV00000L6kms.0
REMARK                            x       y       z     vdW  Elec       q    Type
REMARK                         _______ _______ _______ _____ _____    ______ ____
ROOT
ATOM      1  C   LIG    1       -0.957   1.909  -1.397  0.00  0.00    -0.540 A 
ATOM      2  C   LIG    1       -1.887   1.161  -2.038  0.00  0.00    +0.060 A 
ATOM      3  O   LIG    1       -2.368   1.908  -3.054  0.00  0.00    -0.180 OA
ATOM      4  C   LIG    1       -1.726   3.093  -3.030  0.00  0.00    +0.280 A 
ATOM      5  N   LIG    1       -0.875   3.091  -2.029  0.00  0.00    -0.390 NA
ENDROOT
BRANCH   4   6
ATOM      6  C   LIG    1       -1.942   4.204  -3.968  0.00  0.00    -0.150 A 
ATOM      7  C   LIG    1       -2.827   4.199  -5.004  0.00  0.00    +0.060 A 
ATOM      8  C   LIG    1       -2.845   5.363  -5.742  0.00  0.00    +0.010 A 
ATOM      9  C   LIG    1       -1.998   6.311  -5.332  0.00  0.00    -0.020 A 
ATOM     10  S   LIG    1       -1.105   5.750  -3.925  0.00  0.00    +0.220 S 
ENDBRANCH   4   6
BRANCH   1  12
ATOM     11  O   LIG    1        0.002  -0.004   0.002  0.00  0.00    -0.910 OA
ATOM     12  S   LIG    1       -0.017   1.417   0.010  0.00  0.00    +2.610 S 
ATOM     13  O   LIG    1        1.162   2.210   0.003  0.00  0.00    -0.910 OA
BRANCH  12  14
ATOM     14  C   LIG    1       -0.930   1.894   1.440  0.00  0.00    -0.660 A 
ATOM     15  C   LIG    1       -0.728   3.140   2.004  0.00  0.00    +0.160 A 
ATOM     16  C   LIG    1       -1.447   3.517   3.123  0.00  0.00    +0.020 A 
ATOM     17  C   LIG    1       -2.361   2.643   3.684  0.00  0.00    +0.020 A 
ATOM     18  C   LIG    1       -2.558   1.394   3.122  0.00  0.00    +0.020 A 
ATOM     19 CL   LIG    1       -3.258   3.112   5.094  0.00  0.00    -0.050 Cl
ATOM     20  C   LIG    1       -1.843   1.021   2.000  0.00  0.00    +0.140 A 
ENDBRANCH  12  14
ENDBRANCH   1  12
BRANCH   2  21
ATOM     21  S   LIG    1       -2.378  -0.479  -1.622  0.00  0.00    +0.080 S 
BRANCH  21  22
ATOM     22  C   LIG    1       -3.636  -0.858  -2.873  0.00  0.00    +0.120 C 
BRANCH  22  23
ATOM     23  C   LIG    1       -4.163  -2.252  -2.648  0.00  0.00    -0.120 A 
ATOM     24  C   LIG    1       -5.255  -2.453  -1.825  0.00  0.00    +0.070 A 
ATOM     25  C   LIG    1       -5.739  -3.732  -1.618  0.00  0.00    +0.010 A 
ATOM     26  C   LIG    1       -5.132  -4.810  -2.235  0.00  0.00    +0.060 A 
ATOM     27  C   LIG    1       -4.041  -4.611  -3.059  0.00  0.00    -0.010 A 
ATOM     28  C   LIG    1       -3.559  -3.330  -3.272  0.00  0.00    +0.120 A 
ATOM     29  F   LIG    1       -2.495  -3.134  -4.082  0.00  0.00    -0.130 F 
ENDBRANCH  22  23
ENDBRANCH  21  22
ENDBRANCH   2  21
TORSDOF 6
