REMARK  Name = ZINCrH000004kexk.0
REMARK                            x       y       z     vdW  Elec       q    Type
REMARK                         _______ _______ _______ _____ _____    ______ ____
ROOT
ATOM      1  N   LIG    1       -3.005   4.514   0.052  0.00  0.00    -0.660 N 
ATOM      2  H   LIG    1       -3.361   3.615  -0.024  0.00  0.00    +0.420 HD
ATOM      3  C   LIG    1       -1.672   4.714   0.044  0.00  0.00    +0.600 C 
ATOM      4  O   LIG    1       -1.227   5.847   0.038  0.00  0.00    -0.480 OA
ENDROOT
BRANCH   1   9
ATOM      5  C   LIG    1       -4.313   7.856   0.889  0.00  0.00    -0.120 A 
ATOM      6  C   LIG    1       -5.616   7.753   0.399  0.00  0.00    +0.030 A 
ATOM      7  C   LIG    1       -6.038   6.583  -0.199  0.00  0.00    +0.040 A 
ATOM      8  C   LIG    1       -5.174   5.510  -0.314  0.00  0.00    -0.090 A 
ATOM      9  C   LIG    1       -3.875   5.603   0.171  0.00  0.00    +0.140 A 
ATOM     10  C   LIG    1       -5.643   4.236  -0.968  0.00  0.00    +0.110 C 
ATOM     11  C   LIG    1       -3.443   6.772   0.778  0.00  0.00    +0.090 A 
BRANCH   5  15
ATOM     12  C   LIG    1       -4.253  11.395   2.277  0.00  0.00    +0.290 C 
ATOM     13  N   LIG    1       -4.703  10.154   1.642  0.00  0.00    -0.730 N 
ATOM     14  H   LIG    1       -5.609  10.084   1.301  0.00  0.00    +0.400 HD
ATOM     15  C   LIG    1       -3.859   9.109   1.530  0.00  0.00    +0.560 C 
ATOM     16  O   LIG    1       -2.724   9.197   1.957  0.00  0.00    -0.530 OA
ENDBRANCH   5  15
ENDBRANCH   1   9
BRANCH   3  17
ATOM     17  C   LIG    1       -0.758   3.568   0.041  0.00  0.00    -0.070 A 
ATOM     18  C   LIG    1        0.606   3.629   0.033  0.00  0.00    +0.060 A 
ATOM     19  C   LIG    1        1.069   2.304   0.034  0.00  0.00    -0.020 A 
ATOM     20  C   LIG    1       -0.019   1.502   0.042  0.00  0.00    +0.010 A 
ATOM     21  O   LIG    1       -1.118   2.268   0.042  0.00  0.00    -0.160 OA
BRANCH  20  22
ATOM     22  C   LIG    1        0.002  -0.005   0.045  0.00  0.00    +0.330 C 
BRANCH  22  23
ATOM     23  O   LIG    1        0.017  -0.478   1.394  0.00  0.00    -0.310 OA
BRANCH  23  24
ATOM     24  C   LIG    1        0.036  -1.825   1.575  0.00  0.00    +0.130 A 
ATOM     25  C   LIG    1        0.035  -2.673   0.477  0.00  0.00    -0.080 A 
ATOM     26  C   LIG    1        0.059  -4.042   0.664  0.00  0.00    +0.050 A 
ATOM     27  C   LIG    1        0.075  -4.566   1.943  0.00  0.00    -0.030 A 
ATOM     28  C   LIG    1        0.071  -3.723   3.038  0.00  0.00    +0.050 A 
ATOM     29  C   LIG    1        0.051  -2.353   2.857  0.00  0.00    -0.020 A 
ENDBRANCH  23  24
ENDBRANCH  22  23
ENDBRANCH  20  22
ENDBRANCH   3  17
TORSDOF 6
