REMARK  Name = ZINCpe00000bAoOg.1
REMARK                            x       y       z     vdW  Elec       q    Type
REMARK                         _______ _______ _______ _____ _____    ______ ____
ROOT
ATOM      1  C   LIG    1       -0.019   1.539   0.011  0.00  0.00    -0.090 C 
ATOM      2  C   LIG    1        0.002  -0.004   0.002  0.00  0.00    +0.050 C 
ATOM      3  C   LIG    1        1.499  -0.382  -0.014  0.00  0.00    +0.280 C 
ATOM      4  N   LIG    1        2.188   0.794   0.566  0.00  0.00    -0.610 N 
ATOM      5  C   LIG    1        3.234   0.803   1.415  0.00  0.00    +0.620 C 
ATOM      6  O   LIG    1        3.691   1.861   1.805  0.00  0.00    -0.540 OA
ATOM      7  C   LIG    1       -0.731   2.068  -1.236  0.00  0.00    +0.060 C 
ATOM      8  C   LIG    1        1.467   1.957  -0.001  0.00  0.00    +0.280 C 
ENDROOT
BRANCH   5   9
ATOM      9  C   LIG    1        3.824  -0.469   1.873  0.00  0.00    +0.010 A 
ATOM     10  C   LIG    1        4.881  -0.601   2.729  0.00  0.00    +0.190 A 
ATOM     11  N   LIG    1        5.104  -1.935   2.888  0.00  0.00    -0.360 N 
ATOM     12  C   LIG    1        6.021  -2.633   3.623  0.00  0.00    +0.220 A 
ATOM     13  C   LIG    1        6.030  -3.981   3.608  0.00  0.00    +0.030 A 
ATOM     14  C   LIG    1        5.094  -4.690   2.835  0.00  0.00    +0.050 A 
ATOM     15  C   LIG    1        4.175  -4.010   2.100  0.00  0.00    +0.070 A 
ATOM     16  C   LIG    1        4.176  -2.599   2.124  0.00  0.00    +0.230 A 
ATOM     17  N   LIG    1        3.412  -1.702   1.524  0.00  0.00    -0.460 NA
ENDBRANCH   5   9
BRANCH   1  18
ATOM     18  C   LIG    1       -0.707   2.054   1.276  0.00  0.00    +0.280 C 
BRANCH  18  20
ATOM     19  C   LIG    1       -1.274   4.198   2.287  0.00  0.00    +0.510 C 
ATOM     20  N   LIG    1       -0.716   3.519   1.265  0.00  0.00    -0.730 N 
ATOM     21  H   LIG    1       -0.320   4.001   0.521  0.00  0.00    +0.400 HD
ATOM     22  O   LIG    1       -1.769   3.595   3.216  0.00  0.00    -0.520 OA
BRANCH  19  23
ATOM     23  C   LIG    1       -1.284   5.705   2.275  0.00  0.00    +0.190 C 
BRANCH  23  25
ATOM     24  C   LIG    1       -1.162   5.865   4.688  0.00  0.00    +0.200 C 
ATOM     25  N   LIG    1       -1.944   6.200   3.490  0.00  0.00    -0.530 NA
ATOM     26  C   LIG    1       -2.185   7.646   3.406  0.00  0.00    +0.190 C 
ENDBRANCH  23  25
ENDBRANCH  19  23
ENDBRANCH  18  20
ENDBRANCH   1  18
TORSDOF 5
