REMARK  Name = ZINCqH00000h2L9w.0
REMARK                            x       y       z     vdW  Elec       q    Type
REMARK                         _______ _______ _______ _____ _____    ______ ____
ROOT
ATOM      1  N   LIG    1        2.455   4.158   0.000  0.00  0.00    -0.710 N 
ATOM      2  H   LIG    1        3.278   3.644  -0.010  0.00  0.00    +0.400 HD
ATOM      3  C   LIG    1        1.265   3.526   0.008  0.00  0.00    +0.570 C 
ATOM      4  O   LIG    1        0.234   4.170   0.021  0.00  0.00    -0.530 OA
ENDROOT
BRANCH   1  12
ATOM      5  C   LIG    1        2.952   7.190  -3.938  0.00  0.00    +0.140 A 
ATOM      6  C   LIG    1        1.669   6.821  -3.561  0.00  0.00    -0.080 A 
ATOM      7  C   LIG    1        1.444   6.306  -2.301  0.00  0.00    +0.090 A 
ATOM      8  C   LIG    1        2.493   6.155  -1.410  0.00  0.00    -0.160 A 
ATOM      9  C   LIG    1        3.773   6.522  -1.783  0.00  0.00    -0.050 A 
ATOM     10  C   LIG    1        4.734   6.261  -0.642  0.00  0.00    +0.080 C 
ATOM     11  C   LIG    1        3.842   6.108   0.609  0.00  0.00    +0.050 C 
ATOM     12  C   LIG    1        2.507   5.622   0.007  0.00  0.00    +0.290 C 
ATOM     13  C   LIG    1        4.003   7.039  -3.046  0.00  0.00    -0.020 A 
BRANCH   5  15
ATOM     14  C   LIG    1        2.049   7.825  -6.043  0.00  0.00    +0.250 C 
ATOM     15  O   LIG    1        3.179   7.698  -5.178  0.00  0.00    -0.320 OA
ENDBRANCH   5  15
ENDBRANCH   1  12
BRANCH   3  16
ATOM     16  C   LIG    1        1.213   2.050   0.002  0.00  0.00    -0.210 A 
ATOM     17  C   LIG    1        2.393   1.297  -0.014  0.00  0.00    +0.370 A 
ATOM     18  N   LIG    1        2.371  -0.018  -0.021  0.00  0.00    -0.460 NA
ATOM     19  C   LIG    1        1.234  -0.695  -0.013  0.00  0.00    +0.230 A 
ATOM     20  O   LIG    1        0.904  -1.998  -0.017  0.00  0.00    +0.090 OA
ATOM     21  N   LIG    1       -0.290  -2.184  -0.006  0.00  0.00    -0.310 NA
ATOM     22  C   LIG    1       -0.987  -1.087   0.006  0.00  0.00    +0.080 A 
ATOM     23  C   LIG    1        0.002  -0.004   0.002  0.00  0.00    -0.220 A 
ATOM     24  C   LIG    1       -0.017   1.382   0.010  0.00  0.00    +0.230 A 
BRANCH  22  25
ATOM     25  C   LIG    1       -2.488  -0.956   0.022  0.00  0.00    +0.080 C 
ATOM     26  C   LIG    1       -3.046  -1.636   1.273  0.00  0.00    +0.040 C 
ATOM     27  C   LIG    1       -3.071  -1.624  -1.225  0.00  0.00    +0.040 C 
ENDBRANCH  22  25
ENDBRANCH   3  16
TORSDOF 4
