REMARK  Name = ZINCkj000005jZ2v.0
REMARK                            x       y       z     vdW  Elec       q    Type
REMARK                         _______ _______ _______ _____ _____    ______ ____
ROOT
ATOM      1  S   LIG    1        0.752  -4.473  -0.308  0.00  0.00    +2.710 S 
ATOM      2  O   LIG    1       -0.155  -5.097   0.590  0.00  0.00    -0.930 OA
ATOM      3  O   LIG    1        2.160  -4.650  -0.239  0.00  0.00    -0.930 OA
ENDROOT
BRANCH   1   9
ATOM      4  C   LIG    1        1.853   2.040   1.426  0.00  0.00    +0.050 C 
ATOM      5  C   LIG    1        1.335   1.849  -0.001  0.00  0.00    +0.200 C 
ATOM      6  C   LIG    1        2.106   0.716  -0.717  0.00  0.00    +0.100 C 
ATOM      7  C   LIG    1        1.228  -0.488  -0.435  0.00  0.00    -0.180 A 
ATOM      8  C   LIG    1        1.457  -1.843  -0.533  0.00  0.00    +0.180 A 
ATOM      9  C   LIG    1        0.462  -2.740  -0.185  0.00  0.00    -0.710 A 
ATOM     10  C   LIG    1       -0.760  -2.271   0.260  0.00  0.00    +0.180 A 
ATOM     11  C   LIG    1       -0.993  -0.913   0.355  0.00  0.00    -0.080 A 
ATOM     12 CL   LIG    1       -2.532  -0.337   0.916  0.00  0.00    -0.040 Cl
ATOM     13  C   LIG    1        0.002  -0.004   0.002  0.00  0.00    +0.180 A 
ATOM     14  O   LIG    1       -0.016   1.357   0.009  0.00  0.00    -0.280 OA
ENDBRANCH   1   9
BRANCH   1  15
ATOM     15  N   LIG    1        0.297  -4.939  -1.831  0.00  0.00    -1.010 NA
ATOM     16  C   LIG    1        1.171  -4.967  -3.018  0.00  0.00    +0.310 C 
ATOM     17  C   LIG    1        0.206  -4.853  -4.224  0.00  0.00    +0.070 C 
ATOM     18  C   LIG    1       -1.003  -5.694  -3.736  0.00  0.00    +0.170 C 
ATOM     19  C   LIG    1       -1.043  -5.399  -2.222  0.00  0.00    +0.300 C 
BRANCH  18  20
ATOM     20  N   LIG    1       -2.242  -5.249  -4.388  0.00  0.00    -0.630 N 
ATOM     21  H   LIG    1       -2.397  -4.273  -4.187  0.00  0.00    +0.440 HD
ATOM     22  H   LIG    1       -3.019  -5.792  -4.040  0.00  0.00    +0.440 HD
ATOM     23  H   LIG    1       -2.162  -5.378  -5.386  0.00  0.00    +0.440 HD
ENDBRANCH  18  20
ENDBRANCH   1  15
TORSDOF 3
