REMARK  Name = ZINCrH000004quIs.1
REMARK                            x       y       z     vdW  Elec       q    Type
REMARK                         _______ _______ _______ _____ _____    ______ ____
ROOT
ATOM      1  C   LIG    1       -4.920   1.016  -1.130  0.00  0.00    +0.220 C 
ENDROOT
BRANCH   1   2
ATOM      2  N   LIG    1       -6.345   0.870  -0.801  0.00  0.00    -0.520 NA
ATOM      3  C   LIG    1       -6.566  -0.280   0.087  0.00  0.00    +0.190 C 
ATOM      4  C   LIG    1       -8.046  -0.349   0.468  0.00  0.00    +0.180 C 
ATOM      5  N   LIG    1       -8.859  -0.465  -0.751  0.00  0.00    -0.540 NA
ATOM      6  C   LIG    1       -8.638   0.685  -1.638  0.00  0.00    +0.180 C 
ATOM      7  C   LIG    1       -7.157   0.755  -2.020  0.00  0.00    +0.190 C 
BRANCH   5   8
ATOM      8  C   LIG    1      -10.283  -0.610  -0.422  0.00  0.00    +0.180 C 
BRANCH   8   9
ATOM      9  C   LIG    1      -10.509  -1.945   0.290  0.00  0.00    +0.070 C 
BRANCH   9  10
ATOM     10  C   LIG    1      -11.970  -2.094   0.627  0.00  0.00    -0.080 A 
ATOM     11  C   LIG    1      -12.450  -1.637   1.840  0.00  0.00    +0.000 A 
ATOM     12  C   LIG    1      -13.791  -1.769   2.147  0.00  0.00    +0.000 A 
ATOM     13  C   LIG    1      -14.650  -2.369   1.246  0.00  0.00    +0.000 A 
ATOM     14  C   LIG    1      -14.170  -2.831   0.035  0.00  0.00    +0.000 A 
ATOM     15  C   LIG    1      -12.830  -2.693  -0.275  0.00  0.00    +0.000 A 
ENDBRANCH   9  10
ENDBRANCH   8   9
ENDBRANCH   5   8
ENDBRANCH   1   2
BRANCH   1  18
ATOM     16  N   LIG    1       -2.818   1.560   0.054  0.00  0.00    -0.690 N 
ATOM     17  H   LIG    1       -2.363   1.533  -0.802  0.00  0.00    +0.410 HD
ATOM     18  C   LIG    1       -4.152   1.375   0.116  0.00  0.00    +0.520 C 
ATOM     19  O   LIG    1       -4.733   1.498   1.173  0.00  0.00    -0.500 OA
BRANCH  16  24
ATOM     20  C   LIG    1        0.127   2.494   4.814  0.00  0.00    +0.100 C 
ATOM     21  C   LIG    1       -0.652   2.245   3.548  0.00  0.00    -0.060 A 
ATOM     22  C   LIG    1       -1.112   3.313   2.801  0.00  0.00    +0.020 A 
ATOM     23  C   LIG    1       -1.827   3.089   1.640  0.00  0.00    -0.060 A 
ATOM     24  C   LIG    1       -2.089   1.790   1.227  0.00  0.00    +0.140 A 
ATOM     25  C   LIG    1       -1.619   0.718   1.977  0.00  0.00    -0.020 A 
ATOM     26 CL   LIG    1       -1.937  -0.909   1.461  0.00  0.00    -0.060 Cl
ATOM     27  C   LIG    1       -2.328   4.254   0.826  0.00  0.00    +0.110 C 
ATOM     28  C   LIG    1       -0.906   0.949   3.137  0.00  0.00    +0.030 A 
ENDBRANCH  16  24
ENDBRANCH   1  18
TORSDOF 6
