REMARK  Name = ZINCrH000004qVDc.0
REMARK                            x       y       z     vdW  Elec       q    Type
REMARK                         _______ _______ _______ _____ _____    ______ ____
ROOT
ATOM      1  C   LIG    1        4.872   6.252   2.008  0.00  0.00    +0.500 C 
ATOM      2  N   LIG    1        5.846   5.581   1.361  0.00  0.00    -0.610 N 
ATOM      3  C   LIG    1        7.111   5.292   2.040  0.00  0.00    +0.280 C 
ATOM      4  O   LIG    1        3.824   6.492   1.446  0.00  0.00    -0.510 OA
ENDROOT
BRANCH   1   5
ATOM      5  C   LIG    1        5.085   6.705   3.430  0.00  0.00    +0.320 C 
BRANCH   5  15
ATOM      6  C   LIG    1        4.625   9.734   3.163  0.00  0.00    +0.140 C 
ATOM      7  C   LIG    1        3.671   8.752   3.792  0.00  0.00    +0.090 A 
ATOM      8  C   LIG    1        2.479   9.068   4.322  0.00  0.00    -0.050 A 
ATOM      9  C   LIG    1        1.889   7.824   4.823  0.00  0.00    -0.100 A 
ATOM     10  C   LIG    1        0.692   7.508   5.468  0.00  0.00    +0.050 A 
ATOM     11  C   LIG    1        0.431   6.213   5.817  0.00  0.00    -0.030 A 
ATOM     12  C   LIG    1        1.345   5.208   5.534  0.00  0.00    +0.020 A 
ATOM     13  C   LIG    1        2.533   5.497   4.897  0.00  0.00    -0.020 A 
ATOM     14  C   LIG    1        2.820   6.809   4.534  0.00  0.00    +0.110 A 
ATOM     15  N   LIG    1        3.889   7.406   3.904  0.00  0.00    -0.470 N 
ENDBRANCH   5  15
ENDBRANCH   1   5
BRANCH   2  16
ATOM     16  C   LIG    1        5.638   5.141  -0.020  0.00  0.00    +0.370 C 
BRANCH  16  17
ATOM     17  C   LIG    1        5.034   3.761  -0.023  0.00  0.00    -0.260 A 
ATOM     18  C   LIG    1        3.712   3.471  -0.014  0.00  0.00    +0.270 A 
ATOM     19  N   LIG    1        3.586   2.125  -0.019  0.00  0.00    -0.320 N 
ATOM     20  N   LIG    1        4.873   1.572  -0.027  0.00  0.00    -0.290 NA
ATOM     21  C   LIG    1        5.739   2.553  -0.035  0.00  0.00    +0.260 A 
BRANCH  19  22
ATOM     22  C   LIG    1        2.381   1.409  -0.013  0.00  0.00    +0.160 A 
ATOM     23  C   LIG    1        1.169   2.087   0.002  0.00  0.00    -0.010 A 
ATOM     24  C   LIG    1       -0.017   1.379   0.010  0.00  0.00    +0.040 A 
ATOM     25  C   LIG    1        0.002  -0.004   0.002  0.00  0.00    +0.000 A 
ATOM     26  C   LIG    1        1.207  -0.682  -0.013  0.00  0.00    +0.030 A 
ATOM     27  C   LIG    1        2.396   0.021  -0.020  0.00  0.00    +0.020 A 
ENDBRANCH  19  22
ENDBRANCH  16  17
ENDBRANCH   2  16
TORSDOF 5
