REMARK  Name = ZINCrD000000C81p.0
REMARK                            x       y       z     vdW  Elec       q    Type
REMARK                         _______ _______ _______ _____ _____    ______ ____
ROOT
ATOM      1  C   LIG    1       -0.346   6.051   3.756  0.00  0.00    +0.120 A 
ATOM      2  C   LIG    1        0.966   5.605   3.832  0.00  0.00    +0.080 A 
ATOM      3  C   LIG    1        1.250   4.264   3.658  0.00  0.00    +0.020 A 
ATOM      4  C   LIG    1        0.227   3.366   3.413  0.00  0.00    +0.160 A 
ATOM      5  C   LIG    1       -1.081   3.809   3.330  0.00  0.00    -0.650 A 
ATOM      6  C   LIG    1       -1.371   5.148   3.503  0.00  0.00    +0.090 A 
ENDROOT
BRANCH   1   9
ATOM      7  O   LIG    1        1.240   8.014   2.911  0.00  0.00    -0.480 OA
ATOM      8  C   LIG    1        0.242   8.344   3.521  0.00  0.00    +0.560 C 
ATOM      9  N   LIG    1       -0.636   7.408   3.932  0.00  0.00    -0.670 N 
ATOM     10  H   LIG    1       -1.470   7.675   4.351  0.00  0.00    +0.410 HD
BRANCH   8  11
ATOM     11  C   LIG    1       -0.009   9.770   3.811  0.00  0.00    -0.120 A 
ATOM     12  C   LIG    1       -1.156  10.151   4.512  0.00  0.00    +0.080 A 
ATOM     13  C   LIG    1       -1.385  11.485   4.780  0.00  0.00    +0.070 A 
ATOM     14  C   LIG    1       -0.478  12.447   4.355  0.00  0.00    +0.120 A 
ATOM     15  C   LIG    1        0.661  12.074   3.660  0.00  0.00    +0.040 A 
ATOM     16  F   LIG    1       -0.707  13.752   4.621  0.00  0.00    -0.110 F 
ATOM     17  F   LIG    1       -2.493  11.856   5.458  0.00  0.00    -0.110 F 
ATOM     18  C   LIG    1        0.903  10.742   3.391  0.00  0.00    +0.030 A 
ATOM     19 CL   LIG    1        2.334  10.276   2.526  0.00  0.00    +0.000 Cl
ENDBRANCH   8  11
ENDBRANCH   1   9
BRANCH   5  20
ATOM     20  S   LIG    1       -2.379   2.662   3.010  0.00  0.00    +2.690 S 
ATOM     21  O   LIG    1       -1.901   1.389   3.421  0.00  0.00    -0.920 OA
ATOM     22  O   LIG    1       -3.568   3.248   3.522  0.00  0.00    -0.950 OA
BRANCH  20  23
ATOM     23  N   LIG    1       -2.568   2.581   1.366  0.00  0.00    -1.020 N 
ATOM     24  H   LIG    1       -3.393   2.887   0.957  0.00  0.00    +0.440 HD
BRANCH  23  25
ATOM     25  C   LIG    1       -1.560   2.082   0.585  0.00  0.00    +0.370 C 
ATOM     26  N   LIG    1       -0.431   1.653   1.036  0.00  0.00    -0.550 NA
ATOM     27  C   LIG    1        0.450   1.177  -0.036  0.00  0.00    +0.220 C 
ATOM     28  C   LIG    1       -0.148   1.755  -1.340  0.00  0.00    +0.020 C 
ATOM     29  C   LIG    1       -1.623   1.962  -0.922  0.00  0.00    +0.060 C 
ENDBRANCH  23  25
ENDBRANCH  20  23
ENDBRANCH   5  20
TORSDOF 5
