REMARK  Name = ZINCrH000004n57n.0
REMARK                            x       y       z     vdW  Elec       q    Type
REMARK                         _______ _______ _______ _____ _____    ______ ____
ROOT
ATOM      1  N   LIG    1        1.143   1.901  -0.016  0.00  0.00    -0.720 N 
ATOM      2  H   LIG    1        1.130   2.871  -0.023  0.00  0.00    +0.390 HD
ATOM      3  C   LIG    1       -0.014   1.211   0.009  0.00  0.00    +0.570 C 
ATOM      4  O   LIG    1        0.002  -0.004   0.018  0.00  0.00    -0.520 OA
ENDROOT
BRANCH   3   5
ATOM      5  C   LIG    1       -1.305   1.933   0.019  0.00  0.00    -0.070 A 
ATOM      6  C   LIG    1       -1.353   3.317   0.130  0.00  0.00    +0.010 A 
ATOM      7  C   LIG    1       -2.586   3.964   0.136  0.00  0.00    +0.150 A 
ATOM      8  N   LIG    1       -3.714   3.305   0.039  0.00  0.00    -0.450 NA
ATOM      9  C   LIG    1       -3.745   1.974  -0.071  0.00  0.00    +0.130 A 
ATOM     10  C   LIG    1       -4.967   1.285  -0.174  0.00  0.00    +0.050 A 
ATOM     11  C   LIG    1       -4.969  -0.071  -0.285  0.00  0.00    +0.040 A 
ATOM     12  C   LIG    1       -3.778  -0.793  -0.298  0.00  0.00    -0.080 A 
ATOM     13  C   LIG    1       -2.576  -0.159  -0.200  0.00  0.00    +0.060 A 
ATOM     14  C   LIG    1       -3.819  -2.295  -0.422  0.00  0.00    +0.090 C 
ATOM     15  C   LIG    1       -2.624   5.466   0.258  0.00  0.00    +0.130 C 
ATOM     16  C   LIG    1       -2.536   1.236  -0.091  0.00  0.00    -0.060 A 
ENDBRANCH   3   5
BRANCH   1  17
ATOM     17  C   LIG    1        2.422   1.186  -0.032  0.00  0.00    +0.210 C 
ATOM     18  C   LIG    1        2.781   0.816  -1.472  0.00  0.00    +0.040 C 
BRANCH  17  19
ATOM     19  C   LIG    1        3.515   2.082   0.553  0.00  0.00    +0.280 C 
BRANCH  19  23
ATOM     20  C   LIG    1        2.511   3.114   4.576  0.00  0.00    +0.130 A 
ATOM     21  C   LIG    1        3.426   2.102   4.326  0.00  0.00    -0.020 A 
ATOM     22  C   LIG    1        3.749   1.770   3.025  0.00  0.00    +0.070 A 
ATOM     23  C   LIG    1        3.161   2.446   1.972  0.00  0.00    -0.160 A 
ATOM     24  C   LIG    1        2.253   3.459   2.218  0.00  0.00    +0.040 A 
ATOM     25  C   LIG    1        1.922   3.791   3.518  0.00  0.00    -0.070 A 
BRANCH  20  27
ATOM     26  C   LIG    1        1.242   4.495   6.038  0.00  0.00    +0.250 C 
ATOM     27  O   LIG    1        2.191   3.442   5.856  0.00  0.00    -0.320 OA
ENDBRANCH  20  27
ENDBRANCH  19  23
BRANCH  19  28
ATOM     28  O   LIG    1        3.625   3.272  -0.231  0.00  0.00    -0.540 OA
ATOM     29  H   LIG    1        2.814   3.797  -0.265  0.00  0.00    +0.370 HD
ENDBRANCH  19  28
ENDBRANCH  17  19
ENDBRANCH   1  17
TORSDOF 6
