REMARK  Name = ZINCqH00000086K9.0
REMARK                            x       y       z     vdW  Elec       q    Type
REMARK                         _______ _______ _______ _____ _____    ______ ____
ROOT
ATOM      1  C   LIG    1        2.482   4.535  -0.959  0.00  0.00    +0.590 C 
ATOM      2  N   LIG    1        2.426   5.861  -0.726  0.00  0.00    -0.600 N 
ATOM      3  C   LIG    1        1.218   6.701  -0.826  0.00  0.00    +0.280 C 
ATOM      4  C   LIG    1        1.751   8.133  -1.084  0.00  0.00    +0.030 C 
ATOM      5  C   LIG    1        3.028   8.153  -0.202  0.00  0.00    +0.040 C 
ATOM      6  C   LIG    1        3.558   6.709  -0.323  0.00  0.00    +0.210 C 
ATOM      7  O   LIG    1        3.552   3.960  -0.945  0.00  0.00    -0.520 OA
ENDROOT
BRANCH   1  12
ATOM      8  C   LIG    1       -1.060   3.774  -1.486  0.00  0.00    +0.120 A 
ATOM      9  C   LIG    1       -1.064   2.402  -1.740  0.00  0.00    +0.030 A 
ATOM     10  C   LIG    1        0.132   1.709  -1.727  0.00  0.00    +0.090 A 
ATOM     11  C   LIG    1        1.303   2.409  -1.471  0.00  0.00    +0.040 A 
ATOM     12  C   LIG    1        1.238   3.778  -1.232  0.00  0.00    +0.090 A 
ATOM     13  N   LIG    1        0.071   4.413  -1.246  0.00  0.00    -0.460 NA
BRANCH   8  15
ATOM     14  C   LIG    1       -2.058   6.364  -1.129  0.00  0.00    +0.150 C 
ATOM     15  S   LIG    1       -2.580   4.665  -1.493  0.00  0.00    -0.060 S 
ENDBRANCH   8  15
ENDBRANCH   1  12
BRANCH   6  16
ATOM     16  C   LIG    1        4.107   6.238   1.025  0.00  0.00    +0.300 C 
BRANCH  16  17
ATOM     17  N   LIG    1        5.321   6.992   1.348  0.00  0.00    -0.480 N 
ATOM     18  C   LIG    1        6.598   6.715   0.904  0.00  0.00    +0.050 A 
ATOM     19  C   LIG    1        7.146   5.739   0.085  0.00  0.00    +0.010 A 
ATOM     20  C   LIG    1        8.502   5.742  -0.169  0.00  0.00    +0.030 A 
ATOM     21  C   LIG    1        9.319   6.713   0.390  0.00  0.00    +0.000 A 
ATOM     22  C   LIG    1        8.796   7.687   1.193  0.00  0.00    +0.060 A 
ATOM     23  C   LIG    1        7.426   7.702   1.467  0.00  0.00    +0.050 A 
ATOM     24  N   LIG    1        6.630   8.507   2.216  0.00  0.00    -0.490 NA
ATOM     25  C   LIG    1        5.399   8.092   2.146  0.00  0.00    +0.280 A 
ATOM     26  C   LIG    1        4.229   8.735   2.846  0.00  0.00    +0.180 C 
ENDBRANCH  16  17
ENDBRANCH   6  16
TORSDOF 4
