REMARK  Name = ZINCqH0000036cnH.0
REMARK                            x       y       z     vdW  Elec       q    Type
REMARK                         _______ _______ _______ _____ _____    ______ ____
ROOT
ATOM      1  N   LIG    1        4.024  -0.149  -2.665  0.00  0.00    -0.680 N 
ATOM      2  H   LIG    1        4.457   0.288  -1.915  0.00  0.00    +0.410 HD
ATOM      3  C   LIG    1        2.727  -0.506  -2.580  0.00  0.00    +0.700 C 
ATOM      4  N   LIG    1        2.007  -0.175  -1.490  0.00  0.00    -0.740 N 
ATOM      5  H   LIG    1        2.422   0.320  -0.766  0.00  0.00    +0.400 HD
ATOM      6  O   LIG    1        2.207  -1.127  -3.487  0.00  0.00    -0.570 OA
ENDROOT
BRANCH   1  12
ATOM      7  C   LIG    1        6.686  -2.208  -7.994  0.00  0.00    +0.350 A 
ATOM      8  N   LIG    1        6.899  -1.128  -7.275  0.00  0.00    -0.540 NA
ATOM      9  C   LIG    1        6.204  -0.888  -6.157  0.00  0.00    +0.160 A 
ATOM     10  C   LIG    1        6.441   0.270  -5.396  0.00  0.00    +0.050 A 
ATOM     11  C   LIG    1        5.723   0.497  -4.263  0.00  0.00    +0.030 A 
ATOM     12  C   LIG    1        4.747  -0.408  -3.836  0.00  0.00    +0.140 A 
ATOM     13  C   LIG    1        4.493  -1.556  -4.555  0.00  0.00    +0.070 A 
ATOM     14  C   LIG    1        5.216  -1.808  -5.730  0.00  0.00    -0.120 A 
ATOM     15  C   LIG    1        4.982  -2.968  -6.497  0.00  0.00    +0.130 A 
ATOM     16  C   LIG    1        5.723  -3.156  -7.625  0.00  0.00    -0.020 A 
BRANCH   7  18
ATOM     17  C   LIG    1        8.384  -1.413  -9.451  0.00  0.00    +0.260 C 
ATOM     18  O   LIG    1        7.415  -2.409  -9.119  0.00  0.00    -0.310 OA
ENDBRANCH   7  18
ENDBRANCH   1  12
BRANCH   4  19
ATOM     19  C   LIG    1        0.598  -0.563  -1.397  0.00  0.00    +0.290 C 
BRANCH  19  20
ATOM     20  C   LIG    1        0.018  -0.069  -0.070  0.00  0.00    +0.070 C 
ATOM     21  C   LIG    1        0.019   1.461  -0.052  0.00  0.00    +0.030 C 
BRANCH  20  22
ATOM     22  C   LIG    1       -1.394  -0.573   0.080  0.00  0.00    -0.200 A 
ATOM     23  C   LIG    1       -1.919  -1.291   1.101  0.00  0.00    -0.020 A 
ATOM     24  O   LIG    1       -3.207  -1.503   0.793  0.00  0.00    +0.100 OA
ATOM     25  N   LIG    1       -3.496  -1.010  -0.273  0.00  0.00    -0.360 NA
ATOM     26  C   LIG    1       -1.199  -1.757   2.340  0.00  0.00    +0.190 C 
ATOM     27  C   LIG    1       -2.476  -0.410  -0.816  0.00  0.00    +0.030 A 
ATOM     28  C   LIG    1       -2.453   0.314  -2.137  0.00  0.00    +0.160 C 
ENDBRANCH  20  22
ENDBRANCH  19  20
ENDBRANCH   4  19
TORSDOF 5
