REMARK  Name = ZINCfl000000kv4i.1
REMARK                            x       y       z     vdW  Elec       q    Type
REMARK                         _______ _______ _______ _____ _____    ______ ____
ROOT
ATOM      1  C   LIG    1       -1.561   5.571  -2.288  0.00  0.00    +0.490 C 
ATOM      2  N   LIG    1       -1.371   4.449  -3.010  0.00  0.00    -0.680 NA
ATOM      3  O   LIG    1       -0.915   6.567  -2.534  0.00  0.00    -0.520 OA
ENDROOT
BRANCH   2   4
ATOM      4  C   LIG    1       -0.435   4.433  -4.037  0.00  0.00    +0.360 A 
ATOM      5  N   LIG    1        0.301   5.441  -4.386  0.00  0.00    -0.560 NA
ATOM      6  C   LIG    1        1.137   5.252  -5.390  0.00  0.00    +0.300 A 
ATOM      7  C   LIG    1        1.105   4.025  -5.915  0.00  0.00    -0.360 A 
ATOM      8 BR   LIG    1        2.160   3.405  -7.356  0.00  0.00    -0.050 Br
ATOM      9  S   LIG    1       -0.093   3.084  -5.029  0.00  0.00    +0.030 S 
ENDBRANCH   2   4
BRANCH   1  12
ATOM     10  C   LIG    1       -2.146   6.191   0.165  0.00  0.00    -0.100 C 
ATOM     11  C   LIG    1       -3.123   6.948  -0.737  0.00  0.00    +0.020 C 
ATOM     12  C   LIG    1       -2.576   5.588  -1.174  0.00  0.00    -0.040 C 
BRANCH  10  14
ATOM     13  O   LIG    1       -0.492   7.865  -0.079  0.00  0.00    -0.680 OA
ATOM     14  C   LIG    1       -0.740   6.723   0.269  0.00  0.00    +0.530 C 
ATOM     15  O   LIG    1        0.151   6.011   0.701  0.00  0.00    -0.710 OA
ENDBRANCH  10  14
ENDBRANCH   1  12
TORSDOF 3
