REMARK  Name = ZINCpk00000y6wHm.1
REMARK                            x       y       z     vdW  Elec       q    Type
REMARK                         _______ _______ _______ _____ _____    ______ ____
ROOT
ATOM      1  C   LIG    1       -1.806  -1.715   0.580  0.00  0.00    +0.170 C 
ATOM      2  C   LIG    1       -0.696  -1.738   1.656  0.00  0.00    +0.060 C 
ATOM      3  C   LIG    1        0.259  -0.592   1.274  0.00  0.00    +0.250 C 
ATOM      4  N   LIG    1       -0.271   0.018   0.034  0.00  0.00    -0.480 NA
ATOM      5  C   LIG    1       -1.728  -0.268   0.033  0.00  0.00    +0.180 C 
ENDROOT
BRANCH   3   6
ATOM      6  C   LIG    1        1.642  -1.137   1.028  0.00  0.00    +0.230 A 
ATOM      7  N   LIG    1        2.005  -1.847  -0.008  0.00  0.00    -0.280 NA
ATOM      8  N   LIG    1        3.369  -2.140   0.160  0.00  0.00    -0.490 N 
ATOM      9  H   LIG    1        3.932  -2.652  -0.442  0.00  0.00    +0.440 HD
ATOM     10  C   LIG    1        3.737  -1.577   1.323  0.00  0.00    +0.280 A 
ATOM     11  C   LIG    1        5.114  -1.626   1.934  0.00  0.00    +0.190 C 
ATOM     12  N   LIG    1        2.691  -0.978   1.833  0.00  0.00    -0.540 NA
ENDBRANCH   3   6
BRANCH   1  14
ATOM     13  C   LIG    1       -4.044  -2.511   0.260  0.00  0.00    +0.200 C 
ATOM     14  O   LIG    1       -3.085  -1.965   1.167  0.00  0.00    -0.380 OA
ENDBRANCH   1  14
BRANCH   4  15
ATOM     15  C   LIG    1       -0.018   1.465   0.010  0.00  0.00    +0.210 C 
BRANCH  15  16
ATOM     16  C   LIG    1       -0.491   2.035  -1.302  0.00  0.00    +0.520 C 
ATOM     17  N   LIG    1       -0.469   3.368  -1.504  0.00  0.00    -0.730 N 
ATOM     18  H   LIG    1       -0.148   3.959  -0.806  0.00  0.00    +0.400 HD
ATOM     19  O   LIG    1       -0.892   1.296  -2.176  0.00  0.00    -0.520 OA
BRANCH  17  20
ATOM     20  C   LIG    1       -0.929   3.922  -2.780  0.00  0.00    +0.320 C 
BRANCH  20  21
ATOM     21  C   LIG    1       -0.802   5.424  -2.750  0.00  0.00    -0.110 A 
ATOM     22  C   LIG    1       -1.915   6.207  -2.504  0.00  0.00    +0.020 A 
ATOM     23  C   LIG    1       -1.797   7.584  -2.471  0.00  0.00    -0.010 A 
ATOM     24  C   LIG    1       -0.570   8.178  -2.694  0.00  0.00    +0.010 A 
ATOM     25  C   LIG    1        0.542   7.396  -2.945  0.00  0.00    +0.000 A 
ATOM     26  C   LIG    1        0.426   6.019  -2.973  0.00  0.00    -0.070 A 
ATOM     27  C   LIG    1        1.637   5.165  -3.247  0.00  0.00    +0.090 C 
ENDBRANCH  20  21
ENDBRANCH  17  20
ENDBRANCH  15  16
ENDBRANCH   4  15
TORSDOF 6
