REMARK  Name = ZINCpk00000y6wHm.0
REMARK                            x       y       z     vdW  Elec       q    Type
REMARK                         _______ _______ _______ _____ _____    ______ ____
ROOT
ATOM      1  C   LIG    1        7.175  -2.450   3.336  0.00  0.00    +0.170 C 
ATOM      2  C   LIG    1        7.779  -1.391   4.280  0.00  0.00    +0.070 C 
ATOM      3  C   LIG    1        6.789  -0.207   4.242  0.00  0.00    +0.230 C 
ATOM      4  N   LIG    1        6.080  -0.354   2.944  0.00  0.00    -0.460 NA
ATOM      5  C   LIG    1        5.869  -1.819   2.807  0.00  0.00    +0.180 C 
ENDROOT
BRANCH   3   6
ATOM      6  C   LIG    1        7.532   1.103   4.289  0.00  0.00    +0.180 A 
ATOM      7  N   LIG    1        7.962   1.786   3.263  0.00  0.00    -0.250 NA
ATOM      8  N   LIG    1        8.552   2.853   3.670  0.00  0.00    -0.290 NA
ATOM      9  C   LIG    1        8.526   2.900   4.974  0.00  0.00    +0.180 A 
ATOM     10  C   LIG    1        9.108   3.986   5.841  0.00  0.00    +0.200 C 
ATOM     11  N   LIG    1        7.873   1.793   5.404  0.00  0.00    -0.580 N 
ATOM     12  H   LIG    1        7.690   1.544   6.323  0.00  0.00    +0.430 HD
ENDBRANCH   3   6
BRANCH   1  14
ATOM     13  C   LIG    1        6.984  -4.839   3.267  0.00  0.00    +0.210 C 
ATOM     14  O   LIG    1        6.891  -3.652   4.056  0.00  0.00    -0.380 OA
ENDBRANCH   1  14
BRANCH   4  15
ATOM     15  C   LIG    1        4.798   0.363   2.960  0.00  0.00    +0.200 C 
BRANCH  15  16
ATOM     16  C   LIG    1        4.226   0.400   1.567  0.00  0.00    +0.520 C 
ATOM     17  N   LIG    1        3.046   1.011   1.339  0.00  0.00    -0.730 N 
ATOM     18  H   LIG    1        2.566   1.427   2.072  0.00  0.00    +0.400 HD
ATOM     19  O   LIG    1        4.827  -0.119   0.650  0.00  0.00    -0.510 OA
BRANCH  17  20
ATOM     20  C   LIG    1        2.490   1.047  -0.016  0.00  0.00    +0.320 C 
BRANCH  20  21
ATOM     21  C   LIG    1        1.175   1.783   0.000  0.00  0.00    -0.110 A 
ATOM     22  C   LIG    1       -0.013   1.076   0.008  0.00  0.00    +0.020 A 
ATOM     23  C   LIG    1       -1.219   1.751   0.017  0.00  0.00    -0.010 A 
ATOM     24  C   LIG    1       -1.238   3.133   0.030  0.00  0.00    +0.010 A 
ATOM     25  C   LIG    1       -0.050   3.840   0.022  0.00  0.00    +0.000 A 
ATOM     26  C   LIG    1        1.156   3.166   0.008  0.00  0.00    -0.070 A 
ATOM     27  C   LIG    1        2.451   3.937  -0.001  0.00  0.00    +0.090 C 
ENDBRANCH  20  21
ENDBRANCH  17  20
ENDBRANCH  15  16
ENDBRANCH   4  15
TORSDOF 6
