REMARK  Name = ZINCrg000000p3mn.0
REMARK                            x       y       z     vdW  Elec       q    Type
REMARK                         _______ _______ _______ _____ _____    ______ ____
ROOT
ATOM      1  C   LIG    1       -1.722   4.171   0.740  0.00  0.00    +0.310 A 
ATOM      2  C   LIG    1       -1.368   5.465   0.958  0.00  0.00    -0.080 A 
ATOM      3  C   LIG    1       -0.143   5.466   1.650  0.00  0.00    +0.130 A 
ATOM      4  N   LIG    1        0.219   4.216   1.844  0.00  0.00    -0.270 NA
ATOM      5  N   LIG    1       -0.753   3.383   1.277  0.00  0.00    -0.380 N 
ENDROOT
BRANCH   3   6
ATOM      6  C   LIG    1        0.607   6.669   2.091  0.00  0.00    -0.010 A 
ATOM      7  C   LIG    1        0.109   7.941   1.820  0.00  0.00    +0.060 A 
ATOM      8  C   LIG    1        0.808   9.056   2.236  0.00  0.00    +0.030 A 
ATOM      9  C   LIG    1        2.007   8.912   2.912  0.00  0.00    -0.030 A 
ATOM     10  C   LIG    1        2.509   7.650   3.179  0.00  0.00    +0.030 A 
ATOM     11 CL   LIG    1        2.885  10.318   3.426  0.00  0.00    -0.070 Cl
ATOM     12  C   LIG    1        1.815   6.529   2.771  0.00  0.00    +0.060 A 
ENDBRANCH   3   6
BRANCH   1  14
ATOM     13  C   LIG    1       -3.753   4.626  -0.402  0.00  0.00    +0.500 C 
ATOM     14  N   LIG    1       -2.871   3.731   0.084  0.00  0.00    -0.650 N 
ATOM     15  H   LIG    1       -3.035   2.781  -0.022  0.00  0.00    +0.410 HD
ATOM     16  O   LIG    1       -3.548   5.814  -0.269  0.00  0.00    -0.490 OA
BRANCH  13  17
ATOM     17  C   LIG    1       -4.995   4.151  -1.112  0.00  0.00    +0.400 C 
BRANCH  17  22
ATOM     18  C   LIG    1       -8.358   7.807  -0.983  0.00  0.00    +0.350 C 
ATOM     19  N   LIG    1       -7.287   6.955  -1.506  0.00  0.00    -0.580 N 
ATOM     20  C   LIG    1       -6.723   7.109  -2.720  0.00  0.00    +0.530 C 
ATOM     21  C   LIG    1       -5.678   6.017  -2.828  0.00  0.00    +0.320 C 
ATOM     22  N   LIG    1       -5.785   5.307  -1.542  0.00  0.00    -0.610 N 
ATOM     23  O   LIG    1       -6.995   7.947  -3.553  0.00  0.00    -0.460 OA
ATOM     24  C   LIG    1       -6.753   5.925  -0.841  0.00  0.00    +0.710 C 
ATOM     25  O   LIG    1       -7.102   5.586   0.273  0.00  0.00    -0.530 OA
ENDBRANCH  17  22
ENDBRANCH  13  17
ENDBRANCH   1  14
BRANCH   5  26
ATOM     26  C   LIG    1       -0.733   1.918   1.269  0.00  0.00    +0.340 C 
BRANCH  26  27
ATOM     27  C   LIG    1       -0.017   1.425   0.010  0.00  0.00    +0.170 C 
BRANCH  27  28
ATOM     28  O   LIG    1        0.002  -0.004   0.002  0.00  0.00    -0.570 OA
ATOM     29  H   LIG    1        0.442  -0.387  -0.769  0.00  0.00    +0.390 HD
ENDBRANCH  27  28
ENDBRANCH  26  27
ENDBRANCH   5  26
TORSDOF 7
