REMARK  Name = ZINCrg00000SjSp3.0
REMARK                            x       y       z     vdW  Elec       q    Type
REMARK                         _______ _______ _______ _____ _____    ______ ____
ROOT
ATOM      1  N   LIG    1        3.125   0.691  -1.606  0.00  0.00    -0.960 NA
ENDROOT
BRANCH   1   2
ATOM      2  S   LIG    1        2.712   0.922  -0.019  0.00  0.00    +2.700 S 
ATOM      3  O   LIG    1        2.457  -0.367   0.521  0.00  0.00    -0.950 OA
ATOM      4  O   LIG    1        3.679   1.813   0.521  0.00  0.00    -0.940 OA
BRANCH   2   5
ATOM      5  C   LIG    1        1.175   1.783   0.000  0.00  0.00    -0.680 A 
ATOM      6  C   LIG    1       -0.013   1.076   0.008  0.00  0.00    +0.160 A 
ATOM      7  C   LIG    1       -1.219   1.750   0.017  0.00  0.00    -0.030 A 
ATOM      8  C   LIG    1       -1.237   3.135   0.030  0.00  0.00    +0.160 A 
ATOM      9  C   LIG    1       -0.047   3.842   0.022  0.00  0.00    -0.020 A 
ATOM     10  F   LIG    1       -2.416   3.795   0.045  0.00  0.00    -0.130 F 
ATOM     11  C   LIG    1        1.158   3.165   0.007  0.00  0.00    +0.160 A 
ENDBRANCH   2   5
ENDBRANCH   1   2
BRANCH   1  12
ATOM     12  C   LIG    1        3.928   1.695  -2.308  0.00  0.00    +0.340 C 
BRANCH  12  14
ATOM     13  O   LIG    1        5.716   0.292  -1.674  0.00  0.00    -0.530 OA
ATOM     14  C   LIG    1        5.383   1.308  -2.247  0.00  0.00    +0.510 C 
ATOM     15  N   LIG    1        6.313   2.090  -2.830  0.00  0.00    -0.620 N 
ATOM     16  C   LIG    1        6.048   3.338  -3.560  0.00  0.00    +0.230 C 
ATOM     17  C   LIG    1        7.405   3.869  -4.068  0.00  0.00    +0.030 C 
ATOM     18  C   LIG    1        8.289   2.594  -4.089  0.00  0.00    +0.040 C 
ATOM     19  C   LIG    1        7.764   1.831  -2.847  0.00  0.00    +0.250 C 
ENDBRANCH  12  14
ENDBRANCH   1  12
BRANCH   1  20
ATOM     20  C   LIG    1        2.687  -0.518  -2.308  0.00  0.00    +0.350 C 
BRANCH  20  21
ATOM     21  C   LIG    1        1.411  -0.231  -3.056  0.00  0.00    +0.500 C 
ATOM     22  N   LIG    1        0.820  -1.203  -3.779  0.00  0.00    -0.620 N 
ATOM     23  C   LIG    1        1.313  -2.579  -3.929  0.00  0.00    +0.240 C 
ATOM     24  C   LIG    1        0.330  -3.320  -4.860  0.00  0.00    +0.040 C 
ATOM     25  C   LIG    1       -0.345  -2.161  -5.641  0.00  0.00    +0.040 C 
ATOM     26  C   LIG    1       -0.425  -1.060  -4.555  0.00  0.00    +0.260 C 
ATOM     27  O   LIG    1        0.915   0.875  -3.007  0.00  0.00    -0.520 OA
ENDBRANCH  20  21
ENDBRANCH   1  20
TORSDOF 6
