REMARK  Name = ZINCnE000001Ubfq.1
REMARK                            x       y       z     vdW  Elec       q    Type
REMARK                         _______ _______ _______ _____ _____    ______ ____
ROOT
ATOM      1  C   LIG    1        0.726  -4.455   0.352  0.00  0.00    +0.270 A 
ATOM      2  C   LIG    1       -0.486  -4.499  -0.333  0.00  0.00    -0.090 A 
ATOM      3  C   LIG    1       -1.132  -3.334  -0.683  0.00  0.00    +0.040 A 
ATOM      4  C   LIG    1       -0.575  -2.107  -0.352  0.00  0.00    -0.020 A 
ATOM      5  N   LIG    1       -0.961  -0.793  -0.546  0.00  0.00    -0.590 N 
ATOM      6  H   LIG    1       -1.767  -0.490  -0.992  0.00  0.00    +0.420 HD
ATOM      7  C   LIG    1        0.002  -0.004   0.002  0.00  0.00    +0.180 A 
ATOM      8  N   LIG    1        0.941  -0.740   0.523  0.00  0.00    -0.460 NA
ATOM      9  C   LIG    1        0.647  -2.053   0.340  0.00  0.00    +0.090 A 
ATOM     10  C   LIG    1        1.294  -3.241   0.690  0.00  0.00    -0.030 A 
ENDROOT
BRANCH   7  11
ATOM     11  C   LIG    1       -0.018   1.503   0.010  0.00  0.00    +0.510 C 
ATOM     12  F   LIG    1       -0.695   1.966  -1.123  0.00  0.00    -0.200 F 
ATOM     13  F   LIG    1        1.294   1.987   0.000  0.00  0.00    -0.180 F 
ENDBRANCH   7  11
BRANCH   1  14
ATOM     14  N   LIG    1        1.372  -5.646   0.702  0.00  0.00    -1.080 NA
BRANCH  14  16
ATOM     15  O   LIG    1       -0.502  -7.212   1.059  0.00  0.00    -1.030 OA
ATOM     16  S   LIG    1        0.695  -7.103   0.301  0.00  0.00    +2.600 S 
ATOM     17  O   LIG    1        0.728  -7.184  -1.117  0.00  0.00    -1.030 OA
BRANCH  16  18
ATOM     18  C   LIG    1        1.776  -8.361   0.896  0.00  0.00    -0.590 A 
ATOM     19  C   LIG    1        2.785  -8.845   0.085  0.00  0.00    +0.110 A 
ATOM     20  C   LIG    1        3.637  -9.829   0.552  0.00  0.00    +0.020 A 
ATOM     21  C   LIG    1        3.473 -10.337   1.827  0.00  0.00    +0.020 A 
ATOM     22  C   LIG    1        2.459  -9.857   2.638  0.00  0.00    +0.070 A 
ATOM     23  F   LIG    1        2.299 -10.352   3.885  0.00  0.00    -0.140 F 
ATOM     24  C   LIG    1        1.610  -8.868   2.171  0.00  0.00    +0.090 A 
ENDBRANCH  16  18
ENDBRANCH  14  16
ENDBRANCH   1  14
TORSDOF 4
