REMARK  Name = ZINCpk00000eavuf.0
REMARK                            x       y       z     vdW  Elec       q    Type
REMARK                         _______ _______ _______ _____ _____    ______ ____
ROOT
ATOM      1  N   LIG    1        1.356   2.864  -0.836  0.00  0.00    -0.550 N 
ATOM      2  C   LIG    1        1.429   1.651  -0.014  0.00  0.00    +0.310 C 
ATOM      3  C   LIG    1       -0.005   1.079   0.005  0.00  0.00    +0.000 C 
ATOM      4  C   LIG    1       -0.587   1.643  -1.312  0.00  0.00    +0.100 C 
ATOM      5  C   LIG    1        0.237   2.884  -1.580  0.00  0.00    +0.510 C 
ATOM      6  O   LIG    1       -0.069   3.767  -2.353  0.00  0.00    -0.500 OA
ENDROOT
BRANCH   1  11
ATOM      7  C   LIG    1        3.192   5.921  -1.750  0.00  0.00    +0.150 A 
ATOM      8  C   LIG    1        4.253   5.864  -0.857  0.00  0.00    -0.100 A 
ATOM      9  C   LIG    1        4.350   4.814   0.038  0.00  0.00    +0.080 A 
ATOM     10  C   LIG    1        3.389   3.823   0.050  0.00  0.00    -0.060 A 
ATOM     11  C   LIG    1        2.327   3.872  -0.845  0.00  0.00    +0.210 A 
ATOM     12  C   LIG    1        2.228   4.924  -1.744  0.00  0.00    -0.030 A 
BRANCH   7  14
ATOM     13  C   LIG    1        4.126   7.944  -2.579  0.00  0.00    +0.250 C 
ATOM     14  O   LIG    1        3.098   6.953  -2.629  0.00  0.00    -0.310 OA
ENDBRANCH   7  14
ENDBRANCH   1  11
BRANCH   3  15
ATOM     15  C   LIG    1       -0.774   1.588   1.197  0.00  0.00    +0.520 C 
ATOM     16  N   LIG    1       -2.069   1.251   1.358  0.00  0.00    -0.720 N 
ATOM     17  H   LIG    1       -2.506   0.681   0.706  0.00  0.00    +0.400 HD
ATOM     18  O   LIG    1       -0.227   2.301   2.011  0.00  0.00    -0.520 OA
BRANCH  16  19
ATOM     19  C   LIG    1       -2.816   1.746   2.517  0.00  0.00    +0.230 C 
ATOM     20  C   LIG    1       -3.368   3.140   2.210  0.00  0.00    +0.040 C 
BRANCH  19  21
ATOM     21  C   LIG    1       -3.974   0.794   2.821  0.00  0.00    +0.310 C 
BRANCH  21  22
ATOM     22  N   LIG    1       -3.442  -0.507   3.231  0.00  0.00    -0.460 N 
ATOM     23  C   LIG    1       -3.155  -1.563   2.408  0.00  0.00    +0.110 A 
ATOM     24  C   LIG    1       -2.687  -2.552   3.193  0.00  0.00    +0.140 A 
ATOM     25  N   LIG    1       -2.696  -2.116   4.461  0.00  0.00    -0.490 NA
ATOM     26  C   LIG    1       -3.147  -0.892   4.492  0.00  0.00    +0.380 A 
ENDBRANCH  21  22
ENDBRANCH  19  21
ENDBRANCH  16  19
ENDBRANCH   3  15
TORSDOF 6
