REMARK  Name = ZINCpk00000y6yxn.0
REMARK                            x       y       z     vdW  Elec       q    Type
REMARK                         _______ _______ _______ _____ _____    ______ ____
ROOT
ATOM      1  N   LIG    1       -0.718   0.287  -0.466  0.00  0.00    -0.530 NA
ATOM      2  C   LIG    1       -0.167  -0.234  -1.724  0.00  0.00    +0.180 C 
ATOM      3  C   LIG    1        0.347  -1.660  -1.502  0.00  0.00    +0.280 C 
ATOM      4  N   LIG    1       -0.740  -2.463  -0.919  0.00  0.00    -0.610 N 
ATOM      5  C   LIG    1       -1.434  -1.938   0.266  0.00  0.00    +0.300 C 
ATOM      6  C   LIG    1       -1.090  -3.647  -1.458  0.00  0.00    +0.570 C 
ATOM      7  O   LIG    1       -1.943  -4.330  -0.924  0.00  0.00    -0.530 OA
ATOM      8  C   LIG    1       -1.878  -0.501  -0.026  0.00  0.00    +0.180 C 
ENDROOT
BRANCH   6   9
ATOM      9  C   LIG    1       -0.438  -4.117  -2.697  0.00  0.00    -0.120 A 
ATOM     10  C   LIG    1       -1.212  -4.580  -3.763  0.00  0.00    +0.100 A 
ATOM     11  C   LIG    1       -0.601  -5.013  -4.920  0.00  0.00    +0.050 A 
ATOM     12  C   LIG    1        0.783  -5.001  -5.027  0.00  0.00    +0.060 A 
ATOM     13  O   LIG    1        1.612  -5.375  -6.043  0.00  0.00    -0.300 OA
ATOM     14  C   LIG    1        2.912  -5.529  -5.444  0.00  0.00    +0.440 C 
ATOM     15  O   LIG    1        2.878  -4.633  -4.317  0.00  0.00    -0.310 OA
ATOM     16  C   LIG    1        1.562  -4.544  -3.963  0.00  0.00    +0.030 A 
ATOM     17  C   LIG    1        0.956  -4.104  -2.803  0.00  0.00    +0.070 A 
ENDBRANCH   6   9
BRANCH   1  18
ATOM     18  C   LIG    1       -1.064   1.709  -0.592  0.00  0.00    +0.280 C 
BRANCH  18  23
ATOM     19  C   LIG    1        3.675   4.751  -1.386  0.00  0.00    +0.110 C 
ATOM     20  C   LIG    1        2.419   3.945  -1.176  0.00  0.00    -0.190 A 
ATOM     21  C   LIG    1        1.715   3.434  -2.254  0.00  0.00    +0.320 A 
ATOM     22  N   LIG    1        0.617   2.731  -2.031  0.00  0.00    -0.510 NA
ATOM     23  C   LIG    1        0.192   2.515  -0.802  0.00  0.00    +0.320 A 
ATOM     24  N   LIG    1        0.833   2.989   0.247  0.00  0.00    -0.500 NA
ATOM     25  C   LIG    1        1.941   3.697   0.101  0.00  0.00    +0.320 A 
ENDBRANCH  18  23
ENDBRANCH   1  18
TORSDOF 3
