REMARK  Name = ZINCtV00000L6jdX.0
REMARK                            x       y       z     vdW  Elec       q    Type
REMARK                         _______ _______ _______ _____ _____    ______ ____
ROOT
ATOM      1  P   LIG    1        5.035   0.202  -0.046  0.00  0.00    +2.410 P 
ATOM      2  O   LIG    1        6.177  -0.739  -0.062  0.00  0.00    -1.010 OA
ENDROOT
BRANCH   1   3
ATOM      3  N   LIG    1        3.630  -0.643  -0.037  0.00  0.00    -1.090 N 
ATOM      4  H   LIG    1        3.647  -1.612  -0.042  0.00  0.00    +0.440 HD
BRANCH   3  10
ATOM      5  C   LIG    1        1.210  -0.680  -0.014  0.00  0.00    +0.100 A 
ATOM      6  C   LIG    1        0.002  -0.004   0.002  0.00  0.00    -0.030 A 
ATOM      7  C   LIG    1       -0.017   1.379   0.010  0.00  0.00    +0.020 A 
ATOM      8  C   LIG    1        1.169   2.090   0.002  0.00  0.00    +0.040 A 
ATOM      9  C   LIG    1        2.379   1.422  -0.013  0.00  0.00    -0.040 A 
ATOM     10  C   LIG    1        2.406   0.036  -0.021  0.00  0.00    +0.140 A 
BRANCH   5  11
ATOM     11  O   LIG    1        1.230  -2.040  -0.021  0.00  0.00    -0.320 OA
BRANCH  11  12
ATOM     12  C   LIG    1       -0.033  -2.708  -0.012  0.00  0.00    +0.180 C 
BRANCH  12  14
ATOM     13  C   LIG    1       -1.164  -4.936  -0.013  0.00  0.00    +0.040 C 
ATOM     14  C   LIG    1        0.189  -4.221  -0.022  0.00  0.00    +0.020 C 
ENDBRANCH  12  14
ENDBRANCH  11  12
ENDBRANCH   5  11
ENDBRANCH   3  10
ENDBRANCH   1   3
BRANCH   1  15
ATOM     15  O   LIG    1        5.117   1.122   1.273  0.00  0.00    -0.630 OA
BRANCH  15  16
ATOM     16  C   LIG    1        5.399   0.434   2.411  0.00  0.00    +0.050 A 
ATOM     17  C   LIG    1        6.688  -0.020   2.646  0.00  0.00    +0.060 A 
ATOM     18  C   LIG    1        6.973  -0.720   3.804  0.00  0.00    +0.040 A 
ATOM     19  C   LIG    1        5.975  -0.968   4.727  0.00  0.00    +0.060 A 
ATOM     20  C   LIG    1        4.688  -0.517   4.496  0.00  0.00    +0.010 A 
ATOM     21  C   LIG    1        4.399   0.189   3.343  0.00  0.00    +0.090 A 
ATOM     22  F   LIG    1        3.143   0.634   3.120  0.00  0.00    -0.130 F 
ENDBRANCH  15  16
ENDBRANCH   1  15
BRANCH   1  23
ATOM     23  O   LIG    1        5.092   1.136  -1.356  0.00  0.00    -0.630 OA
BRANCH  23  24
ATOM     24  C   LIG    1        5.245   0.449  -2.519  0.00  0.00    +0.070 A 
ATOM     25  C   LIG    1        4.176  -0.248  -3.060  0.00  0.00    +0.010 A 
ATOM     26  C   LIG    1        4.334  -0.946  -4.242  0.00  0.00    +0.030 A 
ATOM     27  C   LIG    1        5.558  -0.950  -4.886  0.00  0.00    +0.050 A 
ATOM     28  C   LIG    1        6.627  -0.257  -4.349  0.00  0.00    +0.020 A 
ATOM     29  C   LIG    1        6.473   0.448  -3.170  0.00  0.00    +0.110 A 
ATOM     30  F   LIG    1        7.516   1.131  -2.648  0.00  0.00    -0.120 F 
ENDBRANCH  23  24
ENDBRANCH   1  23
TORSDOF 9
