REMARK  Name = ZINCpk00000xI8bQ.0
REMARK                            x       y       z     vdW  Elec       q    Type
REMARK                         _______ _______ _______ _____ _____    ______ ____
ROOT
ATOM      1  N   LIG    1       -0.939   3.522  -0.556  0.00  0.00    -0.510 NA
ATOM      2  C   LIG    1       -2.136   4.370  -0.632  0.00  0.00    +0.190 C 
ATOM      3  C   LIG    1       -2.657   4.640   0.784  0.00  0.00    +0.310 C 
ATOM      4  N   LIG    1       -2.850   3.350   1.464  0.00  0.00    -1.000 NA
ATOM      5  C   LIG    1       -1.737   2.389   1.463  0.00  0.00    +0.310 C 
ATOM      6  C   LIG    1       -1.253   2.208   0.020  0.00  0.00    +0.230 C 
ENDROOT
BRANCH   6   7
ATOM      7  C   LIG    1       -0.016   1.346   0.009  0.00  0.00    +0.200 A 
ATOM      8  N   LIG    1        1.214   1.781   0.000  0.00  0.00    -0.450 NA
ATOM      9  C   LIG    1        2.053   0.735  -0.014  0.00  0.00    +0.140 A 
ATOM     10  C   LIG    1        1.315  -0.391  -0.013  0.00  0.00    +0.130 A 
ATOM     11  N   LIG    1        0.002  -0.004   0.002  0.00  0.00    -0.560 N 
ATOM     12  H   LIG    1       -0.771  -0.590   0.006  0.00  0.00    +0.420 HD
ENDBRANCH   6   7
BRANCH   4  13
ATOM     13  S   LIG    1       -4.283   2.991   2.213  0.00  0.00    +2.680 S 
ATOM     14  O   LIG    1       -4.362   1.573   2.268  0.00  0.00    -0.940 OA
ATOM     15  O   LIG    1       -5.273   3.801   1.595  0.00  0.00    -0.940 OA
BRANCH  13  16
ATOM     16  C   LIG    1       -4.154   3.546   3.880  0.00  0.00    -0.620 A 
ATOM     17  C   LIG    1       -4.966   4.564   4.333  0.00  0.00    +0.130 A 
ATOM     18  C   LIG    1       -4.867   5.003   5.643  0.00  0.00    +0.080 A 
ATOM     19  C   LIG    1       -3.955   4.426   6.506  0.00  0.00    +0.060 A 
ATOM     20  C   LIG    1       -3.134   3.405   6.066  0.00  0.00    +0.130 A 
ATOM     21  F   LIG    1       -2.242   2.841   6.911  0.00  0.00    -0.120 F 
ATOM     22  C   LIG    1       -3.233   2.953   4.747  0.00  0.00    +0.040 A 
BRANCH  22  23
ATOM     23  C   LIG    1       -2.391   1.891   4.284  0.00  0.00    +0.210 C 
ATOM     24  N   LIG    1       -1.723   1.048   3.917  0.00  0.00    -0.340 NA
ENDBRANCH  22  23
ENDBRANCH  13  16
ENDBRANCH   4  13
BRANCH   1  26
ATOM     25  C   LIG    1       -0.226   4.752  -2.550  0.00  0.00    +0.030 C 
ATOM     26  C   LIG    1       -0.310   3.381  -1.876  0.00  0.00    +0.180 C 
ENDBRANCH   1  26
TORSDOF 5
