REMARK  Name = ZINCvU00000006P3.0
REMARK                            x       y       z     vdW  Elec       q    Type
REMARK                         _______ _______ _______ _____ _____    ______ ____
ROOT
ATOM      1  C   LIG    1        2.507   1.018  -0.028  0.00  0.00    -0.110 A 
ATOM      2  C   LIG    1        2.490  -0.353   0.221  0.00  0.00    +0.050 A 
ATOM      3  C   LIG    1        3.665  -1.077   0.177  0.00  0.00    +0.040 A 
ATOM      4  C   LIG    1        4.867  -0.449  -0.103  0.00  0.00    +0.050 A 
ATOM      5  C   LIG    1        4.907   0.909  -0.348  0.00  0.00    +0.060 A 
ATOM      6  C   LIG    1        3.730   1.658  -0.314  0.00  0.00    +0.040 A 
ENDROOT
BRANCH   6   7
ATOM      7  C   LIG    1        3.766   3.109  -0.574  0.00  0.00    +0.240 A 
ATOM      8  N   LIG    1        4.507   3.984   0.070  0.00  0.00    -0.460 NA
ATOM      9  C   LIG    1        4.279   5.199  -0.436  0.00  0.00    +0.180 A 
ATOM     10  C   LIG    1        3.360   5.067  -1.433  0.00  0.00    +0.000 A 
ATOM     11  O   LIG    1        3.051   3.754  -1.513  0.00  0.00    -0.160 OA
BRANCH  10  12
ATOM     12  C   LIG    1        2.810   6.152  -2.270  0.00  0.00    -0.050 A 
ATOM     13  C   LIG    1        2.299   7.307  -1.675  0.00  0.00    +0.080 A 
ATOM     14  C   LIG    1        1.792   8.319  -2.464  0.00  0.00    +0.010 A 
ATOM     15  C   LIG    1        1.778   8.188  -3.841  0.00  0.00    +0.060 A 
ATOM     16  C   LIG    1        2.276   7.044  -4.439  0.00  0.00    -0.010 A 
ATOM     17  C   LIG    1        2.793   6.025  -3.663  0.00  0.00    +0.120 A 
ATOM     18  F   LIG    1        3.280   4.908  -4.247  0.00  0.00    -0.130 F 
ENDBRANCH  10  12
ENDBRANCH   6   7
BRANCH   1  20
ATOM     19  O   LIG    1        1.286   3.006  -0.100  0.00  0.00    -0.500 OA
ATOM     20  C   LIG    1        1.254   1.796   0.012  0.00  0.00    +0.560 C 
ATOM     21  N   LIG    1        0.074   1.165   0.173  0.00  0.00    -0.660 N 
ATOM     22  H   LIG    1        0.041   0.196   0.191  0.00  0.00    +0.410 HD
BRANCH  21  23
ATOM     23  C   LIG    1       -1.105   1.908   0.310  0.00  0.00    +0.150 A 
ATOM     24  C   LIG    1       -1.096   3.099   1.024  0.00  0.00    +0.030 A 
ATOM     25  C   LIG    1       -2.258   3.835   1.155  0.00  0.00    +0.050 A 
ATOM     26  C   LIG    1       -3.438   3.382   0.585  0.00  0.00    +0.040 A 
ATOM     27  O   LIG    1       -4.575   4.116   0.733  0.00  0.00    -0.310 OA
ATOM     28  C   LIG    1       -5.651   3.824  -0.166  0.00  0.00    +0.220 C 
ATOM     29  C   LIG    1       -5.824   2.301  -0.229  0.00  0.00    +0.220 C 
ATOM     30  O   LIG    1       -4.598   1.730  -0.699  0.00  0.00    -0.310 OA
ATOM     31  C   LIG    1       -3.451   2.188  -0.127  0.00  0.00    +0.070 A 
ATOM     32  C   LIG    1       -2.284   1.452  -0.263  0.00  0.00    +0.000 A 
ENDBRANCH  21  23
ENDBRANCH   1  20
TORSDOF 4
