REMARK  Name = ZINCpk00000xI5D1.0
REMARK                            x       y       z     vdW  Elec       q    Type
REMARK                         _______ _______ _______ _____ _____    ______ ____
ROOT
ATOM      1  C   LIG    1       -1.054   0.710   2.197  0.00  0.00    +0.660 C 
ATOM      2  N   LIG    1       -0.709   1.564   1.212  0.00  0.00    -0.600 N 
ATOM      3  C   LIG    1       -0.013   1.086   0.008  0.00  0.00    +0.310 C 
ATOM      4  C   LIG    1       -0.762   1.597  -1.227  0.00  0.00    +0.190 C 
ATOM      5  N   LIG    1       -0.913   3.056  -1.135  0.00  0.00    -0.550 NA
ATOM      6  C   LIG    1       -1.732   3.434   0.024  0.00  0.00    +0.170 C 
ATOM      7  C   LIG    1       -1.023   2.998   1.310  0.00  0.00    +0.300 C 
ATOM      8  O   LIG    1       -0.790  -0.471   2.096  0.00  0.00    -0.570 OA
ENDROOT
BRANCH   1   9
ATOM      9  O   LIG    1       -1.690   1.167   3.292  0.00  0.00    -0.360 OA
BRANCH   9  11
ATOM     10  C   LIG    1       -0.754  -0.475   4.827  0.00  0.00    +0.040 C 
ATOM     11  C   LIG    1       -2.031   0.191   4.311  0.00  0.00    +0.140 C 
ATOM     12  C   LIG    1       -2.954  -0.871   3.712  0.00  0.00    +0.040 C 
ATOM     13  C   LIG    1       -2.744   0.892   5.470  0.00  0.00    +0.080 C 
ENDBRANCH   9  11
ENDBRANCH   1   9
BRANCH   5  14
ATOM     14  C   LIG    1       -1.472   3.606  -2.377  0.00  0.00    +0.450 C 
BRANCH  14  15
ATOM     15  N   LIG    1       -2.152   4.871  -2.088  0.00  0.00    -0.600 N 
ATOM     16  C   LIG    1       -3.468   4.951  -1.760  0.00  0.00    +0.540 C 
ATOM     17  C   LIG    1       -3.835   6.400  -1.845  0.00  0.00    +0.000 C 
ATOM     18  C   LIG    1       -4.840   6.962  -0.862  0.00  0.00    +0.110 C 
ATOM     19  C   LIG    1       -4.756   8.471  -0.961  0.00  0.00    -0.050 C 
ATOM     20  C   LIG    1       -3.756   9.117  -1.481  0.00  0.00    -0.030 C 
ATOM     21  C   LIG    1       -2.520   8.464  -2.028  0.00  0.00    +0.110 C 
ATOM     22  C   LIG    1       -2.466   7.053  -1.481  0.00  0.00    +0.000 C 
ATOM     23  O   LIG    1       -4.199   4.033  -1.457  0.00  0.00    -0.460 OA
ATOM     24  C   LIG    1       -1.530   6.078  -2.127  0.00  0.00    +0.550 C 
ATOM     25  O   LIG    1       -0.436   6.317  -2.591  0.00  0.00    -0.450 OA
ENDBRANCH  14  15
ENDBRANCH   5  14
TORSDOF 4
