REMARK  Name = ZINCqH0000000EaE.0
REMARK                            x       y       z     vdW  Elec       q    Type
REMARK                         _______ _______ _______ _____ _____    ______ ____
ROOT
ATOM      1  C   LIG    1       -2.666   0.044   0.013  0.00  0.00    +0.500 C 
ATOM      2  O   LIG    1       -1.760  -0.767   0.005  0.00  0.00    -0.600 OA
ENDROOT
BRANCH   1   3
ATOM      3  N   LIG    1       -2.393   1.345   0.019  0.00  0.00    -0.630 NA
ATOM      4  C   LIG    1       -1.129   1.760   0.016  0.00  0.00    +0.490 A 
ATOM      5  N   LIG    1       -0.011   0.966   0.007  0.00  0.00    -0.480 N 
ATOM      6  H   LIG    1        0.002  -0.004   0.002  0.00  0.00    +0.460 HD
ATOM      7  N   LIG    1        1.108   1.808   0.001  0.00  0.00    -0.480 N 
ATOM      8  H   LIG    1        2.034   1.520  -0.009  0.00  0.00    +0.450 HD
ATOM      9  C   LIG    1        0.679   3.099   0.012  0.00  0.00    +0.380 A 
ATOM     10  C   LIG    1       -0.684   3.109   0.025  0.00  0.00    -0.200 A 
BRANCH  10  11
ATOM     11  C   LIG    1       -1.549   4.313   0.040  0.00  0.00    +0.000 A 
ATOM     12  C   LIG    1       -2.365   4.575   1.139  0.00  0.00    +0.030 A 
ATOM     13  C   LIG    1       -3.164   5.700   1.149  0.00  0.00    +0.000 A 
ATOM     14  C   LIG    1       -3.164   6.561   0.066  0.00  0.00    +0.000 A 
ATOM     15  C   LIG    1       -2.360   6.303  -1.030  0.00  0.00    +0.000 A 
ATOM     16  C   LIG    1       -1.553   5.184  -1.049  0.00  0.00    +0.010 A 
ENDBRANCH  10  11
ENDBRANCH   1   3
BRANCH   1  19
ATOM     17  C   LIG    1       -5.411  -1.762  -0.975  0.00  0.00    +0.010 C 
ATOM     18  C   LIG    1       -4.244  -1.957   0.007  0.00  0.00    +0.040 C 
ATOM     19  C   LIG    1       -4.098  -0.426   0.015  0.00  0.00    +0.000 C 
ATOM     20  C   LIG    1       -4.746  -0.436  -1.379  0.00  0.00    +0.050 C 
BRANCH  17  21
ATOM     21  C   LIG    1       -5.446  -2.800  -2.098  0.00  0.00    +0.100 C 
BRANCH  21  22
ATOM     22  C   LIG    1       -6.687  -2.598  -2.930  0.00  0.00    +0.460 C 
ATOM     23  O   LIG    1       -7.463  -1.715  -2.652  0.00  0.00    -0.500 OA
BRANCH  22  24
ATOM     24  O   LIG    1       -6.930  -3.400  -3.978  0.00  0.00    -0.350 OA
BRANCH  24  26
ATOM     25  C   LIG    1       -8.105  -1.728  -5.302  0.00  0.00    +0.030 C 
ATOM     26  C   LIG    1       -8.144  -3.148  -4.734  0.00  0.00    +0.120 C 
ATOM     27  C   LIG    1       -9.357  -3.296  -3.814  0.00  0.00    +0.030 C 
ATOM     28  C   LIG    1       -8.248  -4.154  -5.882  0.00  0.00    +0.080 C 
ENDBRANCH  24  26
ENDBRANCH  22  24
ENDBRANCH  21  22
ENDBRANCH  17  21
ENDBRANCH   1  19
TORSDOF 7
