REMARK  Name = ZINCrH000004ljDk.0
REMARK                            x       y       z     vdW  Elec       q    Type
REMARK                         _______ _______ _______ _____ _____    ______ ____
ROOT
ATOM      1  N   LIG    1       -1.642   4.910   1.441  0.00  0.00    -0.620 N 
ATOM      2  C   LIG    1       -0.779   4.351   0.568  0.00  0.00    +0.710 C 
ATOM      3  N   LIG    1        0.479   4.064   0.955  0.00  0.00    -0.740 N 
ATOM      4  H   LIG    1        0.765   4.259   1.861  0.00  0.00    +0.390 HD
ATOM      5  O   LIG    1       -1.137   4.107  -0.568  0.00  0.00    -0.580 OA
ENDROOT
BRANCH   3   6
ATOM      6  C   LIG    1        1.416   3.457   0.006  0.00  0.00    +0.330 C 
ATOM      7  C   LIG    1        2.852   3.775   0.429  0.00  0.00    +0.020 C 
ATOM      8  C   LIG    1        3.824   2.959  -0.427  0.00  0.00    +0.040 C 
ATOM      9  C   LIG    1        3.724   1.484  -0.024  0.00  0.00    +0.110 C 
ATOM     10  C   LIG    1        2.264   1.083  -0.014  0.00  0.00    -0.170 A 
ATOM     11  S   LIG    1        1.665  -0.571  -0.017  0.00  0.00    +0.090 S 
ATOM     12  C   LIG    1        0.002  -0.004   0.002  0.00  0.00    -0.060 A 
ATOM     13  C   LIG    1       -0.016   1.325   0.009  0.00  0.00    +0.030 A 
ATOM     14  C   LIG    1        1.230   1.946   0.001  0.00  0.00    -0.120 A 
ENDBRANCH   3   6
BRANCH   1  15
ATOM     15  C   LIG    1       -1.210   5.204   2.810  0.00  0.00    +0.290 C 
BRANCH  15  16
ATOM     16  C   LIG    1       -0.632   6.619   2.869  0.00  0.00    +0.150 C 
BRANCH  16  18
ATOM     17  C   LIG    1       -1.227   8.927   2.616  0.00  0.00    +0.200 C 
ATOM     18  O   LIG    1       -1.663   7.567   2.586  0.00  0.00    -0.380 OA
ENDBRANCH  16  18
ENDBRANCH  15  16
ENDBRANCH   1  15
BRANCH   1  19
ATOM     19  C   LIG    1       -3.010   5.222   1.021  0.00  0.00    +0.380 C 
BRANCH  19  20
ATOM     20  C   LIG    1       -3.900   4.036   1.288  0.00  0.00    -0.100 A 
ATOM     21  C   LIG    1       -4.074   3.071   0.314  0.00  0.00    +0.060 A 
ATOM     22  C   LIG    1       -4.886   1.978   0.556  0.00  0.00    +0.030 A 
ATOM     23  C   LIG    1       -5.537   1.854   1.772  0.00  0.00    +0.030 A 
ATOM     24  O   LIG    1       -6.381   0.896   2.253  0.00  0.00    -0.310 OA
ATOM     25  C   LIG    1       -6.403   1.083   3.680  0.00  0.00    +0.420 C 
ATOM     26  O   LIG    1       -6.104   2.482   3.846  0.00  0.00    -0.310 OA
ATOM     27  C   LIG    1       -5.366   2.829   2.752  0.00  0.00    +0.030 A 
ATOM     28  C   LIG    1       -4.547   3.919   2.504  0.00  0.00    +0.040 A 
ENDBRANCH  19  20
ENDBRANCH   1  19
TORSDOF 6
