REMARK  Name = ZINC9H0000000CDg.0
REMARK                            x       y       z     vdW  Elec       q    Type
REMARK                         _______ _______ _______ _____ _____    ______ ____
ROOT
ATOM      1 CL   LIG    1        3.913  -0.819  -0.042  0.00  0.00    -0.040 Cl
ATOM      2  C   LIG    1        2.398   0.028  -0.021  0.00  0.00    -0.020 A 
ATOM      3  C   LIG    1        2.379   1.412  -0.014  0.00  0.00    +0.060 A 
ATOM      4  C   LIG    1        1.172   2.087   0.002  0.00  0.00    -0.020 A 
ATOM      5  C   LIG    1       -0.017   1.379   0.010  0.00  0.00    +0.070 A 
ATOM      6  C   LIG    1        0.002  -0.004   0.002  0.00  0.00    -0.070 A 
ATOM      7 BR   LIG    1       -1.623  -0.972   0.013  0.00  0.00    -0.020 Br
ATOM      8 CL   LIG    1        1.148   3.823   0.012  0.00  0.00    -0.040 Cl
ATOM      9  C   LIG    1        1.209  -0.679  -0.013  0.00  0.00    +0.070 A 
ENDROOT
TORSDOF 0
