REMARK  Name = ZINCbw0000000HeZ.0
REMARK                            x       y       z     vdW  Elec       q    Type
REMARK                         _______ _______ _______ _____ _____    ______ ____
ROOT
ATOM      1  C   LIG    1        0.117   1.000   2.802  0.00  0.00    -0.100 A 
ATOM      2  C   LIG    1        1.234   0.226   2.505  0.00  0.00    +0.030 A 
ATOM      3  C   LIG    1        2.010  -0.299   3.522  0.00  0.00    +0.020 A 
ATOM      4  C   LIG    1        1.676  -0.069   4.840  0.00  0.00    +0.060 A 
ATOM      5  C   LIG    1        0.552   0.704   5.152  0.00  0.00    -0.170 A 
ATOM      6  C   LIG    1       -0.228   1.239   4.124  0.00  0.00    +0.100 A 
ENDROOT
BRANCH   5   7
ATOM      7  C   LIG    1        0.194   0.953   6.558  0.00  0.00    +0.490 C 
ATOM      8  O   LIG    1       -0.781   1.623   6.825  0.00  0.00    -0.450 OA
ENDBRANCH   5   7
BRANCH   1   9
ATOM      9  S   LIG    1       -0.862   1.671   1.500  0.00  0.00    -0.110 S 
BRANCH   9  11
ATOM     10  C   LIG    1       -0.753   1.593  -1.232  0.00  0.00    +0.080 C 
ATOM     11  C   LIG    1       -0.013   1.086   0.008  0.00  0.00    +0.070 C 
ENDBRANCH   9  11
ENDBRANCH   1   9
TORSDOF 3
