REMARK  Name = ZINCrD00000l22E3.0
REMARK                            x       y       z     vdW  Elec       q    Type
REMARK                         _______ _______ _______ _____ _____    ______ ____
ROOT
ATOM      1  O   LIG    1        7.312   5.371  -0.527  0.00  0.00    -0.330 OA
ENDROOT
BRANCH   1   2
ATOM      2  C   LIG    1        7.451   6.491  -1.263  0.00  0.00    +0.520 C 
ATOM      3  O   LIG    1        6.833   7.494  -0.965  0.00  0.00    -0.490 OA
BRANCH   2  10
ATOM      4  C   LIG    1        7.523   8.807  -2.996  0.00  0.00    +0.120 C 
ATOM      5  C   LIG    1        8.397   7.612  -3.276  0.00  0.00    +0.040 A 
ATOM      6  C   LIG    1        9.247   7.616  -4.362  0.00  0.00    +0.000 A 
ATOM      7  C   LIG    1       10.045   6.516  -4.625  0.00  0.00    +0.170 A 
ATOM      8  C   LIG    1       10.002   5.409  -3.797  0.00  0.00    -0.680 A 
ATOM      9  C   LIG    1        9.161   5.394  -2.703  0.00  0.00    +0.200 A 
ATOM     10  C   LIG    1        8.353   6.500  -2.432  0.00  0.00    -0.150 A 
BRANCH   8  11
ATOM     11  S   LIG    1       11.023   4.015  -4.140  0.00  0.00    +2.500 S 
ATOM     12  O   LIG    1       11.209   3.396  -2.874  0.00  0.00    -0.930 OA
ATOM     13  O   LIG    1       12.123   4.554  -4.860  0.00  0.00    -0.930 OA
ATOM     14  C   LIG    1       10.009   2.966  -5.218  0.00  0.00    -0.250 C 
ENDBRANCH   8  11
ENDBRANCH   2  10
ENDBRANCH   1   2
BRANCH   1  15
ATOM     15  C   LIG    1        6.409   5.435   0.608  0.00  0.00    +0.320 C 
ATOM     16  C   LIG    1        7.182   5.878   1.851  0.00  0.00    +0.090 C 
BRANCH  15  17
ATOM     17  C   LIG    1        5.808   4.074   0.848  0.00  0.00    +0.150 A 
ATOM     18  N   LIG    1        6.449   2.939   0.853  0.00  0.00    -0.240 NA
ATOM     19  N   LIG    1        5.625   1.981   1.097  0.00  0.00    -0.270 NA
ATOM     20  C   LIG    1        4.419   2.475   1.247  0.00  0.00    +0.220 A 
ATOM     21  O   LIG    1        4.513   3.811   1.096  0.00  0.00    -0.210 OA
BRANCH  20  22
ATOM     22  C   LIG    1        3.187   1.710   1.535  0.00  0.00    -0.030 A 
ATOM     23  C   LIG    1        1.967   2.372   1.677  0.00  0.00    +0.050 A 
ATOM     24  C   LIG    1        0.822   1.652   1.947  0.00  0.00    +0.010 A 
ATOM     25  C   LIG    1        0.881   0.276   2.075  0.00  0.00    +0.040 A 
ATOM     26  C   LIG    1        2.087  -0.387   1.935  0.00  0.00    +0.020 A 
ATOM     27  C   LIG    1        3.240   0.321   1.666  0.00  0.00    +0.080 A 
ENDBRANCH  20  22
ENDBRANCH  15  17
ENDBRANCH   1  15
TORSDOF 6
