REMARK  Name = ZINCrD000000fCss.0
REMARK                            x       y       z     vdW  Elec       q    Type
REMARK                         _______ _______ _______ _____ _____    ______ ____
ROOT
ATOM      1  N   LIG    1       -1.203   2.933   1.589  0.00  0.00    -0.730 N 
ATOM      2  H   LIG    1       -0.769   3.441   2.293  0.00  0.00    +0.410 HD
ENDROOT
BRANCH   1  10
ATOM      3  C   LIG    1       -6.000   3.532  -2.705  0.00  0.00    +0.120 C 
ATOM      4  C   LIG    1       -6.207   4.911  -2.132  0.00  0.00    +0.520 C 
ATOM      5  N   LIG    1       -5.421   5.349  -1.129  0.00  0.00    -0.550 N 
ATOM      6  C   LIG    1       -5.526   6.664  -0.492  0.00  0.00    +0.270 C 
ATOM      7  C   LIG    1       -4.425   6.682   0.581  0.00  0.00    +0.090 C 
ATOM      8  C   LIG    1       -3.757   5.330   0.466  0.00  0.00    -0.080 A 
ATOM      9  C   LIG    1       -2.710   4.776   1.175  0.00  0.00    -0.010 A 
ATOM     10  C   LIG    1       -2.267   3.494   0.876  0.00  0.00    +0.200 A 
ATOM     11  C   LIG    1       -2.890   2.770  -0.132  0.00  0.00    -0.040 A 
ATOM     12  C   LIG    1       -3.939   3.323  -0.835  0.00  0.00    +0.030 A 
ATOM     13  C   LIG    1       -4.384   4.613  -0.541  0.00  0.00    +0.090 A 
ATOM     14  O   LIG    1       -7.080   5.627  -2.574  0.00  0.00    -0.530 OA
ENDBRANCH   1  10
BRANCH   1  15
ATOM     15  C   LIG    1       -0.743   1.578   1.274  0.00  0.00    +0.240 C 
ATOM     16  C   LIG    1        0.256   1.636   0.116  0.00  0.00    +0.050 C 
BRANCH  15  17
ATOM     17  C   LIG    1       -0.074   0.981   2.485  0.00  0.00    +0.530 C 
ATOM     18  N   LIG    1        0.059  -0.357   2.590  0.00  0.00    -0.550 N 
ATOM     19  C   LIG    1       -0.288  -1.277   1.596  0.00  0.00    +0.140 A 
ATOM     20  C   LIG    1       -0.812  -1.049   0.323  0.00  0.00    -0.030 A 
ATOM     21  C   LIG    1       -1.081  -2.108  -0.518  0.00  0.00    +0.050 A 
ATOM     22  C   LIG    1       -0.829  -3.404  -0.108  0.00  0.00    -0.010 A 
ATOM     23  C   LIG    1       -0.305  -3.638   1.150  0.00  0.00    +0.060 A 
ATOM     24  C   LIG    1       -0.033  -2.580   1.996  0.00  0.00    -0.130 A 
ATOM     25  C   LIG    1        0.532  -2.551   3.398  0.00  0.00    +0.100 C 
ATOM     26  C   LIG    1        0.581  -1.059   3.765  0.00  0.00    +0.220 C 
ATOM     27  C   LIG    1       -0.303  -0.784   4.984  0.00  0.00    +0.050 C 
ATOM     28  O   LIG    1        0.345   1.702   3.365  0.00  0.00    -0.510 OA
ENDBRANCH  15  17
ENDBRANCH   1  15
TORSDOF 3
