REMARK  Name = ZINCtV00000tRSZU.0
REMARK                            x       y       z     vdW  Elec       q    Type
REMARK                         _______ _______ _______ _____ _____    ______ ____
ROOT
ATOM      1  C   LIG    1        2.242   5.591  -0.003  0.00  0.00    +0.140 C 
ATOM      2  C   LIG    1        2.318   4.086  -0.013  0.00  0.00    +0.200 A 
ATOM      3  N   LIG    1        1.211   3.391   0.028  0.00  0.00    -0.470 NA
ATOM      4  C   LIG    1        1.212   2.052   0.021  0.00  0.00    +0.160 A 
ATOM      5  C   LIG    1        0.006   1.333   0.065  0.00  0.00    +0.060 A 
ATOM      6  C   LIG    1        0.030  -0.030   0.058  0.00  0.00    -0.010 A 
ATOM      7  C   LIG    1        1.235  -0.728   0.007  0.00  0.00    +0.030 A 
ATOM      8  C   LIG    1        2.424  -0.063  -0.037  0.00  0.00    +0.070 A 
ATOM      9 CL   LIG    1       -1.466  -0.911   0.112  0.00  0.00    -0.050 Cl
ATOM     10  C   LIG    1        2.435   1.339  -0.031  0.00  0.00    -0.100 A 
ATOM     11  C   LIG    1        3.651   2.063  -0.076  0.00  0.00    +0.060 A 
ATOM     12  C   LIG    1        3.577   3.465  -0.066  0.00  0.00    -0.190 A 
ENDROOT
BRANCH  11  13
ATOM     13  C   LIG    1        4.954   1.367  -0.131  0.00  0.00    -0.070 A 
ATOM     14  C   LIG    1        5.858   1.486   0.926  0.00  0.00    +0.040 A 
ATOM     15  C   LIG    1        7.070   0.829   0.870  0.00  0.00    +0.020 A 
ATOM     16  C   LIG    1        7.395   0.063  -0.235  0.00  0.00    +0.030 A 
ATOM     17  C   LIG    1        6.506  -0.054  -1.289  0.00  0.00    +0.010 A 
ATOM     18  C   LIG    1        5.288   0.592  -1.244  0.00  0.00    +0.040 A 
ENDBRANCH  11  13
BRANCH  12  19
ATOM     19  C   LIG    1        4.808   4.277  -0.110  0.00  0.00    +0.440 C 
ATOM     20  O   LIG    1        5.311   4.677   0.925  0.00  0.00    -0.440 OA
BRANCH  19  21
ATOM     21  C   LIG    1        5.423   4.603  -1.396  0.00  0.00    -0.090 C 
ATOM     22  C   LIG    1        6.609   5.251  -1.433  0.00  0.00    +0.130 C 
BRANCH  22  23
ATOM     23  C   LIG    1        7.227   5.578  -2.725  0.00  0.00    -0.120 A 
ATOM     24  C   LIG    1        6.595   5.216  -3.920  0.00  0.00    +0.070 A 
ATOM     25  C   LIG    1        7.179   5.531  -5.128  0.00  0.00    +0.010 A 
ATOM     26  C   LIG    1        8.394   6.194  -5.163  0.00  0.00    +0.070 A 
ATOM     27  C   LIG    1        9.030   6.553  -3.989  0.00  0.00    -0.020 A 
ATOM     28  C   LIG    1        8.457   6.250  -2.768  0.00  0.00    +0.120 A 
ATOM     29  F   LIG    1        9.079   6.599  -1.621  0.00  0.00    -0.130 F 
ENDBRANCH  22  23
ENDBRANCH  19  21
ENDBRANCH  12  19
TORSDOF 4
