REMARK  Name = ZINCqH0000007Nic.1
REMARK                            x       y       z     vdW  Elec       q    Type
REMARK                         _______ _______ _______ _____ _____    ______ ____
ROOT
ATOM      1  C   LIG    1        3.697  -0.698  -0.038  0.00  0.00    +0.290 A 
ATOM      2  N   LIG    1        4.886  -0.139  -0.052  0.00  0.00    -0.270 NA
ATOM      3  N   LIG    1        5.827  -1.182  -0.061  0.00  0.00    -0.470 N 
ATOM      4  H   LIG    1        6.793  -1.092  -0.070  0.00  0.00    +0.450 HD
ATOM      5  C   LIG    1        5.123  -2.334  -0.061  0.00  0.00    +0.500 A 
ATOM      6  N   LIG    1        3.845  -2.031  -0.047  0.00  0.00    -0.550 NA
ENDROOT
BRANCH   1  12
ATOM      7  C   LIG    1        2.380   1.424  -0.013  0.00  0.00    +0.160 A 
ATOM      8  C   LIG    1        1.167   2.093   0.002  0.00  0.00    -0.090 A 
ATOM      9  C   LIG    1       -0.017   1.379   0.010  0.00  0.00    +0.070 A 
ATOM     10  C   LIG    1        0.002  -0.004   0.002  0.00  0.00    -0.030 A 
ATOM     11  C   LIG    1        1.204  -0.683  -0.013  0.00  0.00    +0.100 A 
ATOM     12  C   LIG    1        2.402   0.026  -0.021  0.00  0.00    -0.050 A 
BRANCH   7  14
ATOM     13  C   LIG    1        3.444   3.550  -0.011  0.00  0.00    +0.240 C 
ATOM     14  O   LIG    1        3.545   2.124  -0.020  0.00  0.00    -0.290 OA
ENDBRANCH   7  14
ENDBRANCH   1  12
BRANCH   5  15
ATOM     15  N   LIG    1        5.657  -3.615  -0.074  0.00  0.00    -0.620 N 
ATOM     16  H   LIG    1        5.068  -4.386  -0.072  0.00  0.00    +0.440 HD
ATOM     17  C   LIG    1        6.993  -3.788  -0.088  0.00  0.00    +0.550 C 
ATOM     18  O   LIG    1        7.729  -2.824  -0.090  0.00  0.00    -0.500 OA
BRANCH  17  19
ATOM     19  C   LIG    1        7.573  -5.179  -0.102  0.00  0.00    +0.020 C 
ATOM     20  C   LIG    1        7.552  -5.754   1.315  0.00  0.00    +0.080 C 
BRANCH  19  21
ATOM     21  S   LIG    1        9.283  -5.115  -0.704  0.00  0.00    -0.160 S 
BRANCH  21  22
ATOM     22  C   LIG    1        9.749  -6.866  -0.795  0.00  0.00    +0.120 C 
BRANCH  22  23
ATOM     23  C   LIG    1       11.168  -6.983  -1.287  0.00  0.00    -0.080 A 
ATOM     24  C   LIG    1       11.423  -7.090  -2.642  0.00  0.00    +0.020 A 
ATOM     25  C   LIG    1       12.725  -7.192  -3.094  0.00  0.00    +0.010 A 
ATOM     26  C   LIG    1       13.772  -7.199  -2.191  0.00  0.00    +0.010 A 
ATOM     27  C   LIG    1       13.517  -7.098  -0.836  0.00  0.00    +0.010 A 
ATOM     28  C   LIG    1       12.215  -6.990  -0.384  0.00  0.00    +0.020 A 
ENDBRANCH  22  23
ENDBRANCH  21  22
ENDBRANCH  19  21
ENDBRANCH  17  19
ENDBRANCH   5  15
TORSDOF 7
