REMARK  Name = ZINCqH0000007Nic.0
REMARK                            x       y       z     vdW  Elec       q    Type
REMARK                         _______ _______ _______ _____ _____    ______ ____
ROOT
ATOM      1  C   LIG    1        3.693  -0.695  -0.036  0.00  0.00    +0.350 A 
ATOM      2  N   LIG    1        4.891  -0.144  -0.044  0.00  0.00    -0.520 NA
ATOM      3  C   LIG    1        5.825  -1.097  -0.057  0.00  0.00    +0.440 A 
ATOM      4  N   LIG    1        5.239  -2.271  -0.058  0.00  0.00    -0.280 NA
ATOM      5  N   LIG    1        3.854  -2.038  -0.038  0.00  0.00    -0.480 N 
ATOM      6  H   LIG    1        3.152  -2.707  -0.030  0.00  0.00    +0.440 HD
ENDROOT
BRANCH   1  12
ATOM      7  C   LIG    1        2.381   1.427  -0.013  0.00  0.00    +0.180 A 
ATOM      8  C   LIG    1        1.166   2.094   0.002  0.00  0.00    -0.070 A 
ATOM      9  C   LIG    1       -0.017   1.380   0.010  0.00  0.00    +0.080 A 
ATOM     10  C   LIG    1        0.002  -0.004   0.002  0.00  0.00    -0.030 A 
ATOM     11  C   LIG    1        1.203  -0.683  -0.013  0.00  0.00    +0.070 A 
ATOM     12  C   LIG    1        2.404   0.027  -0.020  0.00  0.00    -0.080 A 
BRANCH   7  14
ATOM     13  C   LIG    1        3.442   3.553  -0.012  0.00  0.00    +0.240 C 
ATOM     14  O   LIG    1        3.543   2.128  -0.020  0.00  0.00    -0.280 OA
ENDBRANCH   7  14
ENDBRANCH   1  12
BRANCH   3  15
ATOM     15  N   LIG    1        7.206  -0.879  -0.068  0.00  0.00    -0.620 N 
ATOM     16  H   LIG    1        7.554   0.026  -0.067  0.00  0.00    +0.430 HD
ATOM     17  C   LIG    1        8.053  -1.927  -0.081  0.00  0.00    +0.530 C 
ATOM     18  O   LIG    1        7.618  -3.059  -0.083  0.00  0.00    -0.460 OA
BRANCH  17  19
ATOM     19  C   LIG    1        9.542  -1.693  -0.093  0.00  0.00    +0.010 C 
ATOM     20  C   LIG    1        9.994  -1.359  -1.516  0.00  0.00    +0.070 C 
BRANCH  19  21
ATOM     21  S   LIG    1       10.394  -3.189   0.476  0.00  0.00    -0.160 S 
BRANCH  21  22
ATOM     22  C   LIG    1       12.132  -2.670   0.539  0.00  0.00    +0.120 C 
BRANCH  22  23
ATOM     23  C   LIG    1       12.984  -3.823   1.003  0.00  0.00    -0.080 A 
ATOM     24  C   LIG    1       13.234  -3.999   2.351  0.00  0.00    +0.020 A 
ATOM     25  C   LIG    1       14.012  -5.060   2.777  0.00  0.00    +0.000 A 
ATOM     26  C   LIG    1       14.548  -5.938   1.854  0.00  0.00    +0.010 A 
ATOM     27  C   LIG    1       14.302  -5.759   0.506  0.00  0.00    +0.010 A 
ATOM     28  C   LIG    1       13.520  -4.702   0.080  0.00  0.00    +0.020 A 
ENDBRANCH  22  23
ENDBRANCH  21  22
ENDBRANCH  19  21
ENDBRANCH  17  19
ENDBRANCH   3  15
TORSDOF 7
