REMARK  Name = ZINCvU00000009Tr.0
REMARK                            x       y       z     vdW  Elec       q    Type
REMARK                         _______ _______ _______ _____ _____    ______ ____
ROOT
ATOM      1  O   LIG    1        3.460   1.431  -4.202  0.00  0.00    -0.480 OA
ATOM      2  C   LIG    1        4.431   1.168  -3.511  0.00  0.00    +0.550 A 
ATOM      3  N   LIG    1        4.283   0.795  -2.234  0.00  0.00    -0.580 NA
ATOM      4  C   LIG    1        5.304   0.504  -1.459  0.00  0.00    +0.460 A 
ATOM      5  C   LIG    1        4.983   0.096  -0.044  0.00  0.00    +0.110 C 
ATOM      6  C   LIG    1        6.071  -0.757   0.540  0.00  0.00    -0.080 A 
ATOM      7  C   LIG    1        5.767  -1.627   1.575  0.00  0.00    +0.050 A 
ATOM      8  C   LIG    1        6.753  -2.421   2.128  0.00  0.00    +0.030 A 
ATOM      9  C   LIG    1        8.046  -2.349   1.645  0.00  0.00    +0.030 A 
ATOM     10  C   LIG    1        8.348  -1.483   0.612  0.00  0.00    +0.030 A 
ATOM     11  C   LIG    1        7.361  -0.684   0.058  0.00  0.00    -0.100 A 
ATOM     12  C   LIG    1        7.715   0.250  -1.060  0.00  0.00    +0.350 C 
ATOM     13  N   LIG    1        6.566   0.567  -1.904  0.00  0.00    -0.460 N 
ATOM     14  C   LIG    1        6.837   0.944  -3.212  0.00  0.00    +0.050 A 
ATOM     15  S   LIG    1        8.367   1.119  -4.056  0.00  0.00    +0.170 S 
ATOM     16  C   LIG    1        7.572   1.602  -5.545  0.00  0.00    -0.190 A 
ATOM     17  C   LIG    1        8.297   1.947  -6.834  0.00  0.00    +0.120 C 
ATOM     18  C   LIG    1        7.295   1.902  -7.990  0.00  0.00    +0.030 C 
ATOM     19  C   LIG    1        6.063   2.732  -7.613  0.00  0.00    +0.020 C 
ATOM     20  C   LIG    1        5.284   2.002  -6.517  0.00  0.00    +0.110 C 
ATOM     21  C   LIG    1        6.245   1.626  -5.397  0.00  0.00    -0.030 A 
ATOM     22  C   LIG    1        5.798   1.255  -4.062  0.00  0.00    -0.210 A 
ENDROOT
BRANCH   5  23
ATOM     23  C   LIG    1        3.691  -0.679  -0.036  0.00  0.00    +0.430 C 
ATOM     24  O   LIG    1        3.711  -1.891  -0.043  0.00  0.00    -0.420 OA
BRANCH  23  25
ATOM     25  C   LIG    1        2.405   0.036  -0.020  0.00  0.00    -0.140 A 
ATOM     26  C   LIG    1        1.203  -0.680  -0.013  0.00  0.00    +0.090 A 
ATOM     27  C   LIG    1        0.002  -0.004   0.002  0.00  0.00    +0.040 A 
ATOM     28  C   LIG    1       -0.017   1.381   0.010  0.00  0.00    -0.060 A 
ATOM     29  C   LIG    1        1.169   2.097   0.002  0.00  0.00    +0.040 A 
ATOM     30 BR   LIG    1       -1.670   2.300   0.022  0.00  0.00    -0.040 Br
ATOM     31  C   LIG    1        2.378   1.434  -0.013  0.00  0.00    +0.090 A 
ENDBRANCH  23  25
ENDBRANCH   5  23
TORSDOF 2
