REMARK  Name = ZINCkj00000GePWx.0
REMARK                            x       y       z     vdW  Elec       q    Type
REMARK                         _______ _______ _______ _____ _____    ______ ____
ROOT
ATOM      1  C   LIG    1        2.095  -3.078  -2.149  0.00  0.00    +0.520 C 
ATOM      2  N   LIG    1        1.087  -2.652  -1.363  0.00  0.00    -0.600 N 
ATOM      3  O   LIG    1        1.894  -3.308  -3.323  0.00  0.00    -0.500 OA
ENDROOT
BRANCH   1   7
ATOM      4  C   LIG    1        6.897  -3.813  -3.243  0.00  0.00    +0.090 C 
ATOM      5  C   LIG    1        5.876  -3.676  -2.112  0.00  0.00    +0.170 C 
ATOM      6  C   LIG    1        4.492  -3.404  -2.705  0.00  0.00    +0.100 C 
ATOM      7  C   LIG    1        3.473  -3.268  -1.570  0.00  0.00    -0.020 C 
ATOM      8  C   LIG    1        3.500  -4.541  -0.718  0.00  0.00    +0.070 C 
ATOM      9  C   LIG    1        4.920  -4.771  -0.198  0.00  0.00    +0.270 C 
ATOM     10  N   LIG    1        5.842  -4.919  -1.331  0.00  0.00    -0.510 N 
ATOM     11  H   LIG    1        6.768  -5.124  -0.986  0.00  0.00    +0.430 HD
ATOM     12  H   LIG    1        5.530  -5.677  -1.920  0.00  0.00    +0.430 HD
ENDBRANCH   1   7
BRANCH   2  13
ATOM     13  C   LIG    1        1.347  -2.295   0.034  0.00  0.00    +0.320 C 
BRANCH  13  14
ATOM     14  C   LIG    1        1.554  -0.806   0.142  0.00  0.00    -0.120 A 
ATOM     15  C   LIG    1        0.466   0.033   0.296  0.00  0.00    +0.020 A 
ATOM     16  C   LIG    1        0.656   1.399   0.395  0.00  0.00    +0.020 A 
ATOM     17  C   LIG    1        1.933   1.925   0.340  0.00  0.00    +0.020 A 
ATOM     18  C   LIG    1        3.020   1.086   0.186  0.00  0.00    +0.000 A 
ATOM     19  C   LIG    1        2.831  -0.280   0.087  0.00  0.00    +0.000 A 
ENDBRANCH  13  14
ENDBRANCH   2  13
BRANCH   2  20
ATOM     20  C   LIG    1       -0.270  -2.546  -1.905  0.00  0.00    +0.310 C 
BRANCH  20  21
ATOM     21  C   LIG    1       -0.433  -1.198  -2.611  0.00  0.00    +0.150 C 
BRANCH  21  22
ATOM     22  O   LIG    1        0.410  -1.159  -3.764  0.00  0.00    -0.550 OA
ATOM     23  H   LIG    1        0.357  -0.332  -4.262  0.00  0.00    +0.380 HD
ENDBRANCH  21  22
ENDBRANCH  20  21
ENDBRANCH   2  20
TORSDOF 6
