REMARK  Name = ZINCqH0000050KNU.0
REMARK                            x       y       z     vdW  Elec       q    Type
REMARK                         _______ _______ _______ _____ _____    ______ ____
ROOT
ATOM      1  N   LIG    1       -1.995   3.152   2.147  0.00  0.00    -0.740 N 
ATOM      2  H   LIG    1       -1.868   2.547   1.399  0.00  0.00    +0.400 HD
ATOM      3  C   LIG    1       -1.511   2.829   3.363  0.00  0.00    +0.700 C 
ATOM      4  N   LIG    1       -0.853   1.667   3.540  0.00  0.00    -0.690 N 
ATOM      5  H   LIG    1       -0.784   1.032   2.810  0.00  0.00    +0.410 HD
ATOM      6  O   LIG    1       -1.670   3.587   4.300  0.00  0.00    -0.570 OA
ENDROOT
BRANCH   4   7
ATOM      7  C   LIG    1       -0.267   1.376   4.778  0.00  0.00    +0.160 A 
ATOM      8  C   LIG    1        0.926   0.666   4.832  0.00  0.00    +0.010 A 
ATOM      9  C   LIG    1        1.510   0.380   6.052  0.00  0.00    +0.040 A 
ATOM     10  C   LIG    1        0.908   0.789   7.224  0.00  0.00    +0.060 A 
ATOM     11  C   LIG    1       -0.294   1.499   7.180  0.00  0.00    -0.020 A 
ATOM     12  C   LIG    1       -0.881   1.792   5.949  0.00  0.00    +0.070 A 
BRANCH  11  13
ATOM     13  C   LIG    1       -0.942   1.938   8.434  0.00  0.00    +0.230 A 
ATOM     14  N   LIG    1       -0.503   1.732   9.663  0.00  0.00    -0.470 NA
ATOM     15  C   LIG    1       -1.409   2.305  10.470  0.00  0.00    +0.210 A 
ATOM     16  N   LIG    1       -2.336   2.821   9.717  0.00  0.00    -0.380 NA
ATOM     17  O   LIG    1       -2.087   2.627   8.545  0.00  0.00    +0.090 OA
BRANCH  15  18
ATOM     18  C   LIG    1       -1.363   2.344  11.975  0.00  0.00    +0.060 C 
ATOM     19  C   LIG    1       -2.598   2.872  12.707  0.00  0.00    +0.050 C 
ATOM     20  C   LIG    1       -1.326   3.719  12.646  0.00  0.00    +0.050 C 
ENDBRANCH  15  18
ENDBRANCH  11  13
ENDBRANCH   4   7
BRANCH   1  21
ATOM     21  C   LIG    1       -2.711   4.415   1.954  0.00  0.00    +0.290 C 
BRANCH  21  22
ATOM     22  C   LIG    1       -3.150   4.535   0.493  0.00  0.00    +0.130 C 
BRANCH  22  26
ATOM     23  C   LIG    1       -6.682   7.881   1.471  0.00  0.00    +0.180 C 
ATOM     24  C   LIG    1       -5.481   7.317   0.756  0.00  0.00    +0.050 A 
ATOM     25  N   LIG    1       -4.934   6.178   1.018  0.00  0.00    -0.470 NA
ATOM     26  C   LIG    1       -3.887   5.835   0.295  0.00  0.00    +0.070 A 
ATOM     27  C   LIG    1       -3.528   6.736  -0.624  0.00  0.00    -0.080 A 
ATOM     28  S   LIG    1       -4.647   8.093  -0.518  0.00  0.00    +0.130 S 
ENDBRANCH  22  26
ENDBRANCH  21  22
ENDBRANCH   1  21
TORSDOF 6
