REMARK  Name = ZINCpk00000ebnPB.0
REMARK                            x       y       z     vdW  Elec       q    Type
REMARK                         _______ _______ _______ _____ _____    ______ ____
ROOT
ATOM      1  S   LIG    1        2.672   4.063  -0.003  0.00  0.00    +2.690 S 
ATOM      2  O   LIG    1        3.658   3.188   0.528  0.00  0.00    -0.940 OA
ATOM      3  O   LIG    1        2.387   5.340   0.551  0.00  0.00    -0.950 OA
ENDROOT
BRANCH   1   7
ATOM      4  C   LIG    1       -1.230   1.759   0.017  0.00  0.00    -0.080 A 
ATOM      5  C   LIG    1       -0.013   1.076   0.008  0.00  0.00    +0.070 A 
ATOM      6  C   LIG    1        1.172   1.783   0.000  0.00  0.00    +0.120 A 
ATOM      7  C   LIG    1        1.155   3.167   0.008  0.00  0.00    -0.660 A 
ATOM      8  C   LIG    1       -0.048   3.850   0.022  0.00  0.00    +0.120 A 
ATOM      9  C   LIG    1       -1.240   3.154   0.031  0.00  0.00    +0.030 A 
BRANCH   4  13
ATOM     10  N   LIG    1       -3.677   1.669   0.028  0.00  0.00    -0.850 N 
ATOM     11  H   LIG    1       -4.512   1.176   0.029  0.00  0.00    +0.410 HD
ATOM     12  H   LIG    1       -3.686   2.639   0.034  0.00  0.00    +0.400 HD
ATOM     13  C   LIG    1       -2.503   1.007   0.019  0.00  0.00    +0.560 C 
ATOM     14  O   LIG    1       -2.491  -0.208   0.012  0.00  0.00    -0.530 OA
ENDBRANCH   4  13
ENDBRANCH   1   7
BRANCH   1  15
ATOM     15  N   LIG    1        3.079   4.320  -1.587  0.00  0.00    -1.000 NA
ATOM     16  C   LIG    1        3.911   3.353  -2.320  0.00  0.00    +0.310 C 
ATOM     17  C   LIG    1        3.199   3.005  -3.637  0.00  0.00    +0.190 C 
ATOM     18  N   LIG    1        2.898   4.244  -4.367  0.00  0.00    -0.480 N 
ATOM     19  C   LIG    1        1.966   5.093  -3.614  0.00  0.00    +0.180 C 
ATOM     20  C   LIG    1        2.622   5.524  -2.298  0.00  0.00    +0.310 C 
BRANCH  18  21
ATOM     21  C   LIG    1        2.402   3.965  -5.644  0.00  0.00    +0.100 A 
ATOM     22  C   LIG    1        1.172   4.474  -6.038  0.00  0.00    +0.000 A 
ATOM     23  C   LIG    1        0.686   4.201  -7.302  0.00  0.00    +0.010 A 
ATOM     24  C   LIG    1        1.420   3.411  -8.172  0.00  0.00    +0.070 A 
ATOM     25  C   LIG    1        2.644   2.898  -7.779  0.00  0.00    +0.010 A 
ATOM     26  F   LIG    1        0.940   3.142  -9.406  0.00  0.00    -0.140 F 
ATOM     27  C   LIG    1        3.136   3.173  -6.518  0.00  0.00    +0.030 A 
ENDBRANCH  18  21
ENDBRANCH   1  15
TORSDOF 4
