REMARK  Name = ZINCvU0000000DSk.0
REMARK                            x       y       z     vdW  Elec       q    Type
REMARK                         _______ _______ _______ _____ _____    ______ ____
ROOT
ATOM      1  C   LIG    1        2.360   2.400  -1.931  0.00  0.00    +0.190 C 
ATOM      2  C   LIG    1        2.110   0.934  -1.689  0.00  0.00    +0.150 A 
ATOM      3  N   LIG    1        1.104   0.242  -2.132  0.00  0.00    -0.270 NA
ATOM      4  O   LIG    1        1.217  -1.097  -1.697  0.00  0.00    -0.080 OA
ATOM      5  C   LIG    1        2.337  -1.235  -0.957  0.00  0.00    +0.310 A 
ATOM      6  N   LIG    1        2.884  -2.265  -0.334  0.00  0.00    -0.460 NA
ATOM      7  C   LIG    1        4.015  -2.152   0.345  0.00  0.00    +0.250 A 
ATOM      8  C   LIG    1        4.690  -0.933   0.438  0.00  0.00    -0.010 A 
ATOM      9  C   LIG    1        4.160   0.185  -0.199  0.00  0.00    +0.010 A 
ATOM     10  C   LIG    1        2.954   0.028  -0.913  0.00  0.00    -0.210 A 
ENDROOT
BRANCH   7  11
ATOM     11  C   LIG    1        4.577  -3.345   1.023  0.00  0.00    -0.060 A 
ATOM     12  C   LIG    1        5.770  -3.248   1.738  0.00  0.00    +0.080 A 
ATOM     13  C   LIG    1        6.286  -4.361   2.369  0.00  0.00    +0.030 A 
ATOM     14  C   LIG    1        5.627  -5.574   2.286  0.00  0.00    +0.090 A 
ATOM     15  C   LIG    1        4.445  -5.678   1.574  0.00  0.00    -0.190 A 
ATOM     16  C   LIG    1        3.917  -4.571   0.942  0.00  0.00    +0.130 A 
BRANCH  15  17
ATOM     17  C   LIG    1        3.734  -7.004   1.488  0.00  0.00    +0.510 C 
ATOM     18  F   LIG    1        2.357  -6.787   1.365  0.00  0.00    -0.170 F 
ATOM     19  F   LIG    1        3.987  -7.745   2.647  0.00  0.00    -0.180 F 
ATOM     20  F   LIG    1        4.196  -7.710   0.372  0.00  0.00    -0.170 F 
ENDBRANCH  15  17
ENDBRANCH   7  11
BRANCH   9  21
ATOM     21  C   LIG    1        4.839   1.498  -0.130  0.00  0.00    +0.560 C 
ATOM     22  N   LIG    1        5.137   2.040   1.068  0.00  0.00    -0.590 N 
ATOM     23  C   LIG    1        4.875   1.288   2.298  0.00  0.00    +0.290 C 
ATOM     24  O   LIG    1        5.129   2.087  -1.152  0.00  0.00    -0.500 OA
BRANCH  22  25
ATOM     25  C   LIG    1        5.723   3.381   1.139  0.00  0.00    +0.230 C 
ATOM     26  C   LIG    1        6.946   3.453   0.223  0.00  0.00    +0.020 C 
ATOM     27  C   LIG    1        7.981   2.419   0.671  0.00  0.00    +0.000 C 
ATOM     28  C   LIG    1        8.405   2.714   2.111  0.00  0.00    +0.000 C 
ATOM     29  C   LIG    1        7.183   2.642   3.028  0.00  0.00    -0.020 C 
ATOM     30  C   LIG    1        7.607   2.937   4.468  0.00  0.00    +0.010 C 
ATOM     31  C   LIG    1        6.148   3.676   2.580  0.00  0.00    +0.030 C 
ENDBRANCH  22  25
ENDBRANCH   9  21
TORSDOF 4
