REMARK  Name = ZINCtV000002rTe5.0
REMARK                            x       y       z     vdW  Elec       q    Type
REMARK                         _______ _______ _______ _____ _____    ______ ____
ROOT
ATOM      1  C   LIG    1       -2.449   1.121   0.020  0.00  0.00    +0.320 C 
ENDROOT
BRANCH   1   2
ATOM      2  C   LIG    1       -2.824   0.765  -1.396  0.00  0.00    -0.090 A 
ATOM      3  C   LIG    1       -2.284   1.473  -2.453  0.00  0.00    +0.040 A 
ATOM      4  C   LIG    1       -2.624   1.144  -3.752  0.00  0.00    +0.020 A 
ATOM      5  C   LIG    1       -3.513   0.113  -3.994  0.00  0.00    +0.030 A 
ATOM      6  C   LIG    1       -4.058  -0.592  -2.937  0.00  0.00    +0.030 A 
ATOM      7  C   LIG    1       -3.714  -0.266  -1.638  0.00  0.00    -0.020 A 
ATOM      8 CL   LIG    1       -4.399  -1.151  -0.310  0.00  0.00    -0.060 Cl
ENDBRANCH   1   2
BRANCH   1   9
ATOM      9  N   LIG    1       -1.191   1.871   0.018  0.00  0.00    -0.710 N 
ATOM     10  H   LIG    1       -1.204   2.841   0.023  0.00  0.00    +0.400 HD
ATOM     11  C   LIG    1       -0.014   1.213   0.009  0.00  0.00    +0.590 C 
ATOM     12  O   LIG    1        0.002  -0.004   0.002  0.00  0.00    -0.490 OA
BRANCH  11  13
ATOM     13  C   LIG    1        1.246   1.964   0.001  0.00  0.00    -0.230 A 
ATOM     14  C   LIG    1        2.464   1.407  -0.014  0.00  0.00    +0.040 A 
ATOM     15  C   LIG    1        3.542   2.309  -0.020  0.00  0.00    -0.100 A 
ATOM     16  C   LIG    1        4.929   2.032  -0.035  0.00  0.00    +0.120 A 
ATOM     17  C   LIG    1        5.835   3.045  -0.039  0.00  0.00    +0.000 A 
ATOM     18  C   LIG    1        5.417   4.372  -0.029  0.00  0.00    +0.140 A 
ATOM     19  C   LIG    1        4.073   4.672  -0.015  0.00  0.00    +0.020 A 
ATOM     20  F   LIG    1        6.330   5.368  -0.033  0.00  0.00    -0.130 F 
ATOM     21  C   LIG    1        3.124   3.646  -0.010  0.00  0.00    -0.100 A 
ATOM     22 CL   LIG    1        2.696  -0.313  -0.025  0.00  0.00    -0.000 Cl
ATOM     23  S   LIG    1        1.365   3.714   0.001  0.00  0.00    +0.170 S 
ENDBRANCH  11  13
ENDBRANCH   1   9
BRANCH   1  24
ATOM     24  C   LIG    1       -3.554   1.980   0.639  0.00  0.00    +0.130 C 
BRANCH  24  25
ATOM     25  C   LIG    1       -3.238   2.233   2.091  0.00  0.00    +0.460 C 
ATOM     26  O   LIG    1       -2.233   1.774   2.580  0.00  0.00    -0.490 OA
BRANCH  25  27
ATOM     27  O   LIG    1       -4.074   2.969   2.841  0.00  0.00    -0.350 OA
BRANCH  27  29
ATOM     28  C   LIG    1       -2.854   4.436   4.354  0.00  0.00    +0.040 C 
ATOM     29  C   LIG    1       -3.706   3.172   4.231  0.00  0.00    +0.170 C 
ATOM     30  C   LIG    1       -4.973   3.326   5.076  0.00  0.00    +0.070 C 
ENDBRANCH  27  29
ENDBRANCH  25  27
ENDBRANCH  24  25
ENDBRANCH   1  24
TORSDOF 7
