REMARK  Name = ZINCpk00000y6yDi.0
REMARK                            x       y       z     vdW  Elec       q    Type
REMARK                         _______ _______ _______ _____ _____    ______ ____
ROOT
ATOM      1  C   LIG    1       -1.353  -0.563  -0.142  0.00  0.00    +0.190 C 
ATOM      2  C   LIG    1       -2.197  -0.276   1.119  0.00  0.00    +0.150 C 
ATOM      3  N   LIG    1       -3.026  -1.497   1.298  0.00  0.00    -0.500 NA
ATOM      4  C   LIG    1       -2.109  -2.616   0.960  0.00  0.00    +0.160 C 
ATOM      5  C   LIG    1       -1.296  -2.101  -0.247  0.00  0.00    +0.000 C 
ATOM      6  C   LIG    1       -1.934  -2.568  -1.556  0.00  0.00    +0.040 C 
ENDROOT
BRANCH   1  12
ATOM      7  C   LIG    1        2.979   3.613   1.764  0.00  0.00    +0.090 C 
ATOM      8  C   LIG    1        2.850   2.128   1.988  0.00  0.00    +0.510 C 
ATOM      9  N   LIG    1        2.151   1.374   1.116  0.00  0.00    -0.620 N 
ATOM     10  C   LIG    1        1.406   1.994   0.010  0.00  0.00    +0.290 C 
ATOM     11  C   LIG    1       -0.030   1.458   0.030  0.00  0.00    +0.170 C 
ATOM     12  N   LIG    1       -0.001  -0.011   0.013  0.00  0.00    -0.520 NA
ATOM     13  C   LIG    1        0.651  -0.545   1.217  0.00  0.00    +0.160 C 
ATOM     14  C   LIG    1        2.114  -0.090   1.246  0.00  0.00    +0.300 C 
ATOM     15  O   LIG    1        3.376   1.612   2.951  0.00  0.00    -0.550 OA
ENDBRANCH   1  12
BRANCH   3  16
ATOM     16  C   LIG    1       -3.506  -1.609   2.682  0.00  0.00    +0.260 C 
ATOM     17  C   LIG    1       -4.448  -0.444   2.992  0.00  0.00    +0.080 C 
BRANCH  16  18
ATOM     18  C   LIG    1       -4.244  -2.912   2.854  0.00  0.00    +0.190 A 
ATOM     19  N   LIG    1       -4.119  -3.755   3.850  0.00  0.00    -0.480 NA
ATOM     20  C   LIG    1       -4.966  -4.764   3.580  0.00  0.00    +0.200 A 
ATOM     21  N   LIG    1       -5.553  -4.488   2.453  0.00  0.00    -0.380 NA
ATOM     22  O   LIG    1       -5.156  -3.425   2.023  0.00  0.00    +0.100 OA
BRANCH  20  23
ATOM     23  C   LIG    1       -5.194  -5.989   4.426  0.00  0.00    +0.060 C 
ATOM     24  C   LIG    1       -6.053  -7.108   3.834  0.00  0.00    +0.050 C 
ATOM     25  C   LIG    1       -6.609  -6.230   4.956  0.00  0.00    +0.050 C 
ENDBRANCH  20  23
ENDBRANCH  16  18
ENDBRANCH   3  16
TORSDOF 4
