REMARK  Name = ZINCvU0000000Fcd.0
REMARK                            x       y       z     vdW  Elec       q    Type
REMARK                         _______ _______ _______ _____ _____    ______ ____
ROOT
ATOM      1  C   LIG    1        2.284  -8.297  -0.061  0.00  0.00    +0.580 C 
ATOM      2  N   LIG    1        1.518  -9.406  -0.058  0.00  0.00    -0.460 N 
ATOM      3  N   LIG    1        0.125  -9.428  -0.038  0.00  0.00    -0.230 NA
ATOM      4  C   LIG    1       -0.384 -10.615  -0.043  0.00  0.00    +0.180 C 
ATOM      5  C   LIG    1        0.729 -11.639  -0.060  0.00  0.00    +0.100 C 
ATOM      6  C   LIG    1        2.015 -10.790  -0.070  0.00  0.00    +0.310 C 
ATOM      7  O   LIG    1        3.493  -8.396  -0.074  0.00  0.00    -0.490 OA
ENDROOT
BRANCH   4   8
ATOM      8  C   LIG    1       -1.817 -10.922  -0.029  0.00  0.00    -0.160 A 
ATOM      9  C   LIG    1       -2.821 -10.000  -0.013  0.00  0.00    +0.070 A 
ATOM     10  C   LIG    1       -4.089 -10.539  -0.002  0.00  0.00    +0.010 A 
ATOM     11  C   LIG    1       -4.140 -11.875  -0.008  0.00  0.00    -0.030 A 
ATOM     12  S   LIG    1       -2.512 -12.538  -0.036  0.00  0.00    +0.160 S 
ENDBRANCH   4   8
BRANCH   6  13
ATOM     13  C   LIG    1        2.818 -11.054  -1.318  0.00  0.00    -0.200 A 
ATOM     14  C   LIG    1        3.933 -11.785  -1.375  0.00  0.00    +0.030 A 
ATOM     15  C   LIG    1        4.497 -11.891  -2.634  0.00  0.00    +0.000 A 
ATOM     16  C   LIG    1        3.846 -11.239  -3.599  0.00  0.00    -0.030 A 
ATOM     17  S   LIG    1        2.434 -10.440  -2.920  0.00  0.00    +0.110 S 
ENDBRANCH   6  13
BRANCH   1  18
ATOM     18  C   LIG    1        1.639  -6.935  -0.048  0.00  0.00    +0.130 C 
BRANCH  18  19
ATOM     19  S   LIG    1        2.924  -5.660  -0.055  0.00  0.00    +0.150 S 
BRANCH  19  23
ATOM     20  C   LIG    1        1.250  -2.160  -0.021  0.00  0.00    +0.220 A 
ATOM     21  N   LIG    1        0.209  -2.955  -0.009  0.00  0.00    -0.260 NA
ATOM     22  N   LIG    1        0.605  -4.179  -0.024  0.00  0.00    -0.290 NA
ATOM     23  C   LIG    1        1.918  -4.213  -0.037  0.00  0.00    +0.120 A 
ATOM     24  O   LIG    1        2.354  -2.939  -0.036  0.00  0.00    -0.200 OA
BRANCH  20  31
ATOM     25  C   LIG    1       -1.292  -0.777   0.011  0.00  0.00    +0.110 C 
ATOM     26  C   LIG    1        0.002  -0.004   0.002  0.00  0.00    -0.030 A 
ATOM     27  C   LIG    1       -0.017   1.375   0.010  0.00  0.00    +0.020 A 
ATOM     28  C   LIG    1        1.170   2.086   0.002  0.00  0.00    +0.040 A 
ATOM     29  C   LIG    1        2.383   1.421  -0.013  0.00  0.00    +0.000 A 
ATOM     30  C   LIG    1        2.416   0.041  -0.021  0.00  0.00    +0.050 A 
ATOM     31  C   LIG    1        1.222  -0.682  -0.013  0.00  0.00    -0.040 A 
ENDBRANCH  20  31
ENDBRANCH  19  23
ENDBRANCH  18  19
ENDBRANCH   1  18
TORSDOF 6
