REMARK  Name = ZINCpe00000MJL6k.0
REMARK                            x       y       z     vdW  Elec       q    Type
REMARK                         _______ _______ _______ _____ _____    ______ ____
ROOT
ATOM      1  C   LIG    1        2.369  -0.158   0.676  0.00  0.00    +0.320 C 
ATOM      2  C   LIG    1        2.216   1.308   1.084  0.00  0.00    -0.020 C 
ATOM      3  C   LIG    1        1.414   2.038  -0.001  0.00  0.00    +0.040 C 
ATOM      4  C   LIG    1       -0.018   1.498   0.010  0.00  0.00    +0.070 C 
ATOM      5  C   LIG    1        0.002  -0.004   0.002  0.00  0.00    +0.520 C 
ATOM      6  O   LIG    1       -1.012  -0.590  -0.314  0.00  0.00    -0.550 OA
ATOM      7  N   LIG    1        1.075  -0.728   0.323  0.00  0.00    -0.600 N 
ATOM      8  C   LIG    1        0.945  -2.187   0.322  0.00  0.00    +0.280 C 
ENDROOT
BRANCH   1  12
ATOM      9  C   LIG    1        5.618  -2.530   3.666  0.00  0.00    +0.360 C 
ATOM     10  N   LIG    1        4.380  -1.966   3.122  0.00  0.00    -0.370 N 
ATOM     11  C   LIG    1        4.261  -1.280   1.966  0.00  0.00    +0.260 A 
ATOM     12  C   LIG    1        2.960  -0.935   1.824  0.00  0.00    -0.260 A 
ATOM     13  C   LIG    1        2.262  -1.421   2.934  0.00  0.00    +0.250 A 
ATOM     14  N   LIG    1        3.111  -2.045   3.710  0.00  0.00    -0.290 NA
ENDBRANCH   1  12
BRANCH   2  15
ATOM     15  C   LIG    1        3.597   1.951   1.220  0.00  0.00    +0.300 C 
BRANCH  15  16
ATOM     16  N   LIG    1        3.452   3.318   1.726  0.00  0.00    -0.690 N 
ATOM     17  H   LIG    1        2.570   3.674   1.917  0.00  0.00    +0.420 HD
BRANCH  16  18
ATOM     18  C   LIG    1        4.579   4.106   1.933  0.00  0.00    +0.420 A 
ATOM     19  N   LIG    1        5.769   3.615   1.678  0.00  0.00    -0.340 NA
ATOM     20  N   LIG    1        6.913   4.392   1.873  0.00  0.00    -0.270 N 
ATOM     21  C   LIG    1        8.234   4.172   1.701  0.00  0.00    +0.410 A 
ATOM     22  N   LIG    1        8.869   5.263   2.052  0.00  0.00    -0.270 NA
ATOM     23  N   LIG    1        8.029   6.160   2.436  0.00  0.00    -0.250 NA
ATOM     24  C   LIG    1        6.801   5.675   2.347  0.00  0.00    +0.120 A 
ATOM     25  C   LIG    1        5.524   6.199   2.626  0.00  0.00    +0.190 A 
ATOM     26  C   LIG    1        4.430   5.420   2.419  0.00  0.00    -0.020 A 
ENDBRANCH  16  18
ENDBRANCH  15  16
ENDBRANCH   2  15
TORSDOF 4
