REMARK  Name = ZINCpe00000gLWeT.0
REMARK                            x       y       z     vdW  Elec       q    Type
REMARK                         _______ _______ _______ _____ _____    ______ ____
ROOT
ATOM      1  C   LIG    1       -3.591   2.599   3.133  0.00  0.00    +0.420 C 
ATOM      2  O   LIG    1       -3.714   2.965   4.284  0.00  0.00    -0.420 OA
ENDROOT
BRANCH   1   7
ATOM      3  C   LIG    1       -0.117   1.842   2.465  0.00  0.00    -0.220 A 
ATOM      4  C   LIG    1       -0.718   1.572   1.248  0.00  0.00    +0.140 A 
ATOM      5  N   LIG    1       -2.032   1.820   1.354  0.00  0.00    -0.520 N 
ATOM      6  H   LIG    1       -2.682   1.714   0.642  0.00  0.00    +0.430 HD
ATOM      7  C   LIG    1       -2.313   2.245   2.636  0.00  0.00    -0.100 A 
ATOM      8  C   LIG    1       -0.013   1.086   0.008  0.00  0.00    +0.150 C 
ATOM      9  C   LIG    1       -1.132   2.270   3.346  0.00  0.00    +0.000 A 
ATOM     10  C   LIG    1       -0.959   2.677   4.787  0.00  0.00    +0.140 C 
BRANCH   3  11
ATOM     11  C   LIG    1        1.316   1.708   2.781  0.00  0.00    +0.550 C 
ATOM     12  O   LIG    1        2.066   2.649   2.612  0.00  0.00    -0.490 OA
BRANCH  11  13
ATOM     13  O   LIG    1        1.794   0.542   3.258  0.00  0.00    -0.350 OA
BRANCH  13  15
ATOM     14  C   LIG    1        3.570  -0.910   4.076  0.00  0.00    +0.070 C 
ATOM     15  C   LIG    1        3.215   0.481   3.548  0.00  0.00    +0.200 C 
ENDBRANCH  13  15
ENDBRANCH  11  13
ENDBRANCH   3  11
ENDBRANCH   1   7
BRANCH   1  16
ATOM     16  C   LIG    1       -4.797   2.521   2.234  0.00  0.00    +0.240 C 
BRANCH  16  17
ATOM     17  O   LIG    1       -5.978   2.932   2.972  0.00  0.00    -0.310 OA
BRANCH  17  18
ATOM     18  C   LIG    1       -7.151   2.919   2.307  0.00  0.00    +0.530 C 
ATOM     19  O   LIG    1       -7.186   2.574   1.141  0.00  0.00    -0.480 OA
BRANCH  18  20
ATOM     20  C   LIG    1       -8.385   3.321   2.988  0.00  0.00    +0.080 C 
ATOM     21  N   LIG    1       -8.339   3.683   4.234  0.00  0.00    -0.150 NA
ATOM     22  N   LIG    1       -9.495   4.076   4.915  0.00  0.00    -0.560 N 
ATOM     23  H   LIG    1       -9.422   4.600   5.728  0.00  0.00    +0.440 HD
ATOM     24  C   LIG    1      -10.711   3.725   4.452  0.00  0.00    +0.500 C 
ATOM     25  C   LIG    1      -10.824   2.915   3.185  0.00  0.00    +0.100 C 
ATOM     26  O   LIG    1      -11.710   4.059   5.051  0.00  0.00    -0.500 OA
ATOM     27  C   LIG    1       -9.689   3.304   2.236  0.00  0.00    +0.130 C 
ENDBRANCH  18  20
ENDBRANCH  17  18
ENDBRANCH  16  17
ENDBRANCH   1  16
TORSDOF 8
