REMARK  Name = ZINCrD000000ADhg.0
REMARK                            x       y       z     vdW  Elec       q    Type
REMARK                         _______ _______ _______ _____ _____    ______ ____
ROOT
ATOM      1  O   LIG    1        7.362   4.894  -0.680  0.00  0.00    -0.510 OA
ATOM      2  C   LIG    1        6.784   4.229  -1.513  0.00  0.00    +0.490 C 
ATOM      3  N   LIG    1        5.527   3.800  -1.281  0.00  0.00    -0.720 N 
ATOM      4  H   LIG    1        5.065   3.269  -1.948  0.00  0.00    +0.410 HD
ENDROOT
BRANCH   3   5
ATOM      5  C   LIG    1        4.860   4.138  -0.021  0.00  0.00    +0.300 C 
BRANCH   5   6
ATOM      6  C   LIG    1        3.454   3.534  -0.012  0.00  0.00    +0.210 C 
BRANCH   6   7
ATOM      7  O   LIG    1        3.548   2.108  -0.020  0.00  0.00    -0.310 OA
BRANCH   7   8
ATOM      8  C   LIG    1        2.380   1.412  -0.013  0.00  0.00    +0.090 A 
ATOM      9  C   LIG    1        1.170   2.087   0.002  0.00  0.00    -0.040 A 
ATOM     10  C   LIG    1       -0.017   1.378   0.010  0.00  0.00    +0.040 A 
ATOM     11  C   LIG    1        0.002  -0.004   0.002  0.00  0.00    +0.010 A 
ATOM     12  C   LIG    1        1.208  -0.682  -0.013  0.00  0.00    +0.020 A 
ATOM     13  C   LIG    1        2.397   0.023  -0.020  0.00  0.00    +0.070 A 
ATOM     14  F   LIG    1        3.575  -0.639  -0.035  0.00  0.00    -0.130 F 
ENDBRANCH   7   8
ENDBRANCH   6   7
ENDBRANCH   5   6
ENDBRANCH   3   5
BRANCH   2  15
ATOM     15  C   LIG    1        7.471   3.882  -2.809  0.00  0.00    +0.340 C 
BRANCH  15  16
ATOM     16  N   LIG    1        8.817   4.461  -2.818  0.00  0.00    -0.450 N 
ATOM     17  C   LIG    1        9.971   3.855  -2.361  0.00  0.00    +0.080 A 
ATOM     18  C   LIG    1       10.255   2.622  -1.792  0.00  0.00    +0.020 A 
ATOM     19  C   LIG    1       11.552   2.316  -1.437  0.00  0.00    +0.060 A 
ATOM     20  C   LIG    1       12.573   3.233  -1.645  0.00  0.00    +0.010 A 
ATOM     21  C   LIG    1       12.311   4.452  -2.205  0.00  0.00    +0.090 A 
ATOM     22  C   LIG    1       11.005   4.783  -2.572  0.00  0.00    +0.040 A 
ATOM     23  N   LIG    1       10.441   5.883  -3.135  0.00  0.00    -0.420 NA
ATOM     24  C   LIG    1        9.163   5.691  -3.284  0.00  0.00    +0.190 A 
BRANCH  24  25
ATOM     25  C   LIG    1        8.204   6.689  -3.880  0.00  0.00    +0.560 C 
ATOM     26  F   LIG    1        7.445   7.274  -2.861  0.00  0.00    -0.160 F 
ATOM     27  F   LIG    1        7.353   6.038  -4.780  0.00  0.00    -0.170 F 
ATOM     28  F   LIG    1        8.923   7.682  -4.554  0.00  0.00    -0.140 F 
ENDBRANCH  24  25
ENDBRANCH  15  16
ENDBRANCH   2  15
TORSDOF 7
