REMARK  Name = ZINCrH000004md8t.0
REMARK                            x       y       z     vdW  Elec       q    Type
REMARK                         _______ _______ _______ _____ _____    ______ ____
ROOT
ATOM      1  C   LIG    1        4.969   1.021  -0.015  0.00  0.00    +0.260 C 
ENDROOT
BRANCH   1   4
ATOM      2  N   LIG    1        7.357   1.552   0.346  0.00  0.00    -0.660 N 
ATOM      3  H   LIG    1        7.570   0.648   0.065  0.00  0.00    +0.420 HD
ATOM      4  C   LIG    1        6.072   1.947   0.429  0.00  0.00    +0.520 C 
ATOM      5  O   LIG    1        5.802   3.048   0.862  0.00  0.00    -0.510 OA
BRANCH   2   8
ATOM      6  C   LIG    1        9.237   4.245   2.010  0.00  0.00    +0.180 A 
ATOM      7  C   LIG    1        8.217   3.360   1.695  0.00  0.00    -0.040 A 
ATOM      8  C   LIG    1        8.386   2.445   0.665  0.00  0.00    +0.220 A 
ATOM      9  C   LIG    1        9.578   2.413  -0.046  0.00  0.00    -0.070 A 
ATOM     10  C   LIG    1       10.595   3.303   0.267  0.00  0.00    +0.180 A 
ATOM     11  C   LIG    1       10.425   4.216   1.296  0.00  0.00    -0.170 A 
BRANCH   6  13
ATOM     12  C   LIG    1       10.163   6.022   3.289  0.00  0.00    +0.250 C 
ATOM     13  O   LIG    1        9.071   5.140   3.019  0.00  0.00    -0.310 OA
ENDBRANCH   6  13
BRANCH  10  14
ATOM     14  O   LIG    1       11.760   3.276  -0.432  0.00  0.00    -0.310 OA
ATOM     15  C   LIG    1       12.766   4.217  -0.053  0.00  0.00    +0.250 C 
ENDBRANCH  10  14
ENDBRANCH   2   8
ENDBRANCH   1   4
BRANCH   1  16
ATOM     16  N   LIG    1        3.690   1.492   0.523  0.00  0.00    -0.710 N 
ATOM     17  H   LIG    1        3.573   2.429   0.747  0.00  0.00    +0.410 HD
ATOM     18  C   LIG    1        2.675   0.624   0.706  0.00  0.00    +0.570 C 
ATOM     19  O   LIG    1        2.821  -0.549   0.425  0.00  0.00    -0.520 OA
BRANCH  18  20
ATOM     20  C   LIG    1        1.385   1.099   1.248  0.00  0.00    -0.130 A 
ATOM     21  C   LIG    1        0.332   0.203   1.439  0.00  0.00    +0.110 A 
ATOM     22  C   LIG    1       -0.871   0.652   1.941  0.00  0.00    +0.020 A 
ATOM     23  C   LIG    1       -1.032   1.989   2.266  0.00  0.00    -0.010 A 
ATOM     24  C   LIG    1        0.009   2.884   2.079  0.00  0.00    +0.020 A 
ATOM     25 CL   LIG    1       -2.547   2.547   2.903  0.00  0.00    -0.060 Cl
ATOM     26  C   LIG    1        1.215   2.446   1.573  0.00  0.00    +0.070 A 
ENDBRANCH  18  20
ENDBRANCH   1  16
BRANCH   1  27
ATOM     27  C   LIG    1        4.903   1.002  -1.543  0.00  0.00    -0.010 C 
ATOM     28  C   LIG    1        4.522   2.393  -2.055  0.00  0.00    +0.030 C 
ATOM     29  C   LIG    1        3.853  -0.013  -1.996  0.00  0.00    +0.050 C 
ENDBRANCH   1  27
TORSDOF 7
