REMARK  Name = ZINCvU0000000Ffj.0
REMARK                            x       y       z     vdW  Elec       q    Type
REMARK                         _______ _______ _______ _____ _____    ______ ____
ROOT
ATOM      1  C   LIG    1       -2.522   3.870   0.046  0.00  0.00    +0.570 C 
ATOM      2  N   LIG    1       -3.683   3.185   0.053  0.00  0.00    -0.710 N 
ATOM      3  H   LIG    1       -3.673   2.215   0.048  0.00  0.00    +0.410 HD
ATOM      4  O   LIG    1       -2.534   5.085   0.053  0.00  0.00    -0.530 OA
ENDROOT
BRANCH   1   8
ATOM      5  C   LIG    1        1.177   1.782   0.000  0.00  0.00    -0.050 A 
ATOM      6  C   LIG    1       -0.013   1.076   0.008  0.00  0.00    +0.040 A 
ATOM      7  C   LIG    1       -1.217   1.748   0.017  0.00  0.00    +0.050 A 
ATOM      8  C   LIG    1       -1.234   3.143   0.030  0.00  0.00    -0.120 A 
ATOM      9  C   LIG    1       -0.031   3.850   0.023  0.00  0.00    +0.080 A 
ATOM     10  C   LIG    1        1.167   3.166   0.008  0.00  0.00    +0.040 A 
BRANCH   5  11
ATOM     11  C   LIG    1        2.489   1.042  -0.016  0.00  0.00    +0.120 C 
BRANCH  11  12
ATOM     12  S   LIG    1        2.998   0.754  -1.729  0.00  0.00    +0.030 S 
BRANCH  12  17
ATOM     13  C   LIG    1        7.398  -1.728  -2.986  0.00  0.00    +0.160 C 
ATOM     14  C   LIG    1        6.397  -1.164  -2.010  0.00  0.00    +0.080 A 
ATOM     15  C   LIG    1        6.552  -1.250  -0.688  0.00  0.00    -0.080 A 
ATOM     16  S   LIG    1        5.174  -0.465   0.077  0.00  0.00    +0.130 S 
ATOM     17  C   LIG    1        4.515  -0.101  -1.458  0.00  0.00    +0.010 A 
ATOM     18  N   LIG    1        5.297  -0.543  -2.395  0.00  0.00    -0.450 NA
ENDBRANCH  12  17
ENDBRANCH  11  12
ENDBRANCH   5  11
ENDBRANCH   1   8
BRANCH   2  19
ATOM     19  C   LIG    1       -4.958   3.905   0.069  0.00  0.00    +0.390 C 
BRANCH  19  20
ATOM     20  C   LIG    1       -6.023   3.027   0.674  0.00  0.00    -0.110 A 
ATOM     21  C   LIG    1       -6.063   1.679   0.369  0.00  0.00    +0.080 A 
ATOM     22  C   LIG    1       -7.036   0.872   0.928  0.00  0.00    -0.010 A 
ATOM     23  C   LIG    1       -7.978   1.416   1.785  0.00  0.00    +0.110 A 
ATOM     24  C   LIG    1       -7.940   2.768   2.085  0.00  0.00    -0.010 A 
ATOM     25  F   LIG    1       -8.932   0.629   2.328  0.00  0.00    -0.140 F 
ATOM     26  C   LIG    1       -6.963   3.571   1.529  0.00  0.00    +0.060 A 
ENDBRANCH  19  20
BRANCH  19  27
ATOM     27  C   LIG    1       -5.348   4.267  -1.341  0.00  0.00    +0.190 A 
ATOM     28  N   LIG    1       -5.288   3.473  -2.375  0.00  0.00    -0.470 NA
ATOM     29  C   LIG    1       -5.713   4.131  -3.464  0.00  0.00    +0.140 A 
ATOM     30  C   LIG    1       -6.047   5.381  -3.091  0.00  0.00    +0.130 A 
ATOM     31  N   LIG    1       -5.822   5.466  -1.744  0.00  0.00    -0.450 N 
ATOM     32  C   LIG    1       -6.048   6.640  -0.897  0.00  0.00    +0.320 C 
ENDBRANCH  19  27
ENDBRANCH   2  19
TORSDOF 7
