REMARK  Name = ZINCqH0000050S9y.0
REMARK                            x       y       z     vdW  Elec       q    Type
REMARK                         _______ _______ _______ _____ _____    ______ ____
ROOT
ATOM      1  C   LIG    1        9.382   6.022  -0.836  0.00  0.00    +0.210 C 
ATOM      2  C   LIG    1        9.664   5.415  -2.186  0.00  0.00    +0.150 A 
ATOM      3  N   LIG    1       10.632   5.738  -2.988  0.00  0.00    -0.270 NA
ATOM      4  O   LIG    1       10.566   4.947  -4.158  0.00  0.00    -0.070 OA
ATOM      5  C   LIG    1        9.517   4.105  -4.072  0.00  0.00    +0.300 A 
ATOM      6  N   LIG    1        9.031   3.180  -4.884  0.00  0.00    -0.450 NA
ATOM      7  C   LIG    1        7.969   2.467  -4.574  0.00  0.00    +0.240 A 
ATOM      8  C   LIG    1        7.301   2.641  -3.373  0.00  0.00    +0.020 A 
ATOM      9  C   LIG    1        7.758   3.605  -2.474  0.00  0.00    +0.010 A 
ATOM     10  C   LIG    1        8.897   4.352  -2.835  0.00  0.00    -0.210 A 
ENDROOT
BRANCH   7  11
ATOM     11  C   LIG    1        7.470   1.431  -5.548  0.00  0.00    +0.020 C 
ATOM     12  C   LIG    1        6.495   0.377  -5.020  0.00  0.00    +0.040 C 
ATOM     13  C   LIG    1        7.939  -0.011  -5.347  0.00  0.00    +0.060 C 
ENDBRANCH   7  11
BRANCH   9  14
ATOM     14  C   LIG    1        7.074   3.831  -1.182  0.00  0.00    +0.510 C 
ATOM     15  O   LIG    1        7.720   4.126  -0.197  0.00  0.00    -0.480 OA
BRANCH  14  16
ATOM     16  O   LIG    1        5.735   3.710  -1.099  0.00  0.00    -0.340 OA
BRANCH  16  17
ATOM     17  C   LIG    1        5.131   3.946   0.200  0.00  0.00    +0.260 C 
BRANCH  17  18
ATOM     18  C   LIG    1        3.615   3.764   0.098  0.00  0.00    +0.230 C 
BRANCH  18  19
ATOM     19  O   LIG    1        3.319   2.402  -0.214  0.00  0.00    -0.300 OA
BRANCH  19  20
ATOM     20  C   LIG    1        2.007   2.069  -0.341  0.00  0.00    +0.100 A 
ATOM     21  C   LIG    1        1.026   3.033  -0.167  0.00  0.00    -0.040 A 
ATOM     22  C   LIG    1       -0.307   2.692  -0.296  0.00  0.00    +0.040 A 
ATOM     23  C   LIG    1       -0.664   1.391  -0.598  0.00  0.00    +0.010 A 
ATOM     24  C   LIG    1        0.311   0.426  -0.771  0.00  0.00    +0.020 A 
ATOM     25  C   LIG    1        1.647   0.761  -0.644  0.00  0.00    +0.070 A 
ATOM     26  F   LIG    1        2.600  -0.181  -0.814  0.00  0.00    -0.130 F 
ENDBRANCH  19  20
ENDBRANCH  18  19
ENDBRANCH  17  18
ENDBRANCH  16  17
ENDBRANCH  14  16
ENDBRANCH   9  14
TORSDOF 7
