REMARK  Name = ZINCkj000005fV4D.1
REMARK                            x       y       z     vdW  Elec       q    Type
REMARK                         _______ _______ _______ _____ _____    ______ ____
ROOT
ATOM      1  S   LIG    1       -1.157   0.792  -6.240  0.00  0.00    +2.700 S 
ATOM      2  O   LIG    1       -2.433   0.251  -5.928  0.00  0.00    -0.930 OA
ATOM      3  O   LIG    1       -0.287   0.223  -7.209  0.00  0.00    -0.920 OA
ENDROOT
BRANCH   1   4
ATOM      4  C   LIG    1       -1.433   2.460  -6.738  0.00  0.00    -0.720 A 
ATOM      5  C   LIG    1       -0.516   3.111  -7.549  0.00  0.00    +0.210 A 
ATOM      6  C   LIG    1       -0.774   4.423  -7.916  0.00  0.00    +0.030 A 
ATOM      7  C   LIG    1       -1.929   5.034  -7.464  0.00  0.00    +0.100 A 
ATOM      8  N   LIG    1       -2.778   4.383  -6.693  0.00  0.00    -0.450 NA
ATOM      9  C   LIG    1       -2.568   3.134  -6.329  0.00  0.00    +0.390 A 
BRANCH   7  10
ATOM     10  C   LIG    1       -2.220   6.459  -7.857  0.00  0.00    +0.520 C 
ATOM     11  F   LIG    1       -1.015   7.147  -8.042  0.00  0.00    -0.160 F 
ATOM     12  F   LIG    1       -2.960   7.080  -6.845  0.00  0.00    -0.160 F 
ATOM     13  F   LIG    1       -2.954   6.474  -9.048  0.00  0.00    -0.160 F 
ENDBRANCH   7  10
ENDBRANCH   1   4
BRANCH   1  14
ATOM     14  N   LIG    1       -0.308   0.838  -4.819  0.00  0.00    -1.110 NA
ATOM     15  H   LIG    1        0.596   0.488  -4.783  0.00  0.00    +0.430 HD
BRANCH  14  16
ATOM     16  C   LIG    1       -0.922   1.408  -3.617  0.00  0.00    +0.290 C 
BRANCH  16  17
ATOM     17  C   LIG    1       -0.107   1.002  -2.388  0.00  0.00    +0.260 C 
BRANCH  17  18
ATOM     18  N   LIG    1       -0.723   1.572  -1.182  0.00  0.00    -0.390 N 
ATOM     19  C   LIG    1       -0.640   3.038  -1.237  0.00  0.00    +0.320 C 
ATOM     20  H   LIG    1       -1.691   1.292  -1.134  0.00  0.00    +0.430 HD
BRANCH  18  22
ATOM     21  C   LIG    1       -0.729   1.579   1.267  0.00  0.00    +0.080 C 
ATOM     22  C   LIG    1       -0.013   1.086   0.008  0.00  0.00    +0.250 C 
ENDBRANCH  18  22
ENDBRANCH  17  18
ENDBRANCH  16  17
ENDBRANCH  14  16
ENDBRANCH   1  14
TORSDOF 7
