REMARK  Name = ZINCkj000005fV4D.0
REMARK                            x       y       z     vdW  Elec       q    Type
REMARK                         _______ _______ _______ _____ _____    ______ ____
ROOT
ATOM      1  S   LIG    1       -0.020   1.652   0.011  0.00  0.00    +2.700 S 
ATOM      2  O   LIG    1       -0.558   2.039   1.268  0.00  0.00    -0.930 OA
ATOM      3  O   LIG    1       -0.582   2.052  -1.231  0.00  0.00    -0.930 OA
ENDROOT
BRANCH   1   4
ATOM      4  C   LIG    1        1.655   2.196  -0.002  0.00  0.00    -0.720 A 
ATOM      5  C   LIG    1        2.312   2.420  -1.202  0.00  0.00    +0.210 A 
ATOM      6  C   LIG    1        3.630   2.848  -1.165  0.00  0.00    +0.030 A 
ATOM      7  C   LIG    1        4.241   3.037   0.060  0.00  0.00    +0.100 A 
ATOM      8  N   LIG    1        3.586   2.814   1.183  0.00  0.00    -0.450 NA
ATOM      9  C   LIG    1        2.330   2.412   1.185  0.00  0.00    +0.390 A 
BRANCH   7  10
ATOM     10  C   LIG    1        5.674   3.502   0.114  0.00  0.00    +0.520 C 
ATOM     11  F   LIG    1        6.357   3.040  -1.017  0.00  0.00    -0.160 F 
ATOM     12  F   LIG    1        6.285   2.998   1.266  0.00  0.00    -0.160 F 
ATOM     13  F   LIG    1        5.709   4.900   0.140  0.00  0.00    -0.160 F 
ENDBRANCH   7  10
ENDBRANCH   1   4
BRANCH   1  14
ATOM     14  N   LIG    1        0.002  -0.004   0.002  0.00  0.00    -1.110 NA
ATOM     15  H   LIG    1       -0.354  -0.490  -0.759  0.00  0.00    +0.430 HD
BRANCH  14  16
ATOM     16  C   LIG    1        0.559  -0.735   1.143  0.00  0.00    +0.290 C 
BRANCH  16  17
ATOM     17  C   LIG    1        0.132  -2.203   1.066  0.00  0.00    +0.260 C 
BRANCH  17  18
ATOM     18  N   LIG    1        0.691  -2.936   2.209  0.00  0.00    -0.390 N 
ATOM     19  C   LIG    1        0.101  -2.425   3.454  0.00  0.00    +0.330 C 
ATOM     20  H   LIG    1        1.691  -2.809   2.234  0.00  0.00    +0.430 HD
BRANCH  18  22
ATOM     21  C   LIG    1        1.068  -5.145   3.196  0.00  0.00    +0.080 C 
ATOM     22  C   LIG    1        0.382  -4.365   2.072  0.00  0.00    +0.250 C 
ENDBRANCH  18  22
ENDBRANCH  17  18
ENDBRANCH  16  17
ENDBRANCH  14  16
ENDBRANCH   1  14
TORSDOF 7
