REMARK  Name = ZINCkj000005gJ3R.2
REMARK                            x       y       z     vdW  Elec       q    Type
REMARK                         _______ _______ _______ _____ _____    ______ ____
ROOT
ATOM      1  N   LIG    1        5.792  -1.115   1.911  0.00  0.00    -0.370 N 
ATOM      2  C   LIG    1        5.650  -1.630   3.280  0.00  0.00    +0.330 C 
ATOM      3  H   LIG    1        6.013  -1.877   1.287  0.00  0.00    +0.430 HD
ENDROOT
BRANCH   1   4
ATOM      4  C   LIG    1        6.872  -0.120   1.872  0.00  0.00    +0.230 C 
BRANCH   4   5
ATOM      5  C   LIG    1        8.189  -0.797   2.149  0.00  0.00    -0.090 A 
ATOM      6  C   LIG    1        8.470  -2.048   1.621  0.00  0.00    -0.050 A 
ATOM      7  C   LIG    1        9.690  -2.636   1.894  0.00  0.00    +0.300 A 
ATOM      8  N   LIG    1       10.578  -2.025   2.654  0.00  0.00    -0.460 NA
ATOM      9  C   LIG    1       10.344  -0.838   3.176  0.00  0.00    +0.290 A 
ATOM     10  C   LIG    1        9.148  -0.186   2.944  0.00  0.00    +0.010 A 
ENDBRANCH   4   5
BRANCH   4  12
ATOM     11  C   LIG    1        5.976   1.740   0.464  0.00  0.00    +0.050 C 
ATOM     12  C   LIG    1        6.915   0.531   0.488  0.00  0.00    +0.060 C 
ENDBRANCH   4  12
ENDBRANCH   1   4
BRANCH   1  13
ATOM     13  C   LIG    1        4.532  -0.488   1.491  0.00  0.00    +0.280 C 
BRANCH  13  14
ATOM     14  C   LIG    1        3.439  -1.525   1.464  0.00  0.00    +0.500 C 
ATOM     15  N   LIG    1        2.188  -1.176   1.104  0.00  0.00    -0.590 N 
ATOM     16  C   LIG    1        1.104  -2.171   1.071  0.00  0.00    +0.270 C 
ATOM     17  C   LIG    1        0.399  -2.071  -0.287  0.00  0.00    +0.220 C 
ATOM     18  O   LIG    1        0.021  -0.713  -0.523  0.00  0.00    -0.370 OA
ATOM     19  C   LIG    1        1.123   0.195  -0.606  0.00  0.00    +0.220 C 
ATOM     20  C   LIG    1        1.865   0.212   0.735  0.00  0.00    +0.250 C 
ATOM     21  O   LIG    1        3.685  -2.674   1.765  0.00  0.00    -0.530 OA
ENDBRANCH  13  14
ENDBRANCH   1  13
TORSDOF 5
