REMARK  Name = ZINCkj000005gJ3R.1
REMARK                            x       y       z     vdW  Elec       q    Type
REMARK                         _______ _______ _______ _____ _____    ______ ____
ROOT
ATOM      1  N   LIG    1       -0.479   6.363  -3.779  0.00  0.00    -0.370 N 
ATOM      2  C   LIG    1       -1.217   6.478  -5.044  0.00  0.00    +0.330 C 
ATOM      3  H   LIG    1        0.455   6.029  -3.963  0.00  0.00    +0.430 HD
ENDROOT
BRANCH   1   4
ATOM      4  C   LIG    1       -0.410   7.679  -3.130  0.00  0.00    +0.240 C 
BRANCH   4   5
ATOM      5  C   LIG    1       -1.801   8.137  -2.774  0.00  0.00    -0.100 A 
ATOM      6  C   LIG    1       -2.512   7.521  -1.755  0.00  0.00    -0.040 A 
ATOM      7  C   LIG    1       -3.783   7.971  -1.453  0.00  0.00    +0.290 A 
ATOM      8  N   LIG    1       -4.324   8.967  -2.128  0.00  0.00    -0.460 NA
ATOM      9  C   LIG    1       -3.679   9.573  -3.106  0.00  0.00    +0.290 A 
ATOM     10  C   LIG    1       -2.402   9.181  -3.460  0.00  0.00    +0.010 A 
ENDBRANCH   4   5
BRANCH   4  12
ATOM     11  C   LIG    1        1.881   7.247  -2.233  0.00  0.00    +0.050 C 
ATOM     12  C   LIG    1        0.435   7.577  -1.859  0.00  0.00    +0.060 C 
ENDBRANCH   4  12
ENDBRANCH   1   4
BRANCH   1  13
ATOM     13  C   LIG    1       -1.171   5.416  -2.893  0.00  0.00    +0.270 C 
BRANCH  13  14
ATOM     14  C   LIG    1       -1.083   4.029  -3.474  0.00  0.00    +0.510 C 
ATOM     15  N   LIG    1       -1.651   2.990  -2.829  0.00  0.00    -0.590 N 
ATOM     16  C   LIG    1       -1.578   1.627  -3.377  0.00  0.00    +0.270 C 
ATOM     17  C   LIG    1       -1.078   0.688  -2.272  0.00  0.00    +0.230 C 
ATOM     18  O   LIG    1       -1.885   0.861  -1.105  0.00  0.00    -0.370 OA
ATOM     19  C   LIG    1       -1.823   2.173  -0.539  0.00  0.00    +0.220 C 
ATOM     20  C   LIG    1       -2.361   3.187  -1.555  0.00  0.00    +0.250 C 
ATOM     21  O   LIG    1       -0.502   3.846  -4.523  0.00  0.00    -0.530 OA
ENDBRANCH  13  14
ENDBRANCH   1  13
TORSDOF 5
