REMARK  Name = ZINCqH0000037XDt.0
REMARK                            x       y       z     vdW  Elec       q    Type
REMARK                         _______ _______ _______ _____ _____    ______ ____
ROOT
ATOM      1  C   LIG    1       -3.821  -0.203   0.182  0.00  0.00    +0.560 C 
ATOM      2  N   LIG    1       -2.605   0.353   0.018  0.00  0.00    -0.720 N 
ATOM      3  H   LIG    1       -2.401   0.842  -0.795  0.00  0.00    +0.400 HD
ATOM      4  O   LIG    1       -4.077  -0.816   1.200  0.00  0.00    -0.530 OA
ENDROOT
BRANCH   1  11
ATOM      5  C   LIG    1       -6.319  -1.637   0.423  0.00  0.00    +0.120 C 
ATOM      6  C   LIG    1       -6.055  -0.757  -0.771  0.00  0.00    -0.020 A 
ATOM      7  C   LIG    1       -7.013  -0.628  -1.757  0.00  0.00    +0.000 A 
ATOM      8  C   LIG    1       -6.776   0.173  -2.858  0.00  0.00    +0.050 A 
ATOM      9  C   LIG    1       -5.569   0.861  -2.977  0.00  0.00    -0.060 A 
ATOM     10  C   LIG    1       -4.601   0.740  -1.985  0.00  0.00    +0.060 A 
ATOM     11  C   LIG    1       -4.845  -0.069  -0.877  0.00  0.00    -0.140 A 
BRANCH   9  12
ATOM     12  C   LIG    1       -5.317   1.720  -4.160  0.00  0.00    -0.040 A 
ATOM     13  C   LIG    1       -4.114   2.413  -4.278  0.00  0.00    +0.010 A 
ATOM     14  C   LIG    1       -3.883   3.208  -5.382  0.00  0.00    +0.000 A 
ATOM     15  C   LIG    1       -4.848   3.325  -6.367  0.00  0.00    +0.000 A 
ATOM     16  C   LIG    1       -6.046   2.643  -6.253  0.00  0.00    +0.010 A 
ATOM     17  C   LIG    1       -6.285   1.842  -5.155  0.00  0.00    +0.020 A 
ENDBRANCH   9  12
ENDBRANCH   1  11
BRANCH   2  18
ATOM     18  C   LIG    1       -1.591   0.220   1.067  0.00  0.00    +0.300 C 
BRANCH  18  19
ATOM     19  C   LIG    1       -0.311   0.937   0.633  0.00  0.00    +0.140 C 
ATOM     20  C   LIG    1        0.790   0.766   1.704  0.00  0.00    +0.010 C 
ATOM     21  C   LIG    1        1.520   2.130   1.715  0.00  0.00    +0.020 C 
ATOM     22  C   LIG    1        0.760   2.957   0.670  0.00  0.00    +0.070 C 
ATOM     23  C   LIG    1        1.498   2.966  -0.675  0.00  0.00    -0.000 C 
ATOM     24  C   LIG    1        1.770   4.467  -0.933  0.00  0.00    +0.210 C 
ATOM     25  O   LIG    1        1.750   5.078   0.376  0.00  0.00    -0.370 OA
ATOM     26  C   LIG    1        0.669   4.431   1.088  0.00  0.00    +0.230 C 
ATOM     27  O   LIG    1       -0.536   2.364   0.553  0.00  0.00    -0.350 OA
ENDBRANCH  18  19
ENDBRANCH   2  18
TORSDOF 4
