REMARK  Name = ZINCpe000000WspT.0
REMARK                            x       y       z     vdW  Elec       q    Type
REMARK                         _______ _______ _______ _____ _____    ______ ____
ROOT
ATOM      1  S   LIG    1        3.563  -0.586   1.164  0.00  0.00    +2.700 S 
ATOM      2  O   LIG    1        3.294  -1.872   1.705  0.00  0.00    -0.940 OA
ATOM      3  O   LIG    1        4.537   0.296   1.704  0.00  0.00    -0.950 OA
ENDROOT
BRANCH   1   4
ATOM      4  N   LIG    1        2.126   0.237   1.181  0.00  0.00    -0.990 NA
ATOM      5  C   LIG    1        0.848  -0.488   1.189  0.00  0.00    +0.300 C 
ATOM      6  C   LIG    1        0.002  -0.004   0.005  0.00  0.00    +0.300 C 
ATOM      7  N   LIG    1       -0.018   1.465   0.011  0.00  0.00    -0.630 N 
ATOM      8  C   LIG    1        1.260   2.191   0.003  0.00  0.00    +0.270 C 
ATOM      9  C   LIG    1       -1.187   2.135   0.019  0.00  0.00    +0.710 C 
ATOM     10  N   LIG    1       -1.193   3.479   0.128  0.00  0.00    -0.720 N 
ATOM     11  H   LIG    1       -0.356   3.969   0.127  0.00  0.00    +0.400 HD
ATOM     12  O   LIG    1       -2.237   1.528  -0.072  0.00  0.00    -0.580 OA
ATOM     13  C   LIG    1        2.106   1.707   1.187  0.00  0.00    +0.290 C 
BRANCH  10  14
ATOM     14  C   LIG    1       -2.464   4.198   0.249  0.00  0.00    +0.240 C 
ATOM     15  C   LIG    1       -2.635   5.473  -0.580  0.00  0.00    +0.000 C 
ATOM     16  C   LIG    1       -2.439   5.566   0.934  0.00  0.00    +0.020 C 
ENDBRANCH  10  14
ENDBRANCH   1   4
BRANCH   1  21
ATOM     17  C   LIG    1        5.475  -0.435  -2.371  0.00  0.00    +0.080 A 
ATOM     18  C   LIG    1        4.684  -1.237  -3.180  0.00  0.00    +0.030 A 
ATOM     19  C   LIG    1        3.553  -1.838  -2.662  0.00  0.00    -0.050 A 
ATOM     20  C   LIG    1        3.211  -1.644  -1.332  0.00  0.00    +0.190 A 
ATOM     21  C   LIG    1        4.000  -0.838  -0.524  0.00  0.00    -0.670 A 
ATOM     22  C   LIG    1        5.130  -0.236  -1.042  0.00  0.00    +0.140 A 
BRANCH  17  24
ATOM     23  C   LIG    1        6.883  -0.092  -4.256  0.00  0.00    +0.250 C 
ATOM     24  O   LIG    1        6.589   0.156  -2.880  0.00  0.00    -0.310 OA
ENDBRANCH  17  24
BRANCH  20  25
ATOM     25  O   LIG    1        2.101  -2.240  -0.821  0.00  0.00    -0.310 OA
ATOM     26  C   LIG    1        1.336  -3.057  -1.710  0.00  0.00    +0.250 C 
ENDBRANCH  20  25
ENDBRANCH   1  21
TORSDOF 5
