REMARK  Name = ZINCqH0000004YSy.0
REMARK                            x       y       z     vdW  Elec       q    Type
REMARK                         _______ _______ _______ _____ _____    ______ ____
ROOT
ATOM      1  C   LIG    1        1.124   3.363   0.009  0.00  0.00    +0.290 C 
ATOM      2  N   LIG    1        1.143   1.898   0.001  0.00  0.00    -0.600 N 
ATOM      3  C   LIG    1       -0.014   1.209   0.009  0.00  0.00    +0.520 C 
ATOM      4  O   LIG    1        0.002  -0.004   0.002  0.00  0.00    -0.530 OA
ENDROOT
BRANCH   2   5
ATOM      5  C   LIG    1        2.422   1.183  -0.015  0.00  0.00    +0.350 C 
ATOM      6  C   LIG    1        3.267   1.604   1.163  0.00  0.00    -0.100 A 
ATOM      7  C   LIG    1        3.067   1.518   2.524  0.00  0.00    +0.040 A 
ATOM      8  C   LIG    1        4.030   1.992   3.397  0.00  0.00    +0.020 A 
ATOM      9  C   LIG    1        5.195   2.554   2.907  0.00  0.00    +0.020 A 
ATOM     10  C   LIG    1        5.404   2.643   1.546  0.00  0.00    +0.020 A 
ATOM     11  C   LIG    1        4.437   2.167   0.659  0.00  0.00    -0.050 A 
ATOM     12  C   LIG    1        4.402   2.136  -0.824  0.00  0.00    -0.050 A 
ATOM     13  C   LIG    1        5.324   2.576  -1.775  0.00  0.00    +0.020 A 
ATOM     14  C   LIG    1        5.050   2.430  -3.119  0.00  0.00    +0.020 A 
ATOM     15  C   LIG    1        3.864   1.851  -3.530  0.00  0.00    +0.020 A 
ATOM     16  C   LIG    1        2.944   1.413  -2.593  0.00  0.00    +0.040 A 
ATOM     17  C   LIG    1        3.209   1.554  -1.247  0.00  0.00    -0.100 A 
ENDBRANCH   2   5
BRANCH   3  18
ATOM     18  C   LIG    1       -1.330   1.944   0.019  0.00  0.00    +0.000 C 
ATOM     19  C   LIG    1       -2.478   0.933   0.016  0.00  0.00    +0.050 C 
ATOM     20  C   LIG    1       -3.802   1.654  -0.269  0.00  0.00    +0.140 C 
ATOM     21  C   LIG    1       -3.911   2.829   0.672  0.00  0.00    +0.080 A 
ATOM     22  N   LIG    1       -4.970   3.521   0.979  0.00  0.00    -0.290 NA
ATOM     23  N   LIG    1       -4.592   4.514   1.894  0.00  0.00    -0.480 N 
ATOM     24  H   LIG    1       -5.180   5.175   2.294  0.00  0.00    +0.440 HD
ATOM     25  C   LIG    1       -3.265   4.390   2.122  0.00  0.00    +0.250 A 
ATOM     26  C   LIG    1       -2.820   3.360   1.379  0.00  0.00    -0.240 A 
ATOM     27  C   LIG    1       -1.415   2.820   1.276  0.00  0.00    +0.110 C 
ENDBRANCH   3  18
TORSDOF 2
