REMARK  Name = ZINCqH0000005aeI.0
REMARK                            x       y       z     vdW  Elec       q    Type
REMARK                         _______ _______ _______ _____ _____    ______ ____
ROOT
ATOM      1  C   LIG    1       -0.045   1.461   0.011  0.00  0.00    +0.280 C 
ATOM      2  N   LIG    1       -0.015  -0.004   0.002  0.00  0.00    -0.620 N 
ATOM      3  C   LIG    1        0.019  -0.684   1.165  0.00  0.00    +0.710 C 
ATOM      4  N   LIG    1        0.024  -0.017   2.336  0.00  0.00    -0.700 N 
ATOM      5  H   LIG    1        0.087   0.951   2.343  0.00  0.00    +0.410 HD
ATOM      6  O   LIG    1        0.044  -1.899   1.158  0.00  0.00    -0.550 OA
ENDROOT
BRANCH   4   7
ATOM      7  C   LIG    1       -0.060  -0.720   3.543  0.00  0.00    +0.260 A 
ATOM      8  C   LIG    1       -0.649  -1.977   3.576  0.00  0.00    +0.010 A 
ATOM      9  C   LIG    1       -0.730  -2.670   4.768  0.00  0.00    +0.090 A 
ATOM     10  C   LIG    1       -0.227  -2.111   5.929  0.00  0.00    -0.030 A 
ATOM     11  C   LIG    1        0.360  -0.859   5.900  0.00  0.00    +0.150 A 
ATOM     12  C   LIG    1        0.449  -0.165   4.710  0.00  0.00    -0.700 A 
BRANCH  12  13
ATOM     13  S   LIG    1        1.204   1.427   4.672  0.00  0.00    +2.500 S 
ATOM     14  O   LIG    1        1.574   1.671   6.022  0.00  0.00    -0.930 OA
ATOM     15  O   LIG    1        0.252   2.251   4.013  0.00  0.00    -0.940 OA
ATOM     16  C   LIG    1        2.678   1.206   3.638  0.00  0.00    -0.250 C 
ENDBRANCH  12  13
ENDBRANCH   4   7
BRANCH   2  17
ATOM     17  C   LIG    1       -0.021  -0.729  -1.271  0.00  0.00    +0.310 C 
BRANCH  17  18
ATOM     18  C   LIG    1        1.419  -0.951  -1.738  0.00  0.00    -0.070 C 
ATOM     19  C   LIG    1        2.175  -1.769  -0.688  0.00  0.00    +0.030 C 
ATOM     20  C   LIG    1        3.615  -1.991  -1.155  0.00  0.00    -0.020 C 
ATOM     21  C   LIG    1        4.305  -0.638  -1.343  0.00  0.00    +0.010 C 
ATOM     22  C   LIG    1        3.549   0.179  -2.392  0.00  0.00    -0.020 C 
ATOM     23  C   LIG    1        3.543  -0.579  -3.721  0.00  0.00    +0.010 C 
ATOM     24  C   LIG    1        2.853  -1.931  -3.534  0.00  0.00    -0.010 C 
ATOM     25  C   LIG    1        3.609  -2.749  -2.485  0.00  0.00    +0.010 C 
ATOM     26  C   LIG    1        2.109   0.401  -1.925  0.00  0.00    +0.020 C 
ATOM     27  C   LIG    1        1.413  -1.709  -3.067  0.00  0.00    +0.020 C 
ENDBRANCH  17  18
ENDBRANCH   2  17
TORSDOF 4
