REMARK  Name = ZINCrg00000zUJJX.0
REMARK                            x       y       z     vdW  Elec       q    Type
REMARK                         _______ _______ _______ _____ _____    ______ ____
ROOT
ATOM      1  N   LIG    1       -1.916   4.863  -2.589  0.00  0.00    -0.440 N 
ATOM      2  C   LIG    1       -1.205   4.730  -1.434  0.00  0.00    +0.480 A 
ATOM      3  N   LIG    1       -1.288   3.506  -0.999  0.00  0.00    -0.450 NA
ATOM      4  C   LIG    1       -2.056   2.778  -1.845  0.00  0.00    -0.060 A 
ATOM      5  C   LIG    1       -2.484   1.440  -1.889  0.00  0.00    +0.420 A 
ATOM      6  N   LIG    1       -3.252   1.054  -2.902  0.00  0.00    -0.520 NA
ATOM      7  C   LIG    1       -3.617   1.902  -3.846  0.00  0.00    +0.540 A 
ATOM      8  N   LIG    1       -3.241   3.163  -3.846  0.00  0.00    -0.530 NA
ATOM      9  C   LIG    1       -2.468   3.640  -2.876  0.00  0.00    +0.280 A 
ENDROOT
BRANCH   5  10
ATOM     10  N   LIG    1       -2.110   0.545  -0.902  0.00  0.00    -0.440 N 
ATOM     11  C   LIG    1       -0.639   0.328  -0.908  0.00  0.00    +0.210 C 
ATOM     12  C   LIG    1       -0.447  -1.023  -0.197  0.00  0.00    -0.060 C 
ATOM     13  C   LIG    1       -1.783  -1.768  -0.357  0.00  0.00    +0.040 C 
ATOM     14  C   LIG    1        0.679  -1.812  -0.861  0.00  0.00    +0.020 C 
ATOM     15  C   LIG    1        0.892  -3.124  -0.099  0.00  0.00    +0.210 C 
ATOM     16  O   LIG    1        1.166  -2.835   1.273  0.00  0.00    -0.380 OA
ATOM     17  C   LIG    1        0.108  -2.156   1.953  0.00  0.00    +0.210 C 
ATOM     18  C   LIG    1       -0.140  -0.801   1.281  0.00  0.00    +0.020 C 
ATOM     19  C   LIG    1       -2.682  -0.802  -1.161  0.00  0.00    +0.160 C 
BRANCH  19  20
ATOM     20  C   LIG    1       -4.125  -0.875  -0.659  0.00  0.00    +0.190 C 
BRANCH  20  21
ATOM     21  O   LIG    1       -4.945  -0.004  -1.440  0.00  0.00    -0.550 OA
ATOM     22  H   LIG    1       -5.876   0.001  -1.177  0.00  0.00    +0.370 HD
ENDBRANCH  20  21
ENDBRANCH  19  20
ENDBRANCH   5  10
BRANCH   1  23
ATOM     23  C   LIG    1       -2.064   6.088  -3.380  0.00  0.00    +0.040 C 
ATOM     24  C   LIG    1       -2.056   7.420  -2.627  0.00  0.00    +0.070 C 
ATOM     25  C   LIG    1       -3.362   6.881  -3.216  0.00  0.00    +0.070 C 
BRANCH  23  27
ATOM     26  C   LIG    1        0.052   5.677  -4.643  0.00  0.00    +0.010 C 
ATOM     27  C   LIG    1       -1.425   6.058  -4.769  0.00  0.00    +0.260 C 
BRANCH  27  28
ATOM     28  O   LIG    1       -2.097   5.094  -5.582  0.00  0.00    -0.550 OA
ATOM     29  H   LIG    1       -2.063   4.192  -5.233  0.00  0.00    +0.380 HD
ENDBRANCH  27  28
ENDBRANCH  23  27
ENDBRANCH   1  23
TORSDOF 6
