REMARK  Name = ZINCAx0000000aTi.0
REMARK                            x       y       z     vdW  Elec       q    Type
REMARK                         _______ _______ _______ _____ _____    ______ ____
ROOT
ATOM      1  C   LIG    1        0.651   3.393   0.469  0.00  0.00    +0.000 C 
ATOM      2  C   LIG    1       -0.555   2.453   0.504  0.00  0.00    +0.020 C 
ATOM      3  C   LIG    1       -0.095   1.026   0.189  0.00  0.00    +0.260 C 
ATOM      4  N   LIG    1        0.628   1.034  -1.091  0.00  0.00    -0.610 N 
ATOM      5  C   LIG    1        1.750   1.967  -1.262  0.00  0.00    +0.260 C 
ATOM      6  C   LIG    1        0.269   0.201  -2.087  0.00  0.00    +0.520 C 
ATOM      7  O   LIG    1       -0.589  -0.636  -1.899  0.00  0.00    -0.540 OA
ATOM      8  C   LIG    1        1.269   3.383  -0.931  0.00  0.00    +0.020 C 
ENDROOT
BRANCH   6   9
ATOM      9  C   LIG    1        0.932   0.309  -3.436  0.00  0.00    +0.010 C 
ATOM     10  C   LIG    1        0.111  -0.462  -4.473  0.00  0.00    +0.060 C 
ATOM     11  C   LIG    1        0.823  -0.397  -5.827  0.00  0.00    +0.160 C 
ATOM     12  C   LIG    1        2.233  -0.972  -5.684  0.00  0.00    +0.150 C 
ATOM     13  N   LIG    1        2.979  -0.201  -4.681  0.00  0.00    -0.510 NA
ATOM     14  C   LIG    1        2.340  -0.287  -3.362  0.00  0.00    +0.210 C 
BRANCH  11  15
ATOM     15  O   LIG    1        0.904   0.963  -6.259  0.00  0.00    -0.370 OA
ATOM     16  C   LIG    1        0.898   1.123  -7.679  0.00  0.00    +0.200 C 
ENDBRANCH  11  15
BRANCH  13  17
ATOM     17  C   LIG    1        4.380  -0.636  -4.617  0.00  0.00    +0.340 C 
BRANCH  17  18
ATOM     18  C   LIG    1        4.443  -2.051  -4.100  0.00  0.00    -0.060 A 
ATOM     19  C   LIG    1        4.502  -3.182  -4.841  0.00  0.00    +0.150 A 
ATOM     20  N   LIG    1        4.544  -4.208  -3.961  0.00  0.00    -0.260 N 
ATOM     21  N   LIG    1        4.513  -3.719  -2.770  0.00  0.00    -0.080 NA
ATOM     22  N   LIG    1        4.458  -2.435  -2.819  0.00  0.00    -0.260 NA
BRANCH  20  23
ATOM     23  C   LIG    1        4.614  -5.631  -4.303  0.00  0.00    +0.200 C 
ATOM     24  C   LIG    1        4.260  -6.030  -5.737  0.00  0.00    +0.070 C 
ATOM     25  C   LIG    1        3.296  -6.353  -4.592  0.00  0.00    +0.070 C 
ENDBRANCH  20  23
ENDBRANCH  17  18
ENDBRANCH  13  17
ENDBRANCH   6   9
BRANCH   1  26
ATOM     26  C   LIG    1        0.201   4.813   0.817  0.00  0.00    +0.080 C 
BRANCH  26  32
ATOM     27  C   LIG    1        2.215   5.674   2.055  0.00  0.00    -0.130 A 
ATOM     28  C   LIG    1        3.330   6.510   2.140  0.00  0.00    +0.080 A 
ATOM     29  C   LIG    1        3.626   7.367   1.100  0.00  0.00    -0.010 A 
ATOM     30  C   LIG    1        2.820   7.400  -0.024  0.00  0.00    +0.050 A 
ATOM     31  C   LIG    1        1.717   6.570  -0.117  0.00  0.00    +0.000 A 
ATOM     32  C   LIG    1        1.406   5.712   0.917  0.00  0.00    -0.010 A 
BRANCH  27  33
ATOM     33  C   LIG    1        1.891   4.754   3.165  0.00  0.00    +0.500 C 
ATOM     34  O   LIG    1        0.876   4.089   3.126  0.00  0.00    -0.490 OA
BRANCH  33  36
ATOM     35  C   LIG    1        2.341   3.729   5.274  0.00  0.00    +0.260 C 
ATOM     36  O   LIG    1        2.723   4.653   4.220  0.00  0.00    -0.360 OA
ENDBRANCH  33  36
ENDBRANCH  27  33
ENDBRANCH  26  32
ENDBRANCH   1  26
TORSDOF 9
