REMARK  Name = ZINCrD0000075iD9.0
REMARK                            x       y       z     vdW  Elec       q    Type
REMARK                         _______ _______ _______ _____ _____    ______ ____
ROOT
ATOM      1  C   LIG    1        2.794   0.366   0.390  0.00  0.00    +0.510 C 
ATOM      2  N   LIG    1        4.035   0.873   0.258  0.00  0.00    -0.610 N 
ATOM      3  C   LIG    1        4.270   2.318   0.385  0.00  0.00    +0.290 C 
ATOM      4  C   LIG    1        5.013   2.812  -0.855  0.00  0.00    +0.010 C 
ATOM      5  C   LIG    1        6.284   1.983  -1.051  0.00  0.00    +0.160 C 
ATOM      6  C   LIG    1        5.909   0.515  -1.263  0.00  0.00    +0.040 C 
ATOM      7  C   LIG    1        5.178  -0.006  -0.022  0.00  0.00    +0.310 C 
ATOM      8  O   LIG    1        2.612  -0.828   0.277  0.00  0.00    -0.530 OA
ENDROOT
BRANCH   1   9
ATOM      9  C   LIG    1        1.632   1.281   0.676  0.00  0.00    +0.290 C 
BRANCH   9  10
ATOM     10  N   LIG    1        0.401   0.492   0.773  0.00  0.00    -0.740 N 
ATOM     11  H   LIG    1        0.431  -0.470   0.656  0.00  0.00    +0.410 HD
BRANCH  10  16
ATOM     12  C   LIG    1       -3.196   1.020   1.373  0.00  0.00    +0.020 A 
ATOM     13  C   LIG    1       -3.228   2.406   1.541  0.00  0.00    +0.000 A 
ATOM     14  C   LIG    1       -2.062   3.139   1.453  0.00  0.00    +0.060 A 
ATOM     15  C   LIG    1       -0.859   2.506   1.205  0.00  0.00    -0.040 A 
ATOM     16  C   LIG    1       -0.817   1.127   1.030  0.00  0.00    +0.220 A 
ATOM     17  C   LIG    1       -1.982   0.381   1.116  0.00  0.00    -0.010 A 
BRANCH  12  19
ATOM     18  N   LIG    1       -5.363  -0.348   1.536  0.00  0.00    -0.410 NA
ATOM     19  C   LIG    1       -4.405   0.257   1.464  0.00  0.00    +0.250 C 
ENDBRANCH  12  19
ENDBRANCH  10  16
ENDBRANCH   9  10
ENDBRANCH   1   9
BRANCH   5  20
ATOM     20  O   LIG    1        6.994   2.463  -2.194  0.00  0.00    -0.300 OA
BRANCH  20  21
ATOM     21  C   LIG    1        7.836   3.514  -2.001  0.00  0.00    +0.090 A 
ATOM     22  C   LIG    1        7.891   4.142  -0.766  0.00  0.00    -0.010 A 
ATOM     23  C   LIG    1        8.751   5.206  -0.570  0.00  0.00    +0.030 A 
ATOM     24  C   LIG    1        9.550   5.653  -1.608  0.00  0.00    +0.090 A 
ATOM     25  C   LIG    1        9.494   5.031  -2.844  0.00  0.00    +0.010 A 
ATOM     26  F   LIG    1       10.386   6.697  -1.415  0.00  0.00    -0.130 F 
ATOM     27  C   LIG    1        8.639   3.962  -3.042  0.00  0.00    +0.100 A 
ATOM     28  F   LIG    1        8.584   3.355  -4.248  0.00  0.00    -0.120 F 
ENDBRANCH  20  21
ENDBRANCH   5  20
TORSDOF 6
