REMARK  Name = ZINCrg00000IWNyc.0
REMARK                            x       y       z     vdW  Elec       q    Type
REMARK                         _______ _______ _______ _____ _____    ______ ____
ROOT
ATOM      1  N   LIG    1       -1.025  -1.942  -1.428  0.00  0.00    -0.990 NA
ATOM      2  C   LIG    1       -1.560  -1.362  -2.670  0.00  0.00    +0.280 C 
ATOM      3  C   LIG    1       -2.838  -2.111  -3.047  0.00  0.00    +0.220 C 
ATOM      4  O   LIG    1       -2.575  -3.516  -3.064  0.00  0.00    -0.360 OA
ATOM      5  C   LIG    1       -2.183  -4.053  -1.798  0.00  0.00    +0.250 C 
ATOM      6  C   LIG    1       -0.866  -3.403  -1.359  0.00  0.00    +0.320 C 
ENDROOT
BRANCH   6   7
ATOM      7  C   LIG    1       -0.545  -3.812   0.055  0.00  0.00    +0.270 A 
ATOM      8  N   LIG    1       -1.287  -3.586   1.109  0.00  0.00    -0.530 NA
ATOM      9  C   LIG    1       -0.696  -4.087   2.194  0.00  0.00    +0.430 A 
ATOM     10  N   LIG    1        0.435  -4.641   1.845  0.00  0.00    -0.290 NA
ATOM     11  N   LIG    1        0.555  -4.481   0.455  0.00  0.00    -0.300 N 
BRANCH  11  12
ATOM     12  C   LIG    1        1.609  -4.926  -0.355  0.00  0.00    +0.140 A 
ATOM     13  C   LIG    1        1.355  -5.374  -1.644  0.00  0.00    -0.010 A 
ATOM     14  C   LIG    1        2.397  -5.805  -2.442  0.00  0.00    +0.040 A 
ATOM     15  C   LIG    1        3.690  -5.803  -1.954  0.00  0.00    +0.010 A 
ATOM     16  C   LIG    1        3.946  -5.363  -0.668  0.00  0.00    +0.040 A 
ATOM     17  C   LIG    1        2.909  -4.924   0.133  0.00  0.00    +0.040 A 
ENDBRANCH  11  12
ENDBRANCH   6   7
BRANCH   1  18
ATOM     18  S   LIG    1       -0.619  -0.979  -0.143  0.00  0.00    +2.720 S 
ATOM     19  O   LIG    1        0.356  -1.694   0.603  0.00  0.00    -0.950 OA
ATOM     20  O   LIG    1       -0.394   0.321  -0.671  0.00  0.00    -0.960 OA
BRANCH  18  23
ATOM     21  C   LIG    1       -3.551   0.365  -0.768  0.00  0.00    +0.150 C 
ATOM     22  C   LIG    1       -3.222  -0.283   0.552  0.00  0.00    +0.200 A 
ATOM     23  C   LIG    1       -2.043  -0.857   0.887  0.00  0.00    -0.790 A 
ATOM     24  C   LIG    1       -2.155  -1.336   2.197  0.00  0.00    +0.360 A 
ATOM     25  N   LIG    1       -3.358  -1.060   2.632  0.00  0.00    -0.300 NA
ATOM     26  N   LIG    1       -4.050  -0.396   1.612  0.00  0.00    -0.360 N 
ATOM     27  C   LIG    1       -5.430   0.092   1.683  0.00  0.00    +0.360 C 
ENDBRANCH  18  23
ENDBRANCH   1  18
TORSDOF 4
