REMARK  Name = ZINCrH00000tj198.0
REMARK                            x       y       z     vdW  Elec       q    Type
REMARK                         _______ _______ _______ _____ _____    ______ ____
ROOT
ATOM      1  C   LIG    1       -0.516   0.171  -2.830  0.00  0.00    +0.210 C 
ENDROOT
BRANCH   1   2
ATOM      2  C   LIG    1        0.108  -0.346  -4.101  0.00  0.00    -0.100 A 
ATOM      3  C   LIG    1        1.413  -0.802  -4.094  0.00  0.00    -0.010 A 
ATOM      4  C   LIG    1        1.988  -1.278  -5.258  0.00  0.00    +0.070 A 
ATOM      5  C   LIG    1        1.259  -1.299  -6.431  0.00  0.00    -0.040 A 
ATOM      6  C   LIG    1       -0.051  -0.842  -6.441  0.00  0.00    +0.130 A 
ATOM      7  C   LIG    1       -0.627  -0.370  -5.271  0.00  0.00    +0.020 A 
BRANCH   6   8
ATOM      8  O   LIG    1       -0.770  -0.862  -7.594  0.00  0.00    -0.310 OA
ATOM      9  C   LIG    1       -0.115  -1.367  -8.758  0.00  0.00    +0.250 C 
ENDBRANCH   6   8
ENDBRANCH   1   2
BRANCH   1  10
ATOM     10  N   LIG    1       -0.306  -0.803  -1.750  0.00  0.00    -0.370 N 
ATOM     11  H   LIG    1       -0.490  -1.733  -2.095  0.00  0.00    +0.410 HD
BRANCH  10  13
ATOM     12  C   LIG    1        1.911  -1.826  -1.938  0.00  0.00    +0.080 C 
ATOM     13  C   LIG    1        1.083  -0.720  -1.280  0.00  0.00    +0.250 C 
ENDBRANCH  10  13
BRANCH  10  14
ATOM     14  C   LIG    1       -1.218  -0.504  -0.638  0.00  0.00    +0.230 C 
ATOM     15  C   LIG    1       -2.659  -0.780  -1.071  0.00  0.00    +0.070 C 
ENDBRANCH  10  14
ENDBRANCH   1  10
BRANCH   1  16
ATOM     16  C   LIG    1        0.132   1.503  -2.449  0.00  0.00    +0.340 C 
BRANCH  16  17
ATOM     17  N   LIG    1       -0.449   1.988  -1.194  0.00  0.00    -0.550 N 
ATOM     18  C   LIG    1       -1.768   2.275  -1.142  0.00  0.00    +0.550 A 
ATOM     19  C   LIG    1       -2.327   2.755   0.134  0.00  0.00    -0.230 A 
ATOM     20  C   LIG    1       -3.677   3.067   0.270  0.00  0.00    +0.100 A 
ATOM     21  C   LIG    1       -4.152   3.518   1.485  0.00  0.00    -0.040 A 
ATOM     22  C   LIG    1       -3.293   3.660   2.564  0.00  0.00    +0.070 A 
ATOM     23  C   LIG    1       -1.952   3.354   2.442  0.00  0.00    +0.010 A 
ATOM     24  C   LIG    1       -1.458   2.900   1.230  0.00  0.00    +0.180 A 
ATOM     25  N   LIG    1       -0.118   2.582   1.064  0.00  0.00    -0.540 NA
ATOM     26  O   LIG    1       -2.475   2.137  -2.121  0.00  0.00    -0.520 OA
ATOM     27  C   LIG    1        0.341   2.143  -0.120  0.00  0.00    +0.470 A 
ATOM     28  S   LIG    1        2.005   1.764  -0.265  0.00  0.00    -0.700 S 
ENDBRANCH  16  17
ENDBRANCH   1  16
TORSDOF 7
