REMARK  Name = ZINCtV000002tVly.0
REMARK                            x       y       z     vdW  Elec       q    Type
REMARK                         _______ _______ _______ _____ _____    ______ ____
ROOT
ATOM      1  C   LIG    1       -5.953   3.141   0.314  0.00  0.00    +0.140 A 
ATOM      2  C   LIG    1       -4.748   3.716   0.661  0.00  0.00    +0.060 A 
ATOM      3  C   LIG    1       -3.552   3.026   0.492  0.00  0.00    -0.020 A 
ATOM      4  C   LIG    1       -3.537   1.754  -0.038  0.00  0.00    +0.110 A 
ATOM      5  C   LIG    1       -4.749   1.141  -0.403  0.00  0.00    -0.020 A 
ATOM      6  C   LIG    1       -4.797  -0.157  -0.943  0.00  0.00    +0.020 A 
ATOM      7  C   LIG    1       -6.010  -0.684  -1.271  0.00  0.00    +0.230 A 
ATOM      8  N   LIG    1       -7.137  -0.008  -1.094  0.00  0.00    -0.470 NA
ATOM      9  C   LIG    1       -7.166   1.206  -0.596  0.00  0.00    +0.300 A 
ATOM     10  C   LIG    1       -5.971   1.839  -0.226  0.00  0.00    -0.090 A 
ENDROOT
BRANCH   1  12
ATOM     11  C   LIG    1       -7.171   5.183   0.337  0.00  0.00    +0.510 C 
ATOM     12  N   LIG    1       -7.146   3.845   0.496  0.00  0.00    -0.670 N 
ATOM     13  H   LIG    1       -7.957   3.370   0.737  0.00  0.00    +0.410 HD
ATOM     14  O   LIG    1       -6.141   5.787   0.124  0.00  0.00    -0.510 OA
BRANCH  11  15
ATOM     15  C   LIG    1       -8.478   5.928   0.424  0.00  0.00    +0.060 C 
BRANCH  15  16
ATOM     16  C   LIG    1       -8.253   7.397   0.061  0.00  0.00    +0.010 C 
BRANCH  16  17
ATOM     17  C   LIG    1       -7.857   7.503  -1.413  0.00  0.00    +0.010 C 
BRANCH  17  19
ATOM     18  C   LIG    1       -7.116   9.061  -3.220  0.00  0.00    +0.000 C 
ATOM     19  C   LIG    1       -7.511   8.955  -1.746  0.00  0.00    +0.000 C 
ENDBRANCH  17  19
ENDBRANCH  16  17
BRANCH  16  20
ATOM     20  C   LIG    1       -9.542   8.185   0.301  0.00  0.00    +0.010 C 
BRANCH  20  21
ATOM     21  C   LIG    1       -9.863   8.194   1.797  0.00  0.00    -0.010 C 
ATOM     22  C   LIG    1      -11.210   8.884   2.025  0.00  0.00    +0.000 C 
ENDBRANCH  20  21
ENDBRANCH  16  20
ENDBRANCH  15  16
ENDBRANCH  11  15
ENDBRANCH   1  12
BRANCH   4  23
ATOM     23  O   LIG    1       -2.360   1.096  -0.203  0.00  0.00    -0.250 OA
BRANCH  23  24
ATOM     24  C   LIG    1       -1.231   1.674   0.285  0.00  0.00    +0.070 A 
ATOM     25  C   LIG    1       -0.257   2.140  -0.586  0.00  0.00    +0.060 A 
ATOM     26  C   LIG    1        0.887   2.732  -0.089  0.00  0.00    +0.010 A 
ATOM     27  C   LIG    1        1.065   2.858   1.278  0.00  0.00    +0.100 A 
ATOM     28  C   LIG    1        0.096   2.389   2.149  0.00  0.00    +0.010 A 
ATOM     29  F   LIG    1        2.184   3.438   1.763  0.00  0.00    -0.130 F 
ATOM     30  C   LIG    1       -1.050   1.796   1.655  0.00  0.00    +0.030 A 
ENDBRANCH  23  24
ENDBRANCH   4  23
TORSDOF 9
