REMARK  Name = ZINCpk00000kKIoH.0
REMARK                            x       y       z     vdW  Elec       q    Type
REMARK                         _______ _______ _______ _____ _____    ______ ____
ROOT
ATOM      1  C   LIG    1       -1.120   6.524  -9.310  0.00  0.00    +0.600 C 
ATOM      2  N   LIG    1       -0.481   5.917  -8.291  0.00  0.00    -0.610 N 
ATOM      3  C   LIG    1        0.987   5.952  -8.189  0.00  0.00    +0.240 C 
ATOM      4  C   LIG    1        1.491   4.519  -7.981  0.00  0.00    +0.220 C 
ATOM      5  O   LIG    1        0.792   3.928  -6.883  0.00  0.00    -0.360 OA
ATOM      6  C   LIG    1       -0.617   3.803  -7.086  0.00  0.00    +0.090 C 
ATOM      7  C   LIG    1       -0.881   2.979  -8.348  0.00  0.00    +0.030 C 
ATOM      8  C   LIG    1       -1.231   5.199  -7.248  0.00  0.00    +0.280 C 
ATOM      9  O   LIG    1       -2.324   6.395  -9.436  0.00  0.00    -0.520 OA
ENDROOT
BRANCH   1  12
ATOM     10  C   LIG    1       -1.744   6.689 -12.287  0.00  0.00    +0.120 C 
ATOM     11  C   LIG    1       -0.624   7.431 -11.606  0.00  0.00    -0.020 A 
ATOM     12  C   LIG    1       -0.366   7.338 -10.267  0.00  0.00    -0.280 A 
ATOM     13  S   LIG    1        1.021   8.347  -9.878  0.00  0.00    +0.210 S 
ATOM     14  C   LIG    1        1.177   8.841 -11.503  0.00  0.00    -0.060 A 
ATOM     15  C   LIG    1        0.239   8.272 -12.269  0.00  0.00    +0.000 A 
ENDBRANCH   1  12
BRANCH   6  16
ATOM     16  C   LIG    1       -1.247   3.105  -5.878  0.00  0.00    +0.310 C 
BRANCH  16  17
ATOM     17  N   LIG    1       -0.658   1.773  -5.723  0.00  0.00    -0.730 N 
ATOM     18  H   LIG    1        0.022   1.468  -6.343  0.00  0.00    +0.400 HD
ATOM     19  C   LIG    1       -1.063   0.970  -4.719  0.00  0.00    +0.510 C 
ATOM     20  O   LIG    1       -1.914   1.351  -3.943  0.00  0.00    -0.520 OA
BRANCH  19  21
ATOM     21  C   LIG    1       -0.458  -0.401  -4.559  0.00  0.00    +0.170 C 
BRANCH  21  22
ATOM     22  N   LIG    1       -1.062  -1.071  -3.400  0.00  0.00    -0.450 NA
ATOM     23  C   LIG    1       -0.557  -0.501  -2.137  0.00  0.00    +0.160 C 
ATOM     24  C   LIG    1       -0.480  -1.933  -1.586  0.00  0.00    +0.030 C 
ATOM     25  C   LIG    1       -0.335  -2.310  -3.067  0.00  0.00    +0.120 C 
ATOM     26  C   LIG    1        1.115  -2.316  -3.555  0.00  0.00    +0.020 C 
ENDBRANCH  21  22
ENDBRANCH  19  21
ENDBRANCH  16  17
ENDBRANCH   6  16
TORSDOF 5
