REMARK  Name = ZINCrD00000lbFd6.1
REMARK                            x       y       z     vdW  Elec       q    Type
REMARK                         _______ _______ _______ _____ _____    ______ ____
ROOT
ATOM      1  O   LIG    1       -4.537   2.299   1.109  0.00  0.00    -0.520 OA
ATOM      2  C   LIG    1       -4.013   2.018   0.052  0.00  0.00    +0.520 C 
ATOM      3  N   LIG    1       -2.826   1.380   0.037  0.00  0.00    -0.610 N 
ATOM      4  C   LIG    1       -2.178   1.033  -1.236  0.00  0.00    +0.260 C 
ATOM      5  C   LIG    1       -0.752   1.593  -1.232  0.00  0.00    +0.030 C 
ATOM      6  C   LIG    1       -0.013   1.086   0.008  0.00  0.00    +0.040 C 
ATOM      7  C   LIG    1       -0.729   1.579   1.268  0.00  0.00    +0.090 C 
ATOM      8  C   LIG    1       -2.154   1.019   1.293  0.00  0.00    +0.290 C 
ENDROOT
BRANCH   7   9
ATOM      9  C   LIG    1        0.018   1.107   2.488  0.00  0.00    +0.290 A 
ATOM     10  N   LIG    1        0.914   1.800   3.128  0.00  0.00    -0.490 NA
ATOM     11  C   LIG    1        1.384   1.079   4.179  0.00  0.00    +0.050 A 
ATOM     12  C   LIG    1        2.330   1.333   5.175  0.00  0.00    +0.070 A 
ATOM     13  C   LIG    1        2.598   0.381   6.118  0.00  0.00    +0.000 A 
ATOM     14  C   LIG    1        1.938  -0.839   6.099  0.00  0.00    +0.030 A 
ATOM     15  C   LIG    1        1.000  -1.111   5.125  0.00  0.00    +0.010 A 
ATOM     16  C   LIG    1        0.716  -0.157   4.159  0.00  0.00    +0.050 A 
ATOM     17  N   LIG    1       -0.142  -0.109   3.078  0.00  0.00    -0.600 N 
ATOM     18  H   LIG    1       -0.746  -0.811   2.792  0.00  0.00    +0.420 HD
ENDBRANCH   7   9
BRANCH   2  19
ATOM     19  C   LIG    1       -4.689   2.382  -1.245  0.00  0.00    +0.120 C 
BRANCH  19  20
ATOM     20  C   LIG    1       -5.992   3.081  -0.953  0.00  0.00    -0.050 A 
ATOM     21  C   LIG    1       -7.158   2.341  -0.826  0.00  0.00    +0.020 A 
ATOM     22  C   LIG    1       -8.348   2.956  -0.556  0.00  0.00    +0.070 A 
ATOM     23  C   LIG    1       -8.398   4.345  -0.418  0.00  0.00    +0.050 A 
ATOM     24  N   LIG    1       -9.400   5.225  -0.162  0.00  0.00    -0.500 NA
ATOM     25  C   LIG    1       -8.922   6.435  -0.131  0.00  0.00    +0.480 A 
ATOM     26  N   LIG    1       -7.582   6.415  -0.365  0.00  0.00    -0.600 N 
ATOM     27  H   LIG    1       -6.992   7.184  -0.395  0.00  0.00    +0.420 HD
ATOM     28  C   LIG    1       -7.218   5.096  -0.552  0.00  0.00    +0.050 A 
ATOM     29  C   LIG    1       -6.017   4.454  -0.820  0.00  0.00    +0.020 A 
ENDBRANCH  19  20
ENDBRANCH   2  19
TORSDOF 3
