REMARK  Name = ZINCrD00000lbFd6.0
REMARK                            x       y       z     vdW  Elec       q    Type
REMARK                         _______ _______ _______ _____ _____    ______ ____
ROOT
ATOM      1  O   LIG    1        1.149   2.457   2.038  0.00  0.00    -0.520 OA
ATOM      2  C   LIG    1       -0.037   2.238   2.168  0.00  0.00    +0.520 C 
ATOM      3  N   LIG    1       -0.706   1.562   1.213  0.00  0.00    -0.620 N 
ATOM      4  C   LIG    1       -2.146   1.289   1.351  0.00  0.00    +0.260 C 
ATOM      5  C   LIG    1       -2.868   1.797   0.099  0.00  0.00    +0.030 C 
ATOM      6  C   LIG    1       -2.228   1.174  -1.143  0.00  0.00    +0.040 C 
ATOM      7  C   LIG    1       -0.759   1.596  -1.228  0.00  0.00    +0.090 C 
ATOM      8  C   LIG    1       -0.013   1.086   0.008  0.00  0.00    +0.280 C 
ENDROOT
BRANCH   7   9
ATOM      9  C   LIG    1       -0.138   1.008  -2.469  0.00  0.00    +0.290 A 
ATOM     10  N   LIG    1       -0.033   1.621  -3.612  0.00  0.00    -0.490 NA
ATOM     11  C   LIG    1        0.579   0.808  -4.512  0.00  0.00    +0.050 A 
ATOM     12  C   LIG    1        0.939   0.955  -5.853  0.00  0.00    +0.070 A 
ATOM     13  C   LIG    1        1.554  -0.074  -6.509  0.00  0.00    +0.000 A 
ATOM     14  C   LIG    1        1.826  -1.268  -5.856  0.00  0.00    +0.030 A 
ATOM     15  C   LIG    1        1.480  -1.434  -4.532  0.00  0.00    +0.010 A 
ATOM     16  C   LIG    1        0.854  -0.400  -3.849  0.00  0.00    +0.050 A 
ATOM     17  N   LIG    1        0.389  -0.242  -2.559  0.00  0.00    -0.600 N 
ATOM     18  H   LIG    1        0.430  -0.901  -1.849  0.00  0.00    +0.420 HD
ENDBRANCH   7   9
BRANCH   2  19
ATOM     19  C   LIG    1       -0.762   2.720   3.398  0.00  0.00    +0.120 C 
BRANCH  19  20
ATOM     20  C   LIG    1        0.205   3.440   4.301  0.00  0.00    -0.080 A 
ATOM     21  C   LIG    1        0.393   4.807   4.156  0.00  0.00    +0.050 A 
ATOM     22  C   LIG    1        1.274   5.482   4.974  0.00  0.00    +0.010 A 
ATOM     23  C   LIG    1        1.977   4.788   5.949  0.00  0.00    +0.050 A 
ATOM     24  N   LIG    1        2.907   5.148   6.904  0.00  0.00    -0.600 N 
ATOM     25  H   LIG    1        3.253   6.040   7.062  0.00  0.00    +0.420 HD
ATOM     26  C   LIG    1        3.248   4.019   7.582  0.00  0.00    +0.480 A 
ATOM     27  N   LIG    1        2.593   2.999   7.110  0.00  0.00    -0.500 NA
ATOM     28  C   LIG    1        1.787   3.403   6.095  0.00  0.00    +0.050 A 
ATOM     29  C   LIG    1        0.885   2.741   5.259  0.00  0.00    +0.080 A 
ENDBRANCH  19  20
ENDBRANCH   2  19
TORSDOF 3
