REMARK  Name = ZINCqH0000003UFr.0
REMARK                            x       y       z     vdW  Elec       q    Type
REMARK                         _______ _______ _______ _____ _____    ______ ____
ROOT
ATOM      1  N   LIG    1        0.825   1.786   2.850  0.00  0.00    -0.730 N 
ATOM      2  H   LIG    1        0.274   1.278   3.467  0.00  0.00    +0.400 HD
ATOM      3  C   LIG    1        0.736   1.560   1.524  0.00  0.00    +0.710 C 
ATOM      4  N   LIG    1       -0.117   0.628   1.055  0.00  0.00    -0.620 N 
ATOM      5  C   LIG    1       -0.949  -0.139   1.986  0.00  0.00    +0.290 C 
ATOM      6  O   LIG    1        1.426   2.196   0.752  0.00  0.00    -0.590 OA
ENDROOT
BRANCH   1  11
ATOM      7  C   LIG    1        2.132   2.479   4.817  0.00  0.00    +0.030 C 
ATOM      8  C   LIG    1        1.665   3.680   5.666  0.00  0.00    +0.030 C 
ATOM      9  C   LIG    1        1.607   4.857   4.661  0.00  0.00    +0.030 C 
ATOM     10  C   LIG    1        1.070   4.181   3.375  0.00  0.00    +0.020 C 
ATOM     11  C   LIG    1        1.753   2.798   3.361  0.00  0.00    +0.280 C 
BRANCH   7  12
ATOM     12  S   LIG    1        1.289   0.968   5.362  0.00  0.00    -0.250 S 
BRANCH  12  14
ATOM     13  C   LIG    1        1.358  -0.571   7.623  0.00  0.00    +0.070 C 
ATOM     14  C   LIG    1        1.979   0.690   7.017  0.00  0.00    +0.070 C 
ENDBRANCH  12  14
ENDBRANCH   7  12
ENDBRANCH   1  11
BRANCH   4  15
ATOM     15  C   LIG    1       -0.214   0.383  -0.386  0.00  0.00    +0.420 C 
BRANCH  15  16
ATOM     16  C   LIG    1       -1.339   1.204  -0.961  0.00  0.00    +0.190 A 
ATOM     17  N   LIG    1       -2.599   0.864  -0.972  0.00  0.00    -0.480 NA
ATOM     18  C   LIG    1       -3.314   1.833  -1.563  0.00  0.00    +0.140 A 
ATOM     19  C   LIG    1       -2.464   2.811  -1.932  0.00  0.00    +0.120 A 
ATOM     20  N   LIG    1       -1.212   2.414  -1.545  0.00  0.00    -0.430 N 
BRANCH  20  21
ATOM     21  C   LIG    1        0.033   3.162  -1.733  0.00  0.00    +0.350 C 
BRANCH  21  22
ATOM     22  C   LIG    1        0.744   2.655  -2.962  0.00  0.00    -0.110 A 
ATOM     23  C   LIG    1        1.802   1.775  -2.834  0.00  0.00    +0.030 A 
ATOM     24  C   LIG    1        2.451   1.306  -3.961  0.00  0.00    +0.010 A 
ATOM     25  C   LIG    1        2.047   1.724  -5.215  0.00  0.00    +0.010 A 
ATOM     26  C   LIG    1        0.992   2.608  -5.343  0.00  0.00    +0.000 A 
ATOM     27  C   LIG    1        0.340   3.074  -4.216  0.00  0.00    +0.020 A 
ENDBRANCH  21  22
ENDBRANCH  20  21
ENDBRANCH  15  16
ENDBRANCH   4  15
TORSDOF 7
