REMARK  Name = ZINCrD000006Vp35.0
REMARK                            x       y       z     vdW  Elec       q    Type
REMARK                         _______ _______ _______ _____ _____    ______ ____
ROOT
ATOM      1  C   LIG    1        0.802  -0.340   2.705  0.00  0.00    +0.080 C 
ENDROOT
BRANCH   1   3
ATOM      2  O   LIG    1       -0.225  -1.937   4.108  0.00  0.00    -0.520 OA
ATOM      3  C   LIG    1        0.616  -1.067   4.012  0.00  0.00    +0.530 C 
ATOM      4  N   LIG    1        1.384  -0.752   5.074  0.00  0.00    -0.730 N 
ATOM      5  H   LIG    1        2.056  -0.057   4.997  0.00  0.00    +0.400 HD
BRANCH   4   6
ATOM      6  C   LIG    1        1.203  -1.460   6.344  0.00  0.00    +0.260 C 
BRANCH   6   7
ATOM      7  C   LIG    1        2.191  -0.914   7.377  0.00  0.00    +0.020 C 
BRANCH   7   8
ATOM      8  C   LIG    1        2.002  -1.653   8.703  0.00  0.00    +0.180 C 
BRANCH   8   9
ATOM      9  N   LIG    1        2.951  -1.130   9.695  0.00  0.00    -0.540 NA
ATOM     10  C   LIG    1        4.336  -1.449   9.319  0.00  0.00    +0.140 C 
ATOM     11  C   LIG    1        5.292  -0.835  10.345  0.00  0.00    +0.220 C 
ATOM     12  O   LIG    1        4.960  -1.320  11.648  0.00  0.00    -0.390 OA
ATOM     13  C   LIG    1        3.619  -1.026  12.047  0.00  0.00    +0.220 C 
ATOM     14  C   LIG    1        2.645  -1.642  11.039  0.00  0.00    +0.150 C 
ENDBRANCH   8   9
ENDBRANCH   7   8
ENDBRANCH   6   7
ENDBRANCH   4   6
ENDBRANCH   1   3
BRANCH   1  15
ATOM     15  S   LIG    1       -0.370  -0.986   1.481  0.00  0.00    -0.150 S 
BRANCH  15  16
ATOM     16  C   LIG    1        0.002  -0.004   0.002  0.00  0.00    +0.110 C 
BRANCH  16  17
ATOM     17  C   LIG    1       -0.817  -0.511  -1.157  0.00  0.00    -0.060 A 
ATOM     18  C   LIG    1       -2.184  -0.668  -1.021  0.00  0.00    +0.030 A 
ATOM     19  C   LIG    1       -2.936  -1.129  -2.086  0.00  0.00    +0.010 A 
ATOM     20  C   LIG    1       -2.320  -1.442  -3.283  0.00  0.00    +0.010 A 
ATOM     21  C   LIG    1       -0.952  -1.291  -3.417  0.00  0.00    +0.000 A 
ATOM     22  C   LIG    1       -0.201  -0.825  -2.354  0.00  0.00    +0.020 A 
ENDBRANCH  16  17
BRANCH  16  23
ATOM     23  C   LIG    1       -0.336   1.442   0.261  0.00  0.00    -0.090 A 
ATOM     24  C   LIG    1       -1.583   1.784   0.748  0.00  0.00    +0.030 A 
ATOM     25  C   LIG    1       -1.891   3.109   0.990  0.00  0.00    +0.000 A 
ATOM     26  C   LIG    1       -0.955   4.094   0.736  0.00  0.00    +0.000 A 
ATOM     27  C   LIG    1        0.291   3.752   0.245  0.00  0.00    +0.000 A 
ATOM     28  C   LIG    1        0.601   2.426   0.007  0.00  0.00    +0.010 A 
ENDBRANCH  16  23
ENDBRANCH  15  16
ENDBRANCH   1  15
TORSDOF 9
