REMARK  Name = ZINCqH0000004zdy.0
REMARK                            x       y       z     vdW  Elec       q    Type
REMARK                         _______ _______ _______ _____ _____    ______ ____
ROOT
ATOM      1  C   LIG    1        1.996  -2.994  -0.043  0.00  0.00    +0.570 C 
ATOM      2  N   LIG    1        1.014  -2.072   0.013  0.00  0.00    -0.540 N 
ATOM      3  C   LIG    1       -0.418  -2.373   0.073  0.00  0.00    +0.290 C 
ATOM      4  C   LIG    1       -1.116  -1.003   0.124  0.00  0.00    +0.100 C 
ATOM      5  C   LIG    1        0.014   0.001   0.088  0.00  0.00    -0.120 A 
ATOM      6  C   LIG    1        0.000   1.382   0.108  0.00  0.00    +0.060 A 
ATOM      7  C   LIG    1        1.188   2.089   0.064  0.00  0.00    -0.010 A 
ATOM      8  C   LIG    1        2.391   1.410   0.002  0.00  0.00    +0.040 A 
ATOM      9  C   LIG    1        2.410   0.032  -0.019  0.00  0.00    +0.010 A 
ATOM     10  C   LIG    1        1.215  -0.690   0.024  0.00  0.00    +0.140 A 
ATOM     11  O   LIG    1        3.150  -2.645  -0.186  0.00  0.00    -0.500 OA
ENDROOT
BRANCH   1  14
ATOM     12  C   LIG    1        0.035  -6.184   0.182  0.00  0.00    +0.180 A 
ATOM     13  C   LIG    1        0.320  -4.866   0.086  0.00  0.00    -0.080 A 
ATOM     14  C   LIG    1        1.665  -4.437   0.069  0.00  0.00    -0.030 A 
ATOM     15  C   LIG    1        2.670  -5.383   0.163  0.00  0.00    +0.000 A 
ATOM     16  C   LIG    1        2.320  -6.744   0.269  0.00  0.00    +0.520 A 
ATOM     17  O   LIG    1        3.192  -7.593   0.353  0.00  0.00    -0.540 OA
ATOM     18  N   LIG    1        1.024  -7.109   0.275  0.00  0.00    -0.600 N 
ATOM     19  H   LIG    1        0.793  -8.048   0.348  0.00  0.00    +0.420 HD
BRANCH  12  21
ATOM     20  C   LIG    1       -1.793  -7.134  -1.199  0.00  0.00    +0.040 C 
ATOM     21  C   LIG    1       -1.404  -6.633   0.194  0.00  0.00    +0.090 C 
ENDBRANCH  12  21
ENDBRANCH   1  14
BRANCH   4  22
ATOM     22  C   LIG    1       -2.014  -0.827  -1.073  0.00  0.00    -0.080 A 
ATOM     23  C   LIG    1       -1.494  -0.932  -2.349  0.00  0.00    +0.010 A 
ATOM     24  C   LIG    1       -2.320  -0.774  -3.447  0.00  0.00    +0.000 A 
ATOM     25  C   LIG    1       -3.663  -0.501  -3.269  0.00  0.00    +0.000 A 
ATOM     26  C   LIG    1       -4.182  -0.391  -1.992  0.00  0.00    +0.000 A 
ATOM     27  C   LIG    1       -3.358  -0.553  -0.894  0.00  0.00    +0.010 A 
ENDBRANCH   4  22
TORSDOF 3
