REMARK  Name = ZINCvU0000000Cb5.0
REMARK                            x       y       z     vdW  Elec       q    Type
REMARK                         _______ _______ _______ _____ _____    ______ ____
ROOT
ATOM      1  N   LIG    1        3.572   3.478  -0.013  0.00  0.00    -0.480 N 
ATOM      2  C   LIG    1        3.597   2.221  -0.514  0.00  0.00    +0.560 A 
ATOM      3  C   LIG    1        2.347   1.452  -0.483  0.00  0.00    -0.200 A 
ATOM      4  C   LIG    1        2.273   0.150  -0.975  0.00  0.00    +0.130 A 
ATOM      5  C   LIG    1        1.086  -0.527  -0.924  0.00  0.00    +0.020 A 
ATOM      6  C   LIG    1       -0.049   0.070  -0.387  0.00  0.00    +0.010 A 
ATOM      7  C   LIG    1       -0.004   1.356   0.106  0.00  0.00    +0.040 A 
ATOM      8 CL   LIG    1       -1.541  -0.816  -0.337  0.00  0.00    -0.050 Cl
ATOM      9  C   LIG    1        1.198   2.067   0.065  0.00  0.00    +0.180 A 
ATOM     10  N   LIG    1        1.289   3.332   0.539  0.00  0.00    -0.530 NA
ATOM     11  O   LIG    1        4.619   1.746  -0.975  0.00  0.00    -0.490 OA
ATOM     12  C   LIG    1        2.416   3.998   0.500  0.00  0.00    +0.370 A 
ENDROOT
BRANCH   1  16
ATOM     13  C   LIG    1        7.046   5.781  -0.035  0.00  0.00    -0.050 A 
ATOM     14  C   LIG    1        6.761   4.971   1.050  0.00  0.00    +0.020 A 
ATOM     15  C   LIG    1        5.611   4.207   1.060  0.00  0.00    +0.050 A 
ATOM     16  C   LIG    1        4.740   4.252  -0.020  0.00  0.00    +0.080 A 
ATOM     17  C   LIG    1        5.031   5.062  -1.110  0.00  0.00    +0.050 A 
ATOM     18  C   LIG    1        6.181   5.828  -1.112  0.00  0.00    +0.030 A 
BRANCH  13  19
ATOM     19  C   LIG    1        8.302   6.613  -0.043  0.00  0.00    +0.020 C 
ATOM     20  C   LIG    1        9.173   6.211  -1.235  0.00  0.00    +0.030 C 
BRANCH  19  22
ATOM     21  C   LIG    1        9.198   8.945  -0.039  0.00  0.00    +0.010 C 
ATOM     22  C   LIG    1        7.933   8.093  -0.156  0.00  0.00    +0.020 C 
ENDBRANCH  19  22
ENDBRANCH  13  19
ENDBRANCH   1  16
BRANCH  12  23
ATOM     23  S   LIG    1        2.445   5.640   1.140  0.00  0.00    +0.100 S 
BRANCH  23  24
ATOM     24  C   LIG    1        0.720   5.803   1.664  0.00  0.00    +0.010 C 
ATOM     25  C   LIG    1       -0.193   5.747   0.438  0.00  0.00    +0.090 C 
BRANCH  24  26
ATOM     26  C   LIG    1        0.532   7.121   2.371  0.00  0.00    +0.540 C 
ATOM     27  N   LIG    1       -0.464   7.269   3.267  0.00  0.00    -0.690 N 
ATOM     28  H   LIG    1       -1.060   6.528   3.457  0.00  0.00    +0.410 HD
ATOM     29  O   LIG    1        1.278   8.048   2.133  0.00  0.00    -0.520 OA
BRANCH  27  30
ATOM     30  C   LIG    1       -0.646   8.550   3.954  0.00  0.00    +0.220 C 
ATOM     31  C   LIG    1       -0.929   8.511   5.457  0.00  0.00    +0.020 C 
ATOM     32  C   LIG    1       -2.046   8.878   4.477  0.00  0.00    +0.020 C 
ENDBRANCH  27  30
ENDBRANCH  24  26
ENDBRANCH  23  24
ENDBRANCH  12  23
TORSDOF 7
