REMARK  Name = ZINCpk00000KfL5Z.0
REMARK                            x       y       z     vdW  Elec       q    Type
REMARK                         _______ _______ _______ _____ _____    ______ ____
ROOT
ATOM      1  C   LIG    1       -1.417  -3.328  -0.498  0.00  0.00    +0.530 C 
ATOM      2  N   LIG    1       -1.055  -4.622  -0.588  0.00  0.00    -0.610 N 
ATOM      3  C   LIG    1        0.324  -5.000  -0.938  0.00  0.00    +0.250 C 
ATOM      4  C   LIG    1        0.824  -6.016   0.095  0.00  0.00    +0.140 C 
ATOM      5  O   LIG    1       -0.120  -7.084   0.201  0.00  0.00    -0.370 OA
ATOM      6  C   LIG    1       -1.411  -6.681   0.665  0.00  0.00    +0.190 C 
ATOM      7  C   LIG    1        2.178  -6.572  -0.349  0.00  0.00    +0.070 C 
ATOM      8  C   LIG    1       -2.024  -5.700  -0.334  0.00  0.00    +0.280 C 
ATOM      9  O   LIG    1       -2.559  -3.036  -0.209  0.00  0.00    -0.530 OA
ENDROOT
BRANCH   1  12
ATOM     10  N   LIG    1        0.002  -0.004   0.002  0.00  0.00    -0.620 N 
ATOM     11  C   LIG    1       -1.042  -0.843  -0.598  0.00  0.00    +0.300 C 
ATOM     12  C   LIG    1       -0.405  -2.242  -0.758  0.00  0.00    +0.000 C 
ATOM     13  C   LIG    1        0.680  -2.222   0.344  0.00  0.00    +0.070 C 
ATOM     14  C   LIG    1        0.982  -0.752   0.538  0.00  0.00    +0.520 C 
ATOM     15  O   LIG    1        1.963  -0.313   1.099  0.00  0.00    -0.510 OA
BRANCH  10  16
ATOM     16  C   LIG    1       -0.018   1.461   0.010  0.00  0.00    +0.320 C 
BRANCH  16  17
ATOM     17  C   LIG    1       -0.734   1.954   1.269  0.00  0.00    +0.150 C 
BRANCH  17  19
ATOM     18  C   LIG    1       -0.565   1.995   3.659  0.00  0.00    +0.200 C 
ATOM     19  O   LIG    1        0.020   1.580   2.424  0.00  0.00    -0.380 OA
ENDBRANCH  17  19
ENDBRANCH  16  17
ENDBRANCH  10  16
ENDBRANCH   1  12
BRANCH   6  20
ATOM     20  C   LIG    1       -2.299  -7.892   0.795  0.00  0.00    -0.090 A 
ATOM     21  C   LIG    1       -2.184  -8.933  -0.106  0.00  0.00    +0.040 A 
ATOM     22  C   LIG    1       -2.996 -10.045   0.015  0.00  0.00    +0.000 A 
ATOM     23  C   LIG    1       -3.930 -10.112   1.033  0.00  0.00    +0.010 A 
ATOM     24  C   LIG    1       -4.048  -9.068   1.931  0.00  0.00    +0.010 A 
ATOM     25  C   LIG    1       -3.233  -7.957   1.812  0.00  0.00    +0.010 A 
ENDBRANCH   6  20
TORSDOF 5
