REMARK  Name = ZINCpk00000y6z8U.0
REMARK                            x       y       z     vdW  Elec       q    Type
REMARK                         _______ _______ _______ _____ _____    ______ ____
ROOT
ATOM      1  C   LIG    1       -5.205  -3.437  -0.784  0.00  0.00    -0.110 A 
ATOM      2  C   LIG    1       -4.214  -4.383  -0.584  0.00  0.00    +0.180 A 
ATOM      3  C   LIG    1       -2.917  -3.948  -0.361  0.00  0.00    -0.030 A 
ATOM      4  C   LIG    1       -2.652  -2.584  -0.344  0.00  0.00    +0.370 A 
ATOM      5  N   LIG    1       -3.625  -1.704  -0.533  0.00  0.00    -0.540 NA
ATOM      6  C   LIG    1       -4.873  -2.088  -0.754  0.00  0.00    +0.400 A 
ENDROOT
BRANCH   4   7
ATOM      7  N   LIG    1       -1.355  -2.138  -0.120  0.00  0.00    -0.470 N 
ATOM      8  C   LIG    1       -0.825  -2.674   1.140  0.00  0.00    +0.200 C 
ATOM      9  C   LIG    1        0.648  -2.283   1.282  0.00  0.00    +0.040 C 
ATOM     10  C   LIG    1        0.770  -0.757   1.264  0.00  0.00    +0.020 C 
ATOM     11  C   LIG    1        0.167  -0.221  -0.037  0.00  0.00    +0.000 C 
ATOM     12  C   LIG    1       -1.292  -0.671  -0.141  0.00  0.00    +0.220 C 
BRANCH  11  13
ATOM     13  C   LIG    1        0.231   1.308  -0.038  0.00  0.00    +0.180 C 
BRANCH  13  14
ATOM     14  O   LIG    1        1.597   1.728  -0.058  0.00  0.00    -0.570 OA
ATOM     15  H   LIG    1        1.713   2.688  -0.060  0.00  0.00    +0.380 HD
ENDBRANCH  13  14
ENDBRANCH  11  13
ENDBRANCH   4   7
BRANCH   6  16
ATOM     16  N   LIG    1       -5.862  -1.132  -0.954  0.00  0.00    -0.470 N 
ATOM     17  C   LIG    1       -5.671  -0.437  -2.233  0.00  0.00    +0.190 C 
ATOM     18  C   LIG    1       -6.853   0.502  -2.486  0.00  0.00    +0.030 C 
ATOM     19  C   LIG    1       -6.948   1.516  -1.343  0.00  0.00    +0.030 C 
ATOM     20  C   LIG    1       -7.097   0.765  -0.017  0.00  0.00    +0.020 C 
ATOM     21  C   LIG    1       -5.908  -0.181   0.165  0.00  0.00    +0.190 C 
BRANCH  20  22
ATOM     22  C   LIG    1       -7.132   1.769   1.137  0.00  0.00    +0.170 C 
BRANCH  22  23
ATOM     23  O   LIG    1       -8.306   2.576   1.031  0.00  0.00    -0.570 OA
ATOM     24  H   LIG    1       -8.394   3.237   1.732  0.00  0.00    +0.380 HD
ENDBRANCH  22  23
ENDBRANCH  20  22
ENDBRANCH   6  16
BRANCH   1  26
ATOM     25  O   LIG    1       -6.870  -5.040  -1.152  0.00  0.00    -0.200 OA
ATOM     26  N   LIG    1       -6.603  -3.859  -1.027  0.00  0.00    +0.040 N 
ATOM     27  O   LIG    1       -7.487  -3.023  -1.101  0.00  0.00    -0.100 OA
ENDBRANCH   1  26
TORSDOF 7
