REMARK  Name = ZINCrD00000l0G0q.0
REMARK                            x       y       z     vdW  Elec       q    Type
REMARK                         _______ _______ _______ _____ _____    ______ ____
ROOT
ATOM      1  C   LIG    1       -3.751  -1.085   0.014  0.00  0.00    +0.250 C 
ATOM      2  C   LIG    1       -4.575  -0.615  -1.187  0.00  0.00    +0.110 C 
ENDROOT
BRANCH   1   3
ATOM      3  C   LIG    1       -3.465  -2.558  -0.119  0.00  0.00    -0.110 A 
ATOM      4  C   LIG    1       -3.869  -3.433   0.871  0.00  0.00    +0.030 A 
ATOM      5  C   LIG    1       -3.611  -4.788   0.746  0.00  0.00    +0.100 A 
ATOM      6  C   LIG    1       -2.937  -5.264  -0.366  0.00  0.00    +0.050 A 
ATOM      7  C   LIG    1       -2.528  -4.389  -1.354  0.00  0.00    +0.040 A 
ATOM      8  F   LIG    1       -4.012  -5.644   1.711  0.00  0.00    -0.130 F 
ATOM      9  C   LIG    1       -2.791  -3.035  -1.231  0.00  0.00    +0.110 A 
ATOM     10  F   LIG    1       -2.390  -2.179  -2.197  0.00  0.00    -0.120 F 
ENDBRANCH   1   3
BRANCH   1  11
ATOM     11  N   LIG    1       -2.488  -0.344   0.059  0.00  0.00    -0.710 N 
ATOM     12  H   LIG    1       -1.646  -0.815  -0.040  0.00  0.00    +0.410 HD
ATOM     13  C   LIG    1       -2.496   0.991   0.239  0.00  0.00    +0.560 C 
ATOM     14  O   LIG    1       -3.552   1.581   0.364  0.00  0.00    -0.490 OA
BRANCH  13  15
ATOM     15  C   LIG    1       -1.222   1.739   0.286  0.00  0.00    -0.080 A 
ATOM     16  C   LIG    1       -0.008   1.064   0.143  0.00  0.00    +0.090 A 
ATOM     17  C   LIG    1        1.177   1.769   0.181  0.00  0.00    +0.110 A 
ATOM     18  C   LIG    1        1.166   3.140   0.366  0.00  0.00    -0.010 A 
ATOM     19  C   LIG    1       -0.032   3.815   0.514  0.00  0.00    +0.110 A 
ATOM     20  C   LIG    1       -1.226   3.123   0.478  0.00  0.00    +0.010 A 
ATOM     21 CL   LIG    1       -2.730   3.971   0.665  0.00  0.00    +0.010 Cl
BRANCH  18  22
ATOM     22  N   LIG    1        2.443   3.888   0.404  0.00  0.00    +0.020 N 
ATOM     23  O   LIG    1        2.436   5.095   0.567  0.00  0.00    -0.140 OA
ATOM     24  O   LIG    1        3.499   3.297   0.274  0.00  0.00    -0.140 OA
ENDBRANCH  18  22
ENDBRANCH  13  15
ENDBRANCH   1  11
BRANCH   1  25
ATOM     25  C   LIG    1       -4.525  -0.836   1.283  0.00  0.00    +0.470 C 
ATOM     26  O   LIG    1       -5.731  -0.774   1.252  0.00  0.00    -0.480 OA
BRANCH  25  28
ATOM     27  C   LIG    1       -4.685  -0.448   3.628  0.00  0.00    +0.270 C 
ATOM     28  O   LIG    1       -3.875  -0.684   2.447  0.00  0.00    -0.350 OA
ENDBRANCH  25  28
ENDBRANCH   1  25
TORSDOF 6
