REMARK  Name = ZINCrH00000No4N9.0
REMARK                            x       y       z     vdW  Elec       q    Type
REMARK                         _______ _______ _______ _____ _____    ______ ____
ROOT
ATOM      1  C   LIG    1       -2.159   0.091   0.786  0.00  0.00    -0.010 C 
ATOM      2  C   LIG    1       -1.745   1.053   1.902  0.00  0.00    +0.030 C 
ATOM      3  C   LIG    1       -2.971   1.842   2.371  0.00  0.00    +0.270 C 
ATOM      4  N   LIG    1       -4.027   0.893   2.753  0.00  0.00    -0.610 N 
ATOM      5  C   LIG    1       -4.438  -0.133   1.785  0.00  0.00    +0.280 C 
ATOM      6  C   LIG    1       -4.607   0.963   3.967  0.00  0.00    +0.550 C 
ATOM      7  O   LIG    1       -5.412   0.116   4.307  0.00  0.00    -0.540 OA
ATOM      8  C   LIG    1       -3.195  -0.900   1.322  0.00  0.00    +0.050 C 
ENDROOT
BRANCH   1  10
ATOM      9  N   LIG    1       -0.028  -0.039  -0.463  0.00  0.00    -0.580 N 
ATOM     10  C   LIG    1       -0.949  -0.663   0.298  0.00  0.00    +0.520 C 
ATOM     11  O   LIG    1       -0.804  -1.831   0.589  0.00  0.00    -0.520 OA
BRANCH   9  12
ATOM     12  C   LIG    1        1.046  -0.810  -1.093  0.00  0.00    +0.200 C 
ATOM     13  C   LIG    1        0.868  -2.327  -1.183  0.00  0.00    +0.030 C 
ATOM     14  C   LIG    1        1.875  -1.731  -0.196  0.00  0.00    +0.010 C 
ENDBRANCH   9  12
BRANCH   9  16
ATOM     15  C   LIG    1       -0.416   1.713  -2.125  0.00  0.00    +0.030 C 
ATOM     16  C   LIG    1       -0.100   1.411  -0.658  0.00  0.00    +0.260 C 
BRANCH  16  17
ATOM     17  C   LIG    1        1.242   2.044  -0.286  0.00  0.00    -0.060 C 
ATOM     18  C   LIG    1        1.258   3.031   0.883  0.00  0.00    +0.020 C 
ATOM     19  C   LIG    1        1.416   3.541  -0.551  0.00  0.00    +0.030 C 
ENDBRANCH  16  17
ENDBRANCH   9  16
ENDBRANCH   1  10
BRANCH   6  20
ATOM     20  C   LIG    1       -4.268   2.058   4.878  0.00  0.00    -0.090 C 
ATOM     21  C   LIG    1       -4.760   2.067   6.134  0.00  0.00    +0.130 C 
BRANCH  21  22
ATOM     22  C   LIG    1       -4.419   3.168   7.049  0.00  0.00    -0.080 A 
ATOM     23  C   LIG    1       -3.582   4.204   6.623  0.00  0.00    +0.030 A 
ATOM     24  C   LIG    1       -3.272   5.234   7.485  0.00  0.00    +0.010 A 
ATOM     25  C   LIG    1       -3.778   5.239   8.773  0.00  0.00    +0.020 A 
ATOM     26  C   LIG    1       -4.603   4.215   9.204  0.00  0.00    +0.010 A 
ATOM     27  C   LIG    1       -4.927   3.180   8.352  0.00  0.00    +0.040 A 
ENDBRANCH  21  22
ENDBRANCH   6  20
TORSDOF 6
