REMARK  Name = ZINCkj000005lt0n.0
REMARK                            x       y       z     vdW  Elec       q    Type
REMARK                         _______ _______ _______ _____ _____    ______ ____
ROOT
ATOM      1  N   LIG    1       -3.660   1.718   0.130  0.00  0.00    -0.720 N 
ATOM      2  H   LIG    1       -3.655   2.688   0.136  0.00  0.00    +0.400 HD
ATOM      3  C   LIG    1       -2.502   1.038   0.019  0.00  0.00    +0.580 C 
ATOM      4  O   LIG    1       -2.516  -0.174  -0.081  0.00  0.00    -0.510 OA
ENDROOT
BRANCH   3   5
ATOM      5  C   LIG    1       -1.220   1.762   0.019  0.00  0.00    -0.150 A 
ATOM      6  C   LIG    1       -1.185   3.151   0.023  0.00  0.00    +0.120 A 
ATOM      7  C   LIG    1        0.052   3.802   0.029  0.00  0.00    -0.040 A 
ATOM      8  C   LIG    1        1.210   3.107   0.025  0.00  0.00    +0.350 A 
ATOM      9  N   LIG    1        1.229   1.745   0.016  0.00  0.00    -0.290 N 
ATOM     10  N   LIG    1        2.275   0.813   0.010  0.00  0.00    -0.300 NA
ATOM     11  C   LIG    1        1.765  -0.398   0.002  0.00  0.00    +0.290 A 
ATOM     12  C   LIG    1        0.380  -0.304   0.002  0.00  0.00    -0.080 A 
ATOM     13  C   LIG    1        0.052   1.038   0.010  0.00  0.00    +0.120 A 
ENDBRANCH   3   5
BRANCH   1  16
ATOM     14  C   LIG    1       -6.247   2.285   1.294  0.00  0.00    +0.190 C 
ATOM     15  C   LIG    1       -5.512   0.986   1.667  0.00  0.00    +0.070 C 
ATOM     16  C   LIG    1       -4.928   0.993   0.243  0.00  0.00    +0.280 C 
ATOM     17  C   LIG    1       -6.148   1.823  -0.160  0.00  0.00    -0.130 C 
ATOM     18  C   LIG    1       -7.341   1.182  -0.869  0.00  0.00    +0.070 C 
ATOM     19  C   LIG    1       -7.572   2.551  -1.533  0.00  0.00    +0.020 C 
ATOM     20  C   LIG    1       -6.075   2.831  -1.307  0.00  0.00    +0.070 C 
BRANCH  14  21
ATOM     21  N   LIG    1       -7.625   2.349   1.800  0.00  0.00    -0.630 N 
ATOM     22  H   LIG    1       -8.064   1.446   1.696  0.00  0.00    +0.430 HD
ATOM     23  H   LIG    1       -8.145   3.037   1.276  0.00  0.00    +0.430 HD
ATOM     24  H   LIG    1       -7.614   2.607   2.775  0.00  0.00    +0.440 HD
ENDBRANCH  14  21
ENDBRANCH   1  16
TORSDOF 3
