REMARK  Name = ZINCpk00000y6uGN.0
REMARK                            x       y       z     vdW  Elec       q    Type
REMARK                         _______ _______ _______ _____ _____    ______ ____
ROOT
ATOM      1  C   LIG    1        2.195  -0.344   1.138  0.00  0.00    +0.280 C 
ENDROOT
BRANCH   1   2
ATOM      2  C   LIG    1        1.437  -0.736  -0.132  0.00  0.00    +0.180 C 
ATOM      3  C   LIG    1        2.014  -0.006  -1.315  0.00  0.00    +0.030 C 
ATOM      4  C   LIG    1        0.945   0.350  -2.366  0.00  0.00    +0.010 C 
ATOM      5  C   LIG    1       -0.061  -0.792  -2.606  0.00  0.00    +0.010 C 
ATOM      6  C   LIG    1        0.604  -2.141  -2.664  0.00  0.00    +0.010 C 
ATOM      7  C   LIG    1        0.550  -2.774  -1.258  0.00  0.00    +0.010 C 
ATOM      8  C   LIG    1        1.582  -2.253  -0.375  0.00  0.00    +0.030 C 
BRANCH   2  10
ATOM      9  C   LIG    1       -0.346   0.885   0.226  0.00  0.00    +0.550 C 
ATOM     10  N   LIG    1        0.020  -0.395   0.015  0.00  0.00    -0.720 N 
ATOM     11  H   LIG    1       -0.654  -1.090  -0.040  0.00  0.00    +0.400 HD
ATOM     12  O   LIG    1        0.502   1.742   0.384  0.00  0.00    -0.530 OA
BRANCH   9  14
ATOM     13  C   LIG    1       -2.133   2.509   0.468  0.00  0.00    +0.160 C 
ATOM     14  C   LIG    1       -1.772   1.246   0.260  0.00  0.00    -0.090 C 
ENDBRANCH   9  14
ENDBRANCH   2  10
ENDBRANCH   1   2
BRANCH   1  15
ATOM     15  N   LIG    1        1.573  -0.991   2.296  0.00  0.00    -0.700 N 
ATOM     16  H   LIG    1        0.755  -1.500   2.187  0.00  0.00    +0.410 HD
ATOM     17  C   LIG    1        2.139  -0.879   3.515  0.00  0.00    +0.480 C 
ATOM     18  O   LIG    1        3.162  -0.243   3.652  0.00  0.00    -0.480 OA
BRANCH  17  19
ATOM     19  C   LIG    1        1.500  -1.545   4.706  0.00  0.00    +0.380 C 
ATOM     20  F   LIG    1        0.906  -2.747   4.306  0.00  0.00    -0.180 F 
ATOM     21  F   LIG    1        0.524  -0.699   5.245  0.00  0.00    -0.150 F 
BRANCH  19  22
ATOM     22  C   LIG    1        2.551  -1.827   5.748  0.00  0.00    -0.090 A 
ATOM     23  C   LIG    1        2.622  -1.302   6.994  0.00  0.00    +0.220 A 
ATOM     24  N   LIG    1        3.710  -1.829   7.566  0.00  0.00    -0.260 NA
ATOM     25  N   LIG    1        4.276  -2.627   6.731  0.00  0.00    -0.050 NA
ATOM     26  N   LIG    1        3.611  -2.659   5.629  0.00  0.00    -0.260 N 
ATOM     27  C   LIG    1        3.946  -3.458   4.447  0.00  0.00    +0.390 C 
ENDBRANCH  19  22
ENDBRANCH  17  19
ENDBRANCH   1  15
TORSDOF 6
