REMARK  Name = ZINCtV00000vAF0R.0
REMARK                            x       y       z     vdW  Elec       q    Type
REMARK                         _______ _______ _______ _____ _____    ______ ____
ROOT
ATOM      1  O   LIG    1       -3.127  -5.553   7.080  0.00  0.00    -0.490 OA
ATOM      2  C   LIG    1       -2.187  -5.157   6.415  0.00  0.00    +0.560 A 
ATOM      3  C   LIG    1       -0.801  -5.395   6.839  0.00  0.00    -0.200 A 
ATOM      4  C   LIG    1       -0.499  -6.080   8.015  0.00  0.00    +0.130 A 
ATOM      5  C   LIG    1        0.807  -6.277   8.367  0.00  0.00    +0.020 A 
ATOM      6  C   LIG    1        1.839  -5.801   7.566  0.00  0.00    +0.010 A 
ATOM      7  C   LIG    1        1.568  -5.120   6.399  0.00  0.00    +0.040 A 
ATOM      8 CL   LIG    1        3.487  -6.066   8.041  0.00  0.00    -0.050 Cl
ATOM      9  C   LIG    1        0.241  -4.906   6.017  0.00  0.00    +0.180 A 
ATOM     10  N   LIG    1       -0.072  -4.243   4.880  0.00  0.00    -0.530 NA
ATOM     11  C   LIG    1       -1.317  -4.045   4.523  0.00  0.00    +0.380 A 
ATOM     12  N   LIG    1       -2.381  -4.478   5.261  0.00  0.00    -0.520 N 
ENDROOT
BRANCH  12  13
ATOM     13  C   LIG    1       -3.745  -4.210   4.797  0.00  0.00    +0.230 C 
ATOM     14  C   LIG    1       -4.527  -3.431   5.874  0.00  0.00    +0.020 C 
ATOM     15  C   LIG    1       -5.962  -4.008   5.794  0.00  0.00    +0.020 C 
ATOM     16  C   LIG    1       -5.710  -5.514   5.532  0.00  0.00    +0.030 C 
ATOM     17  C   LIG    1       -4.497  -5.535   4.579  0.00  0.00    +0.020 C 
ENDBRANCH  12  13
BRANCH  11  18
ATOM     18  S   LIG    1       -1.633  -3.171   3.026  0.00  0.00    +0.010 S 
BRANCH  18  19
ATOM     19  C   LIG    1        0.064  -2.844   2.488  0.00  0.00    +0.170 C 
BRANCH  19  20
ATOM     20  C   LIG    1        0.041  -2.084   1.188  0.00  0.00    -0.090 A 
ATOM     21  C   LIG    1        0.039  -2.768  -0.013  0.00  0.00    +0.070 A 
ATOM     22  C   LIG    1        0.018  -2.071  -1.207  0.00  0.00    +0.020 A 
ATOM     23  C   LIG    1       -0.006  -0.689  -1.199  0.00  0.00    +0.080 A 
ATOM     24  C   LIG    1        0.002  -0.004   0.002  0.00  0.00    -0.180 A 
ATOM     25  C   LIG    1        0.023  -0.702   1.195  0.00  0.00    +0.090 A 
BRANCH  24  26
ATOM     26  C   LIG    1       -0.018   1.503   0.010  0.00  0.00    +0.510 C 
ATOM     27  F   LIG    1       -0.673   1.954   1.161  0.00  0.00    -0.180 F 
ATOM     28  F   LIG    1       -0.695   1.966  -1.123  0.00  0.00    -0.180 F 
ATOM     29  F   LIG    1        1.294   1.987   0.000  0.00  0.00    -0.170 F 
ENDBRANCH  24  26
ENDBRANCH  19  20
ENDBRANCH  18  19
ENDBRANCH  11  18
TORSDOF 5
