REMARK  Name = ZINCrH000004nNii.0
REMARK                            x       y       z     vdW  Elec       q    Type
REMARK                         _______ _______ _______ _____ _____    ______ ____
ROOT
ATOM      1  C   LIG    1        1.142   3.779  -0.411  0.00  0.00    +0.560 C 
ATOM      2  N   LIG    1        2.330   4.375  -0.634  0.00  0.00    -0.670 N 
ATOM      3  H   LIG    1        3.117   3.836  -0.812  0.00  0.00    +0.410 HD
ATOM      4  O   LIG    1        0.139   4.453  -0.282  0.00  0.00    -0.510 OA
ENDROOT
BRANCH   1   9
ATOM      5  C   LIG    1       -0.240   0.304  -0.011  0.00  0.00    +0.110 A 
ATOM      6  C   LIG    1        0.912  -0.460  -0.161  0.00  0.00    +0.080 A 
ATOM      7  C   LIG    1        2.129   0.154  -0.389  0.00  0.00    +0.030 A 
ATOM      8  C   LIG    1        2.209   1.529  -0.471  0.00  0.00    +0.050 A 
ATOM      9  C   LIG    1        1.059   2.305  -0.323  0.00  0.00    -0.130 A 
ATOM     10  C   LIG    1       -0.170   1.687  -0.092  0.00  0.00    +0.090 A 
BRANCH   5  11
ATOM     11  N   LIG    1       -1.468  -0.321   0.220  0.00  0.00    -1.070 N 
ATOM     12  H   LIG    1       -2.124  -0.379  -0.491  0.00  0.00    +0.430 HD
BRANCH  11  14
ATOM     13  C   LIG    1       -1.787   0.463   2.831  0.00  0.00    -0.280 C 
ATOM     14  S   LIG    1       -1.802  -0.963   1.710  0.00  0.00    +2.610 S 
ATOM     15  O   LIG    1       -0.700  -1.819   1.978  0.00  0.00    -0.950 OA
ATOM     16  O   LIG    1       -3.118  -1.482   1.580  0.00  0.00    -0.950 OA
ENDBRANCH  11  14
ENDBRANCH   5  11
ENDBRANCH   1   9
BRANCH   2  17
ATOM     17  C   LIG    1        2.428   5.770  -0.609  0.00  0.00    +0.150 A 
ATOM     18  C   LIG    1        3.333   6.418  -1.443  0.00  0.00    +0.000 A 
ATOM     19  C   LIG    1        3.431   7.797  -1.427  0.00  0.00    +0.040 A 
ATOM     20  C   LIG    1        2.640   8.540  -0.575  0.00  0.00    +0.020 A 
ATOM     21  C   LIG    1        1.731   7.898   0.273  0.00  0.00    +0.030 A 
ATOM     22  C   LIG    1        1.629   6.505   0.252  0.00  0.00    +0.050 A 
BRANCH  21  23
ATOM     23  C   LIG    1        0.909   8.666   1.159  0.00  0.00    -0.090 C 
ATOM     24  C   LIG    1        0.235   9.296   1.885  0.00  0.00    -0.090 C 
BRANCH  24  25
ATOM     25  C   LIG    1       -0.587  10.063   2.771  0.00  0.00    -0.090 A 
ATOM     26  C   LIG    1       -0.575  11.423   2.880  0.00  0.00    +0.040 A 
ATOM     27  C   LIG    1       -1.460  11.928   3.806  0.00  0.00    +0.010 A 
ATOM     28  C   LIG    1       -2.191  11.014   4.452  0.00  0.00    -0.040 A 
ATOM     29  S   LIG    1       -1.776   9.402   3.886  0.00  0.00    +0.150 S 
ENDBRANCH  24  25
ENDBRANCH  21  23
ENDBRANCH   2  17
TORSDOF 6
