REMARK  Name = ZINCrH000004sskw.0
REMARK                            x       y       z     vdW  Elec       q    Type
REMARK                         _______ _______ _______ _____ _____    ______ ____
ROOT
ATOM      1  N   LIG    1       -1.699  -0.909  -1.462  0.00  0.00    -0.510 NA
ATOM      2  C   LIG    1       -2.157   0.230  -2.268  0.00  0.00    +0.110 C 
ATOM      3  C   LIG    1       -2.558  -0.263  -3.662  0.00  0.00    +0.290 C 
ATOM      4  N   LIG    1       -3.537  -1.349  -3.510  0.00  0.00    -0.600 N 
ATOM      5  C   LIG    1       -3.206  -2.463  -2.608  0.00  0.00    +0.320 C 
ATOM      6  C   LIG    1       -4.706  -1.326  -4.179  0.00  0.00    +0.650 C 
ATOM      7  O   LIG    1       -5.503  -2.232  -4.042  0.00  0.00    -0.570 OA
ATOM      8  C   LIG    1       -1.026   1.253  -2.393  0.00  0.00    +0.060 C 
ATOM      9  C   LIG    1       -2.779  -1.884  -1.255  0.00  0.00    +0.120 C 
ATOM     10  C   LIG    1       -2.282  -3.012  -0.350  0.00  0.00    +0.060 C 
ENDROOT
BRANCH   1  11
ATOM     11  C   LIG    1       -1.145  -0.458  -0.179  0.00  0.00    +0.330 C 
BRANCH  11  15
ATOM     12  C   LIG    1       -3.330   3.746   1.021  0.00  0.00    +0.150 C 
ATOM     13  C   LIG    1       -3.231   2.249   1.160  0.00  0.00    +0.220 A 
ATOM     14  N   LIG    1       -2.317   1.568   0.499  0.00  0.00    -0.520 NA
ATOM     15  C   LIG    1       -2.216   0.251   0.610  0.00  0.00    +0.290 A 
ATOM     16  N   LIG    1       -3.006  -0.461   1.376  0.00  0.00    -0.500 NA
ATOM     17  C   LIG    1       -3.969   0.134   2.091  0.00  0.00    +0.160 A 
ATOM     18  C   LIG    1       -4.835  -0.591   2.921  0.00  0.00    +0.040 A 
ATOM     19  C   LIG    1       -5.798   0.067   3.627  0.00  0.00    +0.060 A 
ATOM     20  C   LIG    1       -5.937   1.450   3.537  0.00  0.00    +0.010 A 
ATOM     21  C   LIG    1       -5.113   2.187   2.740  0.00  0.00    +0.060 A 
ATOM     22  C   LIG    1       -4.111   1.543   2.000  0.00  0.00    -0.170 A 
ENDBRANCH  11  15
ENDBRANCH   1  11
BRANCH   6  23
ATOM     23  O   LIG    1       -4.991  -0.297  -5.000  0.00  0.00    -0.360 OA
BRANCH  23  24
ATOM     24  C   LIG    1       -6.269  -0.338  -5.689  0.00  0.00    +0.140 C 
ATOM     25  C   LIG    1       -6.338  -1.592  -6.562  0.00  0.00    +0.040 C 
ATOM     26  C   LIG    1       -6.414   0.905  -6.569  0.00  0.00    +0.080 C 
ATOM     27  C   LIG    1       -7.402  -0.369  -4.661  0.00  0.00    +0.040 C 
ENDBRANCH  23  24
ENDBRANCH   6  23
TORSDOF 4
