REMARK  Name = ZINCpe00000VVGjD.0
REMARK                            x       y       z     vdW  Elec       q    Type
REMARK                         _______ _______ _______ _____ _____    ______ ____
ROOT
ATOM      1  N   LIG    1       -3.608   1.789   0.029  0.00  0.00    -0.560 N 
ATOM      2  C   LIG    1       -3.837   2.700  -0.924  0.00  0.00    +0.710 C 
ATOM      3  N   LIG    1       -4.936   3.436  -0.678  0.00  0.00    -0.720 N 
ATOM      4  H   LIG    1       -5.292   4.150  -1.231  0.00  0.00    +0.440 HD
ATOM      5  C   LIG    1       -5.496   2.945   0.593  0.00  0.00    +0.180 C 
ATOM      6  C   LIG    1       -6.906   2.389   0.381  0.00  0.00    +0.100 C 
ATOM      7  O   LIG    1       -3.131   2.847  -1.902  0.00  0.00    -0.520 OA
ATOM      8  C   LIG    1       -4.545   1.836   0.997  0.00  0.00    +0.540 C 
ATOM      9  O   LIG    1       -4.612   1.137   1.985  0.00  0.00    -0.460 OA
ENDROOT
BRANCH   5  10
ATOM     10  C   LIG    1       -5.511   4.043   1.625  0.00  0.00    -0.090 A 
ATOM     11  C   LIG    1       -5.362   3.733   2.963  0.00  0.00    +0.060 A 
ATOM     12  C   LIG    1       -5.369   4.738   3.914  0.00  0.00    +0.050 A 
ATOM     13  C   LIG    1       -5.537   6.057   3.526  0.00  0.00    +0.040 A 
ATOM     14  O   LIG    1       -5.586   7.214   4.250  0.00  0.00    -0.310 OA
ATOM     15  C   LIG    1       -5.363   8.272   3.299  0.00  0.00    +0.440 C 
ATOM     16  O   LIG    1       -5.838   7.721   2.056  0.00  0.00    -0.310 OA
ATOM     17  C   LIG    1       -5.692   6.369   2.178  0.00  0.00    +0.030 A 
ATOM     18  C   LIG    1       -5.678   5.358   1.231  0.00  0.00    +0.060 A 
ENDBRANCH   5  10
BRANCH   1  20
ATOM     19  C   LIG    1       -2.557  -0.021  -1.235  0.00  0.00    +0.080 C 
ATOM     20  C   LIG    1       -2.482   0.853   0.018  0.00  0.00    +0.260 C 
BRANCH  20  21
ATOM     21  C   LIG    1       -1.187   1.624   0.017  0.00  0.00    +0.510 C 
ATOM     22  N   LIG    1       -0.011   0.966   0.007  0.00  0.00    -0.700 N 
ATOM     23  H   LIG    1        0.002  -0.004   0.002  0.00  0.00    +0.400 HD
ATOM     24  O   LIG    1       -1.204   2.837   0.023  0.00  0.00    -0.510 OA
BRANCH  22  25
ATOM     25  C   LIG    1        1.248   1.716  -0.001  0.00  0.00    +0.220 C 
ATOM     26  C   LIG    1        2.348   1.238  -0.950  0.00  0.00    +0.010 C 
ATOM     27  C   LIG    1        2.489   1.017   0.557  0.00  0.00    +0.020 C 
ENDBRANCH  22  25
ENDBRANCH  20  21
ENDBRANCH   1  20
TORSDOF 4
