REMARK  Name = ZINCpe000000TgPr.0
REMARK                            x       y       z     vdW  Elec       q    Type
REMARK                         _______ _______ _______ _____ _____    ______ ____
ROOT
ATOM      1  C   LIG    1       -0.863   0.596  -2.288  0.00  0.00    +0.520 C 
ATOM      2  N   LIG    1        0.269   0.255  -2.936  0.00  0.00    -0.610 N 
ATOM      3  C   LIG    1        1.570   0.799  -2.519  0.00  0.00    +0.280 C 
ATOM      4  C   LIG    1        2.548  -0.373  -2.341  0.00  0.00    +0.170 C 
ATOM      5  N   LIG    1        2.575  -1.173  -3.572  0.00  0.00    -0.530 NA
ATOM      6  C   LIG    1        1.264  -1.776  -3.845  0.00  0.00    +0.180 C 
ATOM      7  C   LIG    1        0.234  -0.666  -4.082  0.00  0.00    +0.300 C 
ATOM      8  O   LIG    1       -1.914   0.071  -2.587  0.00  0.00    -0.530 OA
ENDROOT
BRANCH   1  14
ATOM      9  C   LIG    1       -2.826   2.927  -1.960  0.00  0.00    +0.530 C 
ATOM     10  N   LIG    1       -2.152   2.232  -1.023  0.00  0.00    -0.610 N 
ATOM     11  C   LIG    1       -2.628   1.947   0.344  0.00  0.00    +0.250 C 
ATOM     12  C   LIG    1       -1.336   1.709   1.174  0.00  0.00    +0.040 C 
ATOM     13  C   LIG    1       -0.445   0.963   0.146  0.00  0.00    +0.050 C 
ATOM     14  C   LIG    1       -0.821   1.631  -1.193  0.00  0.00    +0.220 C 
ATOM     15  O   LIG    1       -2.336   3.100  -3.056  0.00  0.00    -0.530 OA
BRANCH   9  16
ATOM     16  C   LIG    1       -4.189   3.489  -1.647  0.00  0.00    +0.050 C 
BRANCH  16  18
ATOM     17  C   LIG    1       -6.114   4.798  -2.555  0.00  0.00    +0.010 C 
ATOM     18  C   LIG    1       -4.730   4.228  -2.873  0.00  0.00    +0.030 C 
ENDBRANCH  16  18
ENDBRANCH   9  16
ENDBRANCH   1  14
BRANCH   5  19
ATOM     19  C   LIG    1        3.624  -2.200  -3.509  0.00  0.00    +0.330 C 
BRANCH  19  20
ATOM     20  C   LIG    1        4.898  -1.586  -2.990  0.00  0.00    +0.170 A 
ATOM     21  N   LIG    1        5.838  -1.044  -3.705  0.00  0.00    -0.360 NA
ATOM     22  O   LIG    1        6.730  -0.639  -2.990  0.00  0.00    +0.080 OA
ATOM     23  C   LIG    1        6.439  -0.900  -1.712  0.00  0.00    +0.180 A 
ATOM     24  C   LIG    1        7.287  -0.564  -0.512  0.00  0.00    +0.250 C 
ATOM     25  N   LIG    1        5.274  -1.502  -1.701  0.00  0.00    -0.480 NA
ENDBRANCH  19  20
ENDBRANCH   5  19
TORSDOF 5
