REMARK  Name = ZINCrg000000mTvZ.1
REMARK                            x       y       z     vdW  Elec       q    Type
REMARK                         _______ _______ _______ _____ _____    ______ ____
ROOT
ATOM      1  N   LIG    1        0.646  -4.099   1.982  0.00  0.00    -0.740 N 
ATOM      2  H   LIG    1        0.968  -4.500   1.159  0.00  0.00    +0.400 HD
ATOM      3  C   LIG    1        0.631  -2.759   2.118  0.00  0.00    +0.710 C 
ATOM      4  N   LIG    1        0.964  -1.972   1.076  0.00  0.00    -0.630 N 
ATOM      5  C   LIG    1        1.452  -2.559  -0.179  0.00  0.00    +0.250 C 
ATOM      6  C   LIG    1        0.597  -2.030  -1.336  0.00  0.00    +0.020 C 
ATOM      7  C   LIG    1        0.605  -0.500  -1.313  0.00  0.00    +0.030 C 
ATOM      8  C   LIG    1       -0.002  -0.005   0.002  0.00  0.00    -0.020 C 
ATOM      9  C   LIG    1        0.846  -0.510   1.174  0.00  0.00    +0.300 C 
ATOM     10  O   LIG    1        0.316  -2.259   3.181  0.00  0.00    -0.580 OA
ENDROOT
BRANCH   1  11
ATOM     11  C   LIG    1        0.178  -4.952   3.078  0.00  0.00    +0.400 C 
BRANCH  11  14
ATOM     12  C   LIG    1       -0.415  -8.266   1.696  0.00  0.00    +0.020 A 
ATOM     13  N   LIG    1       -0.631  -7.027   1.983  0.00  0.00    -0.440 NA
ATOM     14  C   LIG    1        0.299  -6.399   2.674  0.00  0.00    +0.040 A 
ATOM     15  C   LIG    1        1.361  -7.150   2.983  0.00  0.00    -0.040 A 
ATOM     16  S   LIG    1        1.094  -8.763   2.328  0.00  0.00    +0.170 S 
BRANCH  12  17
ATOM     17  C   LIG    1       -1.357  -9.148   0.917  0.00  0.00    +0.390 C 
BRANCH  17  20
ATOM     18  C   LIG    1       -1.442  -9.664  -2.875  0.00  0.00    +0.110 C 
ATOM     19  C   LIG    1       -1.763  -9.761  -1.406  0.00  0.00    +0.510 C 
ATOM     20  N   LIG    1       -1.045  -9.054  -0.511  0.00  0.00    -0.730 N 
ATOM     21  H   LIG    1       -0.321  -8.482  -0.813  0.00  0.00    +0.400 HD
ATOM     22  O   LIG    1       -2.667 -10.476  -1.028  0.00  0.00    -0.540 OA
ENDBRANCH  17  20
ENDBRANCH  12  17
ENDBRANCH  11  14
ENDBRANCH   1  11
BRANCH   8  23
ATOM     23  C   LIG    1       -0.023   1.525   0.010  0.00  0.00    +0.180 C 
BRANCH  23  24
ATOM     24  N   LIG    1       -0.710   1.998   1.219  0.00  0.00    -0.530 NA
ATOM     25  C   LIG    1       -2.134   1.635   1.193  0.00  0.00    +0.150 C 
ATOM     26  C   LIG    1       -2.797   2.094   2.494  0.00  0.00    +0.220 C 
ATOM     27  O   LIG    1       -2.600   3.502   2.653  0.00  0.00    -0.390 OA
ATOM     28  C   LIG    1       -1.224   3.891   2.684  0.00  0.00    +0.220 C 
ATOM     29  C   LIG    1       -0.546   3.450   1.384  0.00  0.00    +0.150 C 
ENDBRANCH  23  24
ENDBRANCH   8  23
TORSDOF 6
