REMARK  Name = ZINCrD000000Bth9.0
REMARK                            x       y       z     vdW  Elec       q    Type
REMARK                         _______ _______ _______ _____ _____    ______ ____
ROOT
ATOM      1  C   LIG    1        1.887  -1.342   3.900  0.00  0.00    -0.080 A 
ATOM      2  C   LIG    1        0.506  -1.153   3.817  0.00  0.00    +0.070 A 
ATOM      3  C   LIG    1       -0.061  -0.745   2.627  0.00  0.00    +0.130 A 
ATOM      4  C   LIG    1        0.735  -0.524   1.518  0.00  0.00    -0.660 A 
ATOM      5  C   LIG    1        2.103  -0.715   1.591  0.00  0.00    +0.120 A 
ATOM      6  C   LIG    1        2.684  -1.118   2.776  0.00  0.00    +0.030 A 
ENDROOT
BRANCH   1   8
ATOM      7  O   LIG    1        1.804  -1.975   6.147  0.00  0.00    -0.520 OA
ATOM      8  C   LIG    1        2.501  -1.780   5.171  0.00  0.00    +0.560 C 
ATOM      9  N   LIG    1        3.834  -1.962   5.247  0.00  0.00    -0.720 N 
ATOM     10  H   LIG    1        4.391  -1.806   4.468  0.00  0.00    +0.400 HD
BRANCH   9  11
ATOM     11  C   LIG    1        4.444  -2.395   6.507  0.00  0.00    +0.340 C 
BRANCH  11  12
ATOM     12  C   LIG    1        5.934  -2.523   6.327  0.00  0.00    -0.110 A 
ATOM     13  C   LIG    1        6.779  -1.565   6.855  0.00  0.00    +0.050 A 
ATOM     14  C   LIG    1        8.147  -1.682   6.689  0.00  0.00    +0.010 A 
ATOM     15  C   LIG    1        8.670  -2.757   5.995  0.00  0.00    +0.040 A 
ATOM     16  C   LIG    1        7.826  -3.715   5.465  0.00  0.00    +0.030 A 
ATOM     17  C   LIG    1        6.458  -3.602   5.636  0.00  0.00    -0.020 A 
ATOM     18 CL   LIG    1        5.398  -4.809   4.979  0.00  0.00    -0.060 Cl
ENDBRANCH  11  12
ENDBRANCH   9  11
ENDBRANCH   1   8
BRANCH   4  19
ATOM     19  S   LIG    1        0.002  -0.004   0.002  0.00  0.00    +2.700 S 
ATOM     20  O   LIG    1        0.900  -0.388  -1.030  0.00  0.00    -0.950 OA
ATOM     21  O   LIG    1       -1.355  -0.424   0.048  0.00  0.00    -0.950 OA
BRANCH  19  22
ATOM     22  N   LIG    1       -0.020   1.652   0.011  0.00  0.00    -1.110 NA
ATOM     23  H   LIG    1       -0.867   2.125   0.018  0.00  0.00    +0.420 HD
BRANCH  22  24
ATOM     24  C   LIG    1        1.238   2.401   0.003  0.00  0.00    +0.400 C 
BRANCH  24  25
ATOM     25  C   LIG    1        0.964   3.840  -0.354  0.00  0.00    -0.040 A 
ATOM     26  C   LIG    1        0.681   4.826   0.515  0.00  0.00    -0.030 A 
ATOM     27  C   LIG    1        0.499   6.003  -0.246  0.00  0.00    -0.070 A 
ATOM     28  C   LIG    1        0.674   5.664  -1.536  0.00  0.00    +0.190 A 
ATOM     29  O   LIG    1        0.955   4.352  -1.595  0.00  0.00    -0.170 OA
ENDBRANCH  24  25
ENDBRANCH  22  24
ENDBRANCH  19  22
ENDBRANCH   4  19
TORSDOF 7
