REMARK  Name = ZINCvU0000000JSr.0
REMARK                            x       y       z     vdW  Elec       q    Type
REMARK                         _______ _______ _______ _____ _____    ______ ____
ROOT
ATOM      1  C   LIG    1        3.013   5.927   0.004  0.00  0.00    +0.160 A 
ATOM      2  N   LIG    1        1.863   6.562   0.018  0.00  0.00    -0.280 NA
ATOM      3  N   LIG    1        0.892   5.720   0.018  0.00  0.00    -0.270 NA
ATOM      4  C   LIG    1        1.360   4.493   0.013  0.00  0.00    +0.280 A 
ATOM      5  N   LIG    1        2.735   4.586  -0.000  0.00  0.00    -0.420 N 
ENDROOT
BRANCH   4   6
ATOM      6  C   LIG    1        0.563   3.248   0.014  0.00  0.00    -0.140 A 
ATOM      7  C   LIG    1       -0.793   3.141   0.026  0.00  0.00    +0.070 A 
ATOM      8  O   LIG    1       -1.116   1.839   0.017  0.00  0.00    -0.170 OA
ATOM      9  C   LIG    1       -0.013   1.076   0.008  0.00  0.00    +0.180 A 
ATOM     10  C   LIG    1       -1.768   4.290   0.041  0.00  0.00    +0.200 C 
ATOM     11  C   LIG    1        1.071   1.870   0.002  0.00  0.00    -0.040 A 
ENDBRANCH   4   6
BRANCH   5  12
ATOM     12  C   LIG    1        3.655   3.529  -0.014  0.00  0.00    +0.110 A 
ATOM     13  C   LIG    1        3.744   2.669   1.073  0.00  0.00    +0.030 A 
ATOM     14  C   LIG    1        4.649   1.626   1.054  0.00  0.00    +0.030 A 
ATOM     15  C   LIG    1        5.474   1.444  -0.040  0.00  0.00    +0.030 A 
ATOM     16  C   LIG    1        5.391   2.301  -1.122  0.00  0.00    +0.040 A 
ATOM     17  C   LIG    1        4.485   3.343  -1.112  0.00  0.00    +0.030 A 
ENDBRANCH   5  12
BRANCH   1  18
ATOM     18  S   LIG    1        4.614   6.663  -0.009  0.00  0.00    +0.020 S 
BRANCH  18  19
ATOM     19  C   LIG    1        4.155   8.414   0.004  0.00  0.00    +0.170 C 
BRANCH  19  25
ATOM     20  C   LIG    1        5.963   9.655  -1.214  0.00  0.00    +0.190 A 
ATOM     21  C   LIG    1        7.113  10.437  -1.230  0.00  0.00    -0.080 A 
ATOM     22  C   LIG    1        7.700  10.822  -0.045  0.00  0.00    +0.120 A 
ATOM     23  C   LIG    1        7.135  10.423   1.172  0.00  0.00    -0.210 A 
ATOM     24  C   LIG    1        5.973   9.641   1.177  0.00  0.00    +0.140 A 
ATOM     25  C   LIG    1        5.402   9.260  -0.004  0.00  0.00    -0.130 A 
BRANCH  23  26
ATOM     26  C   LIG    1        7.755  10.829   2.440  0.00  0.00    +0.400 C 
ATOM     27  O   LIG    1        7.263  10.483   3.494  0.00  0.00    -0.460 OA
ATOM     28  C   LIG    1        9.001  11.675   2.432  0.00  0.00    +0.080 C 
ENDBRANCH  23  26
BRANCH  20  29
ATOM     29  O   LIG    1        5.386   9.277  -2.382  0.00  0.00    -0.300 OA
BRANCH  29  31
ATOM     30  C   LIG    1        5.226   9.197  -4.792  0.00  0.00    +0.070 C 
ATOM     31  C   LIG    1        6.013   9.718  -3.587  0.00  0.00    +0.190 C 
ENDBRANCH  29  31
ENDBRANCH  20  29
ENDBRANCH  19  25
ENDBRANCH  18  19
ENDBRANCH   1  18
TORSDOF 8
