REMARK  Name = ZINCpe00000IDRGs.0
REMARK                            x       y       z     vdW  Elec       q    Type
REMARK                         _______ _______ _______ _____ _____    ______ ____
ROOT
ATOM      1  N   LIG    1        1.245  -0.498  -0.013  0.00  0.00    -0.410 N 
ATOM      2  C   LIG    1        0.002  -0.004   0.002  0.00  0.00    +0.700 C 
ATOM      3  N   LIG    1       -0.016   1.341   0.009  0.00  0.00    -0.700 N 
ATOM      4  H   LIG    1       -0.802   1.910   0.016  0.00  0.00    +0.450 HD
ATOM      5  C   LIG    1        1.389   1.782  -0.002  0.00  0.00    +0.180 C 
ATOM      6  C   LIG    1        1.687   2.602  -1.258  0.00  0.00    +0.110 C 
ATOM      7  O   LIG    1       -0.999  -0.693   0.008  0.00  0.00    -0.510 OA
ATOM      8  C   LIG    1        2.170   0.482  -0.016  0.00  0.00    +0.530 C 
ATOM      9  O   LIG    1        3.375   0.352  -0.028  0.00  0.00    -0.430 OA
ENDROOT
BRANCH   5  10
ATOM     10  C   LIG    1        1.706   2.576   1.239  0.00  0.00    -0.070 A 
ATOM     11  C   LIG    1        2.977   2.534   1.781  0.00  0.00    -0.010 A 
ATOM     12  C   LIG    1        3.272   3.266   2.916  0.00  0.00    +0.060 A 
ATOM     13  C   LIG    1        2.293   4.033   3.518  0.00  0.00    -0.060 A 
ATOM     14  C   LIG    1        1.015   4.073   2.980  0.00  0.00    +0.130 A 
ATOM     15  C   LIG    1        0.724   3.342   1.838  0.00  0.00    +0.000 A 
BRANCH  14  16
ATOM     16  O   LIG    1        0.051   4.826   3.571  0.00  0.00    -0.310 OA
ATOM     17  C   LIG    1        0.423   5.552   4.744  0.00  0.00    +0.250 C 
ENDBRANCH  14  16
ENDBRANCH   5  10
BRANCH   1  18
ATOM     18  N   LIG    1        1.548  -1.866  -0.022  0.00  0.00    -0.460 N 
ATOM     19  H   LIG    1        1.873  -2.296   0.784  0.00  0.00    +0.450 HD
BRANCH  18  20
ATOM     20  C   LIG    1        1.389  -2.584  -1.151  0.00  0.00    +0.570 C 
ATOM     21  S   LIG    1        1.759  -4.255  -1.163  0.00  0.00    -0.570 S 
BRANCH  20  22
ATOM     22  N   LIG    1        0.938  -1.986  -2.272  0.00  0.00    -0.660 N 
ATOM     23  H   LIG    1        0.728  -1.039  -2.265  0.00  0.00    +0.400 HD
BRANCH  22  24
ATOM     24  C   LIG    1        0.764  -2.766  -3.500  0.00  0.00    +0.270 C 
ATOM     25  C   LIG    1        2.095  -2.838  -4.250  0.00  0.00    +0.060 C 
BRANCH  24  26
ATOM     26  C   LIG    1       -0.286  -2.094  -4.387  0.00  0.00    +0.190 C 
BRANCH  26  28
ATOM     27  C   LIG    1       -0.712  -0.104  -5.653  0.00  0.00    +0.210 C 
ATOM     28  O   LIG    1        0.197  -0.819  -4.814  0.00  0.00    -0.390 OA
ENDBRANCH  26  28
ENDBRANCH  24  26
ENDBRANCH  22  24
ENDBRANCH  20  22
ENDBRANCH  18  20
ENDBRANCH   1  18
TORSDOF 8
