REMARK  Name = ZINCrH000004jimf.0
REMARK                            x       y       z     vdW  Elec       q    Type
REMARK                         _______ _______ _______ _____ _____    ______ ____
ROOT
ATOM      1  N   LIG    1        1.178  -0.662  -0.012  0.00  0.00    -0.670 N 
ATOM      2  H   LIG    1        2.007  -0.160   0.032  0.00  0.00    +0.410 HD
ATOM      3  C   LIG    1        0.006  -0.016  -0.168  0.00  0.00    +0.600 C 
ATOM      4  O   LIG    1       -1.022  -0.649  -0.319  0.00  0.00    -0.520 OA
ENDROOT
BRANCH   1   9
ATOM      5  C   LIG    1       -0.166  -6.222   1.142  0.00  0.00    +0.250 A 
ATOM      6  N   LIG    1       -0.672  -5.038   1.318  0.00  0.00    -0.480 NA
ATOM      7  C   LIG    1        0.179  -4.115   0.792  0.00  0.00    +0.040 A 
ATOM      8  C   LIG    1        0.155  -2.723   0.701  0.00  0.00    +0.080 A 
ATOM      9  C   LIG    1        1.200  -2.059   0.086  0.00  0.00    +0.150 A 
ATOM     10  C   LIG    1        2.278  -2.773  -0.432  0.00  0.00    +0.030 A 
ATOM     11  C   LIG    1        2.312  -4.148  -0.341  0.00  0.00    +0.070 A 
ATOM     12  C   LIG    1        1.268  -4.828   0.269  0.00  0.00    -0.010 A 
ATOM     13  O   LIG    1        1.013  -6.134   0.507  0.00  0.00    -0.210 OA
BRANCH   5  15
ATOM     14  C   LIG    1       -1.706  -8.044   0.468  0.00  0.00    +0.060 C 
ATOM     15  C   LIG    1       -0.811  -7.509   1.587  0.00  0.00    +0.180 C 
ENDBRANCH   5  15
ENDBRANCH   1   9
BRANCH   3  16
ATOM     16  C   LIG    1       -0.031   1.458  -0.154  0.00  0.00    -0.300 A 
ATOM     17  C   LIG    1       -1.151   2.250  -0.306  0.00  0.00    +0.200 A 
ATOM     18  N   LIG    1       -0.749   3.533  -0.228  0.00  0.00    -0.310 N 
ATOM     19  N   LIG    1        0.637   3.551  -0.035  0.00  0.00    -0.280 NA
ATOM     20  C   LIG    1        1.074   2.323   0.011  0.00  0.00    +0.300 A 
BRANCH  18  21
ATOM     21  C   LIG    1       -1.575   4.656  -0.328  0.00  0.00    +0.350 A 
ATOM     22  C   LIG    1       -1.186   5.852   0.261  0.00  0.00    +0.000 A 
ATOM     23  C   LIG    1       -2.011   6.958   0.150  0.00  0.00    +0.100 A 
ATOM     24  C   LIG    1       -3.207   6.825  -0.540  0.00  0.00    -0.020 A 
ATOM     25  C   LIG    1       -3.533   5.603  -1.097  0.00  0.00    +0.300 A 
ATOM     26  N   LIG    1       -2.724   4.569  -0.979  0.00  0.00    -0.490 NA
ENDBRANCH  18  21
BRANCH  17  27
ATOM     27  C   LIG    1       -2.563   1.769  -0.518  0.00  0.00    +0.130 C 
ATOM     28  C   LIG    1       -2.834   1.625  -2.017  0.00  0.00    +0.060 C 
ENDBRANCH  17  27
ENDBRANCH   3  16
TORSDOF 5
