REMARK  Name = ZINCrg000000p4y1.1
REMARK                            x       y       z     vdW  Elec       q    Type
REMARK                         _______ _______ _______ _____ _____    ______ ____
ROOT
ATOM      1  C   LIG    1        3.339   6.363   2.183  0.00  0.00    +0.520 C 
ATOM      2  N   LIG    1        3.268   5.476   1.170  0.00  0.00    -0.610 N 
ATOM      3  C   LIG    1        4.087   5.652  -0.037  0.00  0.00    +0.260 C 
ATOM      4  C   LIG    1        3.171   5.619  -1.264  0.00  0.00    +0.020 C 
ATOM      5  C   LIG    1        2.346   4.330  -1.246  0.00  0.00    +0.030 C 
ATOM      6  C   LIG    1        1.473   4.299   0.011  0.00  0.00    +0.090 C 
ATOM      7  C   LIG    1        2.369   4.317   1.253  0.00  0.00    +0.300 C 
ATOM      8  O   LIG    1        2.657   6.207   3.174  0.00  0.00    -0.540 OA
ENDROOT
BRANCH   6   9
ATOM      9  C   LIG    1        0.637   3.045   0.011  0.00  0.00    +0.240 A 
ATOM     10  N   LIG    1        1.102   1.823   0.001  0.00  0.00    -0.310 NA
ATOM     11  N   LIG    1       -0.011   0.966   0.007  0.00  0.00    -0.480 N 
ATOM     12  H   LIG    1        0.002  -0.004   0.002  0.00  0.00    +0.440 HD
ATOM     13  C   LIG    1       -1.098   1.757   0.016  0.00  0.00    +0.320 A 
ATOM     14  N   LIG    1       -0.694   3.001   0.024  0.00  0.00    -0.530 NA
BRANCH  13  15
ATOM     15  C   LIG    1       -2.531   1.291   0.020  0.00  0.00    +0.050 C 
ATOM     16  C   LIG    1       -2.851  -0.005   0.767  0.00  0.00    +0.050 C 
ATOM     17  C   LIG    1       -2.863   0.019  -0.763  0.00  0.00    +0.050 C 
ENDBRANCH  13  15
ENDBRANCH   6   9
BRANCH   1  18
ATOM     18  C   LIG    1        4.265   7.548   2.084  0.00  0.00    +0.060 C 
BRANCH  18  19
ATOM     19  C   LIG    1        4.154   8.389   3.357  0.00  0.00    +0.040 C 
BRANCH  19  20
ATOM     20  C   LIG    1        5.094   9.592   3.256  0.00  0.00    +0.320 C 
BRANCH  20  25
ATOM     21  C   LIG    1        6.083  11.170   7.864  0.00  0.00    +0.350 C 
ATOM     22  N   LIG    1        5.449  11.089   6.545  0.00  0.00    -0.630 N 
ATOM     23  C   LIG    1        4.366  11.947   6.035  0.00  0.00    +0.300 C 
ATOM     24  C   LIG    1        4.121  11.417   4.636  0.00  0.00    +0.520 C 
ATOM     25  N   LIG    1        4.988  10.398   4.475  0.00  0.00    -0.580 N 
ATOM     26  O   LIG    1        3.312  11.825   3.830  0.00  0.00    -0.470 OA
ATOM     27  C   LIG    1        5.744  10.217   5.564  0.00  0.00    +0.700 C 
ATOM     28  O   LIG    1        6.601   9.360   5.657  0.00  0.00    -0.540 OA
ENDBRANCH  20  25
ENDBRANCH  19  20
ENDBRANCH  18  19
ENDBRANCH   1  18
TORSDOF 6
