REMARK  Name = ZINCrg000000p4y1.0
REMARK                            x       y       z     vdW  Elec       q    Type
REMARK                         _______ _______ _______ _____ _____    ______ ____
ROOT
ATOM      1  C   LIG    1        3.121  -0.629  -1.530  0.00  0.00    +0.520 C 
ATOM      2  N   LIG    1        2.018   0.128  -1.367  0.00  0.00    -0.620 N 
ATOM      3  C   LIG    1        2.120   1.591  -1.279  0.00  0.00    +0.260 C 
ATOM      4  C   LIG    1        1.417   2.058  -0.000  0.00  0.00    +0.040 C 
ATOM      5  C   LIG    1       -0.019   1.526   0.010  0.00  0.00    +0.020 C 
ATOM      6  C   LIG    1        0.002  -0.004   0.002  0.00  0.00    +0.100 C 
ATOM      7  C   LIG    1        0.690  -0.494  -1.276  0.00  0.00    +0.290 C 
ATOM      8  O   LIG    1        3.023  -1.836  -1.602  0.00  0.00    -0.530 OA
ENDROOT
BRANCH   6   9
ATOM      9  C   LIG    1       -1.411  -0.526   0.045  0.00  0.00    +0.190 A 
ATOM     10  N   LIG    1       -1.818  -1.605   0.657  0.00  0.00    -0.280 NA
ATOM     11  N   LIG    1       -3.085  -1.747   0.486  0.00  0.00    -0.280 NA
ATOM     12  C   LIG    1       -3.543  -0.766  -0.242  0.00  0.00    +0.210 A 
ATOM     13  N   LIG    1       -2.495   0.040  -0.538  0.00  0.00    -0.580 N 
ATOM     14  H   LIG    1       -2.515   0.855  -1.063  0.00  0.00    +0.430 HD
BRANCH  12  15
ATOM     15  C   LIG    1       -4.974  -0.563  -0.669  0.00  0.00    +0.060 C 
ATOM     16  C   LIG    1       -5.368   0.823  -1.184  0.00  0.00    +0.030 C 
ATOM     17  C   LIG    1       -5.845   0.353   0.192  0.00  0.00    +0.060 C 
ENDBRANCH  12  15
ENDBRANCH   6   9
BRANCH   1  18
ATOM     18  C   LIG    1        4.476   0.024  -1.621  0.00  0.00    +0.060 C 
BRANCH  18  19
ATOM     19  C   LIG    1        5.549  -1.052  -1.802  0.00  0.00    +0.040 C 
BRANCH  19  20
ATOM     20  C   LIG    1        6.925  -0.389  -1.895  0.00  0.00    +0.320 C 
BRANCH  20  25
ATOM     21  C   LIG    1       10.354  -3.764  -0.650  0.00  0.00    +0.340 C 
ATOM     22  N   LIG    1        9.487  -2.929  -1.486  0.00  0.00    -0.630 N 
ATOM     23  C   LIG    1        9.429  -2.918  -2.958  0.00  0.00    +0.300 C 
ATOM     24  C   LIG    1        8.372  -1.875  -3.265  0.00  0.00    +0.520 C 
ATOM     25  N   LIG    1        7.952  -1.419  -2.069  0.00  0.00    -0.580 N 
ATOM     26  O   LIG    1        7.985  -1.526  -4.359  0.00  0.00    -0.470 OA
ATOM     27  C   LIG    1        8.594  -2.018  -1.059  0.00  0.00    +0.700 C 
ATOM     28  O   LIG    1        8.389  -1.770   0.113  0.00  0.00    -0.540 OA
ENDBRANCH  20  25
ENDBRANCH  19  20
ENDBRANCH  18  19
ENDBRANCH   1  18
TORSDOF 6
