REMARK  Name = ZINCpk00001AZiqa.0
REMARK                            x       y       z     vdW  Elec       q    Type
REMARK                         _______ _______ _______ _____ _____    ______ ____
ROOT
ATOM      1  C   LIG    1       -0.014   1.212   0.009  0.00  0.00    +0.560 C 
ATOM      2  N   LIG    1        0.968   1.580   0.855  0.00  0.00    -0.600 N 
ATOM      3  C   LIG    1        0.787   2.723   1.760  0.00  0.00    +0.270 C 
ATOM      4  C   LIG    1        1.085   2.262   3.195  0.00  0.00    +0.010 C 
ATOM      5  C   LIG    1        2.481   1.637   3.244  0.00  0.00    +0.120 C 
ATOM      6  C   LIG    1        2.527   0.414   2.326  0.00  0.00    +0.050 C 
ATOM      7  C   LIG    1        2.243   0.850   0.885  0.00  0.00    +0.300 C 
ATOM      8  O   LIG    1        0.176   0.316  -0.791  0.00  0.00    -0.520 OA
ENDROOT
BRANCH   1  13
ATOM      9  C   LIG    1       -3.726   1.822   0.237  0.00  0.00    -0.020 A 
ATOM     10  C   LIG    1       -3.771   3.211   0.123  0.00  0.00    +0.090 A 
ATOM     11  C   LIG    1       -2.604   3.935  -0.027  0.00  0.00    +0.010 A 
ATOM     12  C   LIG    1       -1.384   3.291  -0.064  0.00  0.00    +0.080 A 
ATOM     13  C   LIG    1       -1.321   1.899   0.050  0.00  0.00    -0.160 A 
ATOM     14  C   LIG    1       -2.497   1.161   0.195  0.00  0.00    +0.170 A 
ATOM     15  F   LIG    1       -2.445  -0.185   0.300  0.00  0.00    -0.120 F 
BRANCH   9  17
ATOM     16  C   LIG    1       -5.931   0.462   0.520  0.00  0.00    +0.090 C 
ATOM     17  C   LIG    1       -4.938   1.074   0.393  0.00  0.00    -0.170 C 
ENDBRANCH   9  17
ENDBRANCH   1  13
BRANCH   5  18
ATOM     18  O   LIG    1        3.447   2.596   2.808  0.00  0.00    -0.550 OA
ATOM     19  H   LIG    1        3.474   3.400   3.345  0.00  0.00    +0.370 HD
ENDBRANCH   5  18
BRANCH   5  20
ATOM     20  C   LIG    1        2.799   1.211   4.678  0.00  0.00    +0.270 C 
BRANCH  20  21
ATOM     21  N   LIG    1        2.639   2.358   5.576  0.00  0.00    -0.620 N 
ATOM     22  C   LIG    1        1.445   2.601   6.152  0.00  0.00    +0.540 C 
ATOM     23  O   LIG    1        0.500   1.869   5.927  0.00  0.00    -0.530 OA
ATOM     24  C   LIG    1        3.776   3.240   5.847  0.00  0.00    +0.290 C 
BRANCH  22  25
ATOM     25  C   LIG    1        1.284   3.753   7.053  0.00  0.00    -0.100 C 
ATOM     26  C   LIG    1        0.106   3.993   7.621  0.00  0.00    +0.140 C 
ENDBRANCH  22  25
ENDBRANCH  20  21
ENDBRANCH   5  20
TORSDOF 6
