REMARK  Name = ZINCqH0000037jMt.0
REMARK                            x       y       z     vdW  Elec       q    Type
REMARK                         _______ _______ _______ _____ _____    ______ ____
ROOT
ATOM      1  C   LIG    1       -2.142   1.056   1.275  0.00  0.00    +0.540 C 
ATOM      2  N   LIG    1       -3.091   1.667   0.539  0.00  0.00    -0.660 N 
ATOM      3  H   LIG    1       -2.883   2.485   0.060  0.00  0.00    +0.420 HD
ATOM      4  O   LIG    1       -2.427   0.092   1.954  0.00  0.00    -0.500 OA
ENDROOT
BRANCH   2   5
ATOM      5  C   LIG    1       -4.377   1.123   0.467  0.00  0.00    +0.160 A 
ATOM      6  C   LIG    1       -4.572  -0.233   0.681  0.00  0.00    +0.020 A 
ATOM      7  C   LIG    1       -5.844  -0.768   0.613  0.00  0.00    +0.040 A 
ATOM      8  C   LIG    1       -6.928   0.042   0.321  0.00  0.00    +0.000 A 
ATOM      9  C   LIG    1       -6.748   1.392   0.100  0.00  0.00    +0.040 A 
ATOM     10  C   LIG    1       -5.471   1.944   0.171  0.00  0.00    -0.080 A 
BRANCH  10  11
ATOM     11  C   LIG    1       -5.272   3.395  -0.065  0.00  0.00    -0.050 A 
ATOM     12  C   LIG    1       -4.543   4.158   0.845  0.00  0.00    +0.000 A 
ATOM     13  C   LIG    1       -4.358   5.507   0.618  0.00  0.00    +0.010 A 
ATOM     14  C   LIG    1       -4.902   6.103  -0.505  0.00  0.00    +0.000 A 
ATOM     15  C   LIG    1       -5.631   5.351  -1.409  0.00  0.00    +0.010 A 
ATOM     16  C   LIG    1       -5.819   4.001  -1.194  0.00  0.00    +0.030 A 
ENDBRANCH  10  11
ENDBRANCH   2   5
BRANCH   1  18
ATOM     17  C   LIG    1       -0.018   1.069  -0.005  0.00  0.00    +0.100 C 
ATOM     18  C   LIG    1       -0.726   1.571   1.256  0.00  0.00    +0.010 C 
BRANCH  18  19
ATOM     19  S   LIG    1        0.154   0.973   2.720  0.00  0.00    +0.120 S 
BRANCH  19  20
ATOM     20  C   LIG    1        1.685   1.823   2.525  0.00  0.00    +0.200 A 
ATOM     21  N   LIG    1        2.006   2.641   1.546  0.00  0.00    -0.330 NA
ATOM     22  N   LIG    1        3.197   3.093   1.710  0.00  0.00    -0.030 NA
ATOM     23  N   LIG    1        3.720   2.600   2.780  0.00  0.00    -0.080 NA
ATOM     24  N   LIG    1        2.755   1.754   3.353  0.00  0.00    -0.330 N 
BRANCH  24  25
ATOM     25  C   LIG    1        2.880   0.965   4.581  0.00  0.00    +0.210 C 
ATOM     26  C   LIG    1        4.113   1.206   5.453  0.00  0.00    +0.090 C 
ATOM     27  C   LIG    1        3.993  -0.083   4.637  0.00  0.00    +0.070 C 
ENDBRANCH  24  25
ENDBRANCH  19  20
ENDBRANCH  18  19
ENDBRANCH   1  18
TORSDOF 6
