REMARK  Name = ZINCqH0000006LqA.0
REMARK                            x       y       z     vdW  Elec       q    Type
REMARK                         _______ _______ _______ _____ _____    ______ ____
ROOT
ATOM      1  C   LIG    1       -1.643  -1.734  -0.485  0.00  0.00    +0.510 C 
ATOM      2  N   LIG    1       -1.372  -0.511   0.012  0.00  0.00    -0.730 N 
ATOM      3  H   LIG    1       -2.087   0.033   0.377  0.00  0.00    +0.400 HD
ATOM      4  O   LIG    1       -0.749  -2.415  -0.941  0.00  0.00    -0.520 OA
ENDROOT
BRANCH   2   5
ATOM      5  C   LIG    1        0.002  -0.004   0.002  0.00  0.00    +0.230 C 
ATOM      6  C   LIG    1        0.742  -0.511   1.242  0.00  0.00    +0.000 C 
ATOM      7  C   LIG    1        2.178   0.019   1.231  0.00  0.00    +0.010 C 
ATOM      8  C   LIG    1        2.157   1.548   1.239  0.00  0.00    -0.010 C 
ATOM      9  C   LIG    1        3.592   2.078   1.228  0.00  0.00    +0.010 C 
ATOM     10  C   LIG    1        4.308   1.585  -0.031  0.00  0.00    +0.000 C 
ATOM     11  C   LIG    1        3.568   2.091  -1.270  0.00  0.00    +0.000 C 
ATOM     12  C   LIG    1        2.133   1.562  -1.259  0.00  0.00    +0.010 C 
ATOM     13  C   LIG    1        1.417   2.055  -0.000  0.00  0.00    -0.010 C 
ATOM     14  C   LIG    1       -0.019   1.526   0.010  0.00  0.00    +0.020 C 
ENDBRANCH   2   5
BRANCH   1  15
ATOM     15  C   LIG    1       -3.057  -2.256  -0.474  0.00  0.00    +0.120 C 
BRANCH  15  18
ATOM     16  C   LIG    1       -2.945  -6.016  -0.833  0.00  0.00    +0.150 A 
ATOM     17  C   LIG    1       -2.917  -4.746  -0.278  0.00  0.00    -0.090 A 
ATOM     18  C   LIG    1       -3.088  -3.635  -1.082  0.00  0.00    +0.010 A 
ATOM     19  C   LIG    1       -3.294  -3.784  -2.440  0.00  0.00    -0.090 A 
ATOM     20  C   LIG    1       -3.318  -5.051  -3.004  0.00  0.00    +0.150 A 
ATOM     21  C   LIG    1       -3.146  -6.171  -2.200  0.00  0.00    +0.030 A 
BRANCH  16  23
ATOM     22  C   LIG    1       -2.573  -6.875   1.353  0.00  0.00    +0.240 C 
ATOM     23  O   LIG    1       -2.775  -7.109  -0.042  0.00  0.00    -0.300 OA
ENDBRANCH  16  23
BRANCH  20  24
ATOM     24  O   LIG    1       -3.514  -5.197  -4.342  0.00  0.00    -0.300 OA
ATOM     25  C   LIG    1       -3.684  -4.003  -5.107  0.00  0.00    +0.240 C 
ENDBRANCH  20  24
BRANCH  21  26
ATOM     26  O   LIG    1       -3.173  -7.416  -2.749  0.00  0.00    -0.310 OA
ATOM     27  C   LIG    1       -4.444  -8.066  -2.819  0.00  0.00    +0.210 C 
ENDBRANCH  21  26
ENDBRANCH  15  18
ENDBRANCH   1  15
TORSDOF 6
