REMARK  Name = ZINCpe000000YCgF.0
REMARK                            x       y       z     vdW  Elec       q    Type
REMARK                         _______ _______ _______ _____ _____    ______ ____
ROOT
ATOM      1  C   LIG    1       -4.751   0.568  -0.342  0.00  0.00    +0.010 C 
ATOM      2  C   LIG    1       -3.964  -0.732  -0.057  0.00  0.00    +0.090 C 
ATOM      3  C   LIG    1       -2.514  -0.301  -0.084  0.00  0.00    +0.520 C 
ATOM      4  N   LIG    1       -2.427   1.036   0.019  0.00  0.00    -0.560 N 
ATOM      5  O   LIG    1       -1.568  -1.053  -0.184  0.00  0.00    -0.500 OA
ATOM      6  C   LIG    1       -3.755   1.649   0.140  0.00  0.00    +0.310 C 
ENDROOT
BRANCH   4   7
ATOM      7  C   LIG    1       -1.225   1.752   0.017  0.00  0.00    +0.160 A 
ATOM      8  C   LIG    1       -1.240   3.140   0.014  0.00  0.00    -0.020 A 
ATOM      9  C   LIG    1       -0.051   3.841   0.007  0.00  0.00    +0.050 A 
ATOM     10  C   LIG    1        1.158   3.165   0.008  0.00  0.00    -0.120 A 
ATOM     11  C   LIG    1        2.576   3.695   0.000  0.00  0.00    +0.070 C 
ATOM     12  C   LIG    1        3.452   2.502  -0.436  0.00  0.00    +0.030 C 
ATOM     13  C   LIG    1        2.609   1.290   0.014  0.00  0.00    +0.080 C 
ATOM     14  C   LIG    1        1.177   1.782   0.016  0.00  0.00    -0.070 A 
ATOM     15  C   LIG    1       -0.013   1.076   0.023  0.00  0.00    +0.010 A 
ENDBRANCH   4   7
BRANCH   1  20
ATOM     16  C   LIG    1       -8.665  -1.895   0.927  0.00  0.00    -0.010 C 
ATOM     17  C   LIG    1       -8.183  -2.281  -0.496  0.00  0.00    +0.070 C 
ATOM     18  C   LIG    1       -6.892  -1.451  -0.662  0.00  0.00    +0.250 C 
ATOM     19  N   LIG    1       -6.970  -0.329   0.285  0.00  0.00    -0.620 N 
ATOM     20  C   LIG    1       -6.024   0.615   0.464  0.00  0.00    +0.540 C 
ATOM     21  O   LIG    1       -6.198   1.502   1.272  0.00  0.00    -0.520 OA
ATOM     22  C   LIG    1       -8.256  -0.403   1.002  0.00  0.00    +0.300 C 
BRANCH  16  26
ATOM     23  N   LIG    1      -10.713  -3.280   1.012  0.00  0.00    -0.850 N 
ATOM     24  H   LIG    1      -11.674  -3.382   1.092  0.00  0.00    +0.410 HD
ATOM     25  H   LIG    1      -10.150  -4.063   0.902  0.00  0.00    +0.400 HD
ATOM     26  C   LIG    1      -10.159  -2.053   1.052  0.00  0.00    +0.530 C 
ATOM     27  O   LIG    1      -10.862  -1.074   1.190  0.00  0.00    -0.530 OA
ENDBRANCH  16  26
ENDBRANCH   1  20
TORSDOF 3
