REMARK  Name = ZINCpk00000eaKGc.0
REMARK                            x       y       z     vdW  Elec       q    Type
REMARK                         _______ _______ _______ _____ _____    ______ ____
ROOT
ATOM      1  N   LIG    1       -1.313   6.179   2.371  0.00  0.00    -0.740 N 
ATOM      2  H   LIG    1       -1.149   5.224   2.353  0.00  0.00    +0.400 HD
ATOM      3  C   LIG    1       -1.391   6.827   3.550  0.00  0.00    +0.700 C 
ATOM      4  N   LIG    1       -1.241   6.147   4.704  0.00  0.00    -0.740 N 
ATOM      5  H   LIG    1       -1.077   5.192   4.686  0.00  0.00    +0.400 HD
ATOM      6  O   LIG    1       -1.597   8.025   3.573  0.00  0.00    -0.590 OA
ENDROOT
BRANCH   1   7
ATOM      7  C   LIG    1       -1.476   6.919   1.117  0.00  0.00    +0.280 C 
BRANCH   7   9
ATOM      8  C   LIG    1       -1.390   6.744  -1.374  0.00  0.00    +0.040 C 
ATOM      9  C   LIG    1       -1.344   5.955  -0.064  0.00  0.00    +0.230 C 
BRANCH   9  10
ATOM     10  N   LIG    1       -0.069   5.239   0.030  0.00  0.00    -0.630 N 
ATOM     11  C   LIG    1        1.186   5.988   0.128  0.00  0.00    +0.280 C 
BRANCH  10  12
ATOM     12  C   LIG    1       -0.050   3.842   0.028  0.00  0.00    +0.210 A 
ATOM     13  C   LIG    1       -1.243   3.130   0.056  0.00  0.00    -0.080 A 
ATOM     14  C   LIG    1       -1.221   1.750   0.054  0.00  0.00    +0.050 A 
ATOM     15  C   LIG    1       -0.014   1.076   0.023  0.00  0.00    -0.060 A 
ATOM     16  C   LIG    1        1.175   1.782   0.001  0.00  0.00    +0.050 A 
ATOM     17  C   LIG    1        1.161   3.163  -0.003  0.00  0.00    -0.080 A 
ENDBRANCH  10  12
ENDBRANCH   9  10
ENDBRANCH   7   9
ENDBRANCH   1   7
BRANCH   4  18
ATOM     18  C   LIG    1       -1.326   6.852   5.986  0.00  0.00    +0.270 C 
BRANCH  18  19
ATOM     19  C   LIG    1       -1.122   5.856   7.129  0.00  0.00    +0.210 C 
ATOM     20  C   LIG    1        0.255   5.203   6.997  0.00  0.00    +0.070 C 
BRANCH  19  21
ATOM     21  C   LIG    1       -1.209   6.581   8.448  0.00  0.00    -0.280 A 
ATOM     22  C   LIG    1       -1.641   6.055   9.618  0.00  0.00    +0.260 A 
ATOM     23  N   LIG    1       -1.566   7.023  10.556  0.00  0.00    -0.370 N 
ATOM     24  N   LIG    1       -1.072   8.181   9.942  0.00  0.00    -0.290 NA
ATOM     25  C   LIG    1       -1.935   6.886  11.967  0.00  0.00    +0.360 C 
ATOM     26  C   LIG    1       -0.853   7.913   8.680  0.00  0.00    +0.240 A 
ENDBRANCH  19  21
BRANCH  19  27
ATOM     27  O   LIG    1       -2.134   4.849   7.071  0.00  0.00    -0.550 OA
ATOM     28  H   LIG    1       -3.035   5.192   7.149  0.00  0.00    +0.380 HD
ENDBRANCH  19  27
ENDBRANCH  18  19
ENDBRANCH   4  18
TORSDOF 8
