REMARK  Name = ZINCqH00000010V9.0
REMARK                            x       y       z     vdW  Elec       q    Type
REMARK                         _______ _______ _______ _____ _____    ______ ____
ROOT
ATOM      1  N   LIG    1       -1.113  -0.422  -2.422  0.00  0.00    -0.730 N 
ATOM      2  H   LIG    1       -0.162  -0.584  -2.520  0.00  0.00    +0.390 HD
ATOM      3  C   LIG    1       -1.999  -1.371  -2.785  0.00  0.00    +0.590 C 
ATOM      4  O   LIG    1       -3.192  -1.168  -2.661  0.00  0.00    -0.530 OA
ENDROOT
BRANCH   3   5
ATOM      5  C   LIG    1       -1.523  -2.653  -3.331  0.00  0.00    -0.280 A 
ATOM      6  C   LIG    1       -0.211  -3.030  -3.530  0.00  0.00    +0.300 A 
ATOM      7  N   LIG    1       -0.212  -4.270  -4.043  0.00  0.00    -0.460 N 
ATOM      8  H   LIG    1        0.580  -4.778  -4.279  0.00  0.00    +0.450 HD
ATOM      9  N   LIG    1       -1.528  -4.719  -4.186  0.00  0.00    -0.280 NA
ATOM     10  C   LIG    1       -2.349  -3.783  -3.765  0.00  0.00    +0.180 A 
BRANCH  10  11
ATOM     11  C   LIG    1       -3.830  -3.856  -3.739  0.00  0.00    -0.050 A 
ATOM     12  C   LIG    1       -4.541  -3.245  -2.707  0.00  0.00    +0.130 A 
ATOM     13  C   LIG    1       -5.919  -3.310  -2.690  0.00  0.00    -0.020 A 
ATOM     14  C   LIG    1       -6.596  -3.990  -3.689  0.00  0.00    +0.110 A 
ATOM     15  C   LIG    1       -5.892  -4.604  -4.714  0.00  0.00    -0.030 A 
ATOM     16  F   LIG    1       -7.945  -4.056  -3.666  0.00  0.00    -0.140 F 
ATOM     17  C   LIG    1       -4.514  -4.539  -4.742  0.00  0.00    +0.070 A 
ENDBRANCH  10  11
ENDBRANCH   3   5
BRANCH   1  18
ATOM     18  C   LIG    1       -1.586   0.853  -1.878  0.00  0.00    +0.290 C 
BRANCH  18  24
ATOM     19  C   LIG    1       -0.871   3.021  -0.858  0.00  0.00    +0.170 C 
ATOM     20  O   LIG    1       -1.506   2.682   0.376  0.00  0.00    -0.370 OA
ATOM     21  C   LIG    1       -0.650   2.021   1.311  0.00  0.00    +0.200 C 
ATOM     22  C   LIG    1       -0.155   0.704   0.708  0.00  0.00    -0.020 C 
ATOM     23  C   LIG    1        0.566   0.995  -0.612  0.00  0.00    +0.020 C 
ATOM     24  C   LIG    1       -0.387   1.744  -1.549  0.00  0.00    -0.040 C 
BRANCH  19  26
ATOM     25  C   LIG    1       -3.263   3.143  -1.570  0.00  0.00    +0.030 C 
ATOM     26  C   LIG    1       -1.869   3.745  -1.764  0.00  0.00    -0.060 C 
ATOM     27  C   LIG    1       -1.443   3.583  -3.224  0.00  0.00    +0.040 C 
ATOM     28  C   LIG    1       -1.901   5.231  -1.403  0.00  0.00    +0.030 C 
ENDBRANCH  19  26
ENDBRANCH  18  24
ENDBRANCH   1  18
TORSDOF 5
