REMARK  Name = ZINCpe00000bSMIg.0
REMARK                            x       y       z     vdW  Elec       q    Type
REMARK                         _______ _______ _______ _____ _____    ______ ____
ROOT
ATOM      1  C   LIG    1       -1.367   3.488   2.572  0.00  0.00    -0.010 C 
ATOM      2  C   LIG    1       -2.762   2.882   2.746  0.00  0.00    +0.010 C 
ATOM      3  C   LIG    1       -2.660   1.356   2.672  0.00  0.00    +0.030 C 
ATOM      4  C   LIG    1       -2.034   0.956   1.334  0.00  0.00    +0.170 C 
ATOM      5  N   LIG    1       -0.700   1.560   1.217  0.00  0.00    -0.510 NA
ATOM      6  C   LIG    1       -0.778   3.026   1.237  0.00  0.00    +0.190 C 
ENDROOT
BRANCH   1   7
ATOM      7  C   LIG    1       -1.468   5.015   2.585  0.00  0.00    +0.270 C 
BRANCH   7   9
ATOM      8  C   LIG    1       -2.086   6.778   4.148  0.00  0.00    +0.520 C 
ATOM      9  N   LIG    1       -1.923   5.463   3.903  0.00  0.00    -0.730 N 
ATOM     10  H   LIG    1       -2.107   4.813   4.599  0.00  0.00    +0.400 HD
ATOM     11  O   LIG    1       -1.855   7.590   3.277  0.00  0.00    -0.530 OA
BRANCH   8  13
ATOM     12  C   LIG    1       -1.556   6.786   6.571  0.00  0.00    +0.050 C 
ATOM     13  C   LIG    1       -2.555   7.240   5.504  0.00  0.00    +0.030 C 
BRANCH  13  14
ATOM     14  C   LIG    1       -2.654   8.743   5.516  0.00  0.00    -0.070 A 
ATOM     15  C   LIG    1       -1.530   9.512   5.277  0.00  0.00    +0.040 A 
ATOM     16  C   LIG    1       -1.623  10.892   5.284  0.00  0.00    +0.000 A 
ATOM     17  C   LIG    1       -2.836  11.502   5.540  0.00  0.00    +0.000 A 
ATOM     18  C   LIG    1       -3.959  10.733   5.784  0.00  0.00    +0.000 A 
ATOM     19  C   LIG    1       -3.868   9.354   5.773  0.00  0.00    +0.010 A 
ENDBRANCH  13  14
ENDBRANCH   8  13
ENDBRANCH   7   9
ENDBRANCH   1   7
BRANCH   5  20
ATOM     20  C   LIG    1       -0.013   1.086   0.008  0.00  0.00    +0.270 C 
BRANCH  20  21
ATOM     21  C   LIG    1       -0.742   1.585  -1.213  0.00  0.00    +0.480 C 
ATOM     22  N   LIG    1       -0.288   1.272  -2.443  0.00  0.00    -0.690 N 
ATOM     23  H   LIG    1        0.507   0.726  -2.543  0.00  0.00    +0.410 HD
ATOM     24  C   LIG    1       -0.940   1.719  -3.535  0.00  0.00    +0.690 C 
ATOM     25  O   LIG    1       -1.937   2.403  -3.410  0.00  0.00    -0.530 OA
ATOM     26  N   LIG    1       -0.487   1.406  -4.765  0.00  0.00    -0.860 N 
ATOM     27  H   LIG    1       -0.956   1.727  -5.551  0.00  0.00    +0.420 HD
ATOM     28  H   LIG    1        0.308   0.860  -4.865  0.00  0.00    +0.400 HD
ATOM     29  O   LIG    1       -1.736   2.268  -1.089  0.00  0.00    -0.460 OA
ENDBRANCH  20  21
ENDBRANCH   5  20
TORSDOF 6
