REMARK  Name = ZINCvU0000000JDj.0
REMARK                            x       y       z     vdW  Elec       q    Type
REMARK                         _______ _______ _______ _____ _____    ______ ____
ROOT
ATOM      1  C   LIG    1        3.849  -0.841  -0.056  0.00  0.00    +0.260 C 
ENDROOT
BRANCH   1   2
ATOM      2  C   LIG    1        4.292  -1.054  -1.481  0.00  0.00    -0.130 A 
ATOM      3  C   LIG    1        3.365  -1.395  -2.448  0.00  0.00    +0.040 A 
ATOM      4  C   LIG    1        3.770  -1.586  -3.756  0.00  0.00    +0.010 A 
ATOM      5  C   LIG    1        5.102  -1.444  -4.095  0.00  0.00    +0.030 A 
ATOM      6  C   LIG    1        6.030  -1.108  -3.127  0.00  0.00    +0.020 A 
ATOM      7  C   LIG    1        5.624  -0.913  -1.819  0.00  0.00    +0.030 A 
ENDBRANCH   1   2
BRANCH   1   8
ATOM      8  C   LIG    1        3.799  -2.167   0.658  0.00  0.00    +0.530 C 
ATOM      9  N   LIG    1        4.932  -2.868   0.860  0.00  0.00    -0.660 N 
ATOM     10  H   LIG    1        5.771  -2.551   0.489  0.00  0.00    +0.420 HD
ATOM     11  O   LIG    1        2.738  -2.604   1.050  0.00  0.00    -0.480 OA
BRANCH   9  12
ATOM     12  C   LIG    1        4.900  -4.053   1.603  0.00  0.00    +0.230 A 
ATOM     13  C   LIG    1        3.793  -4.888   1.533  0.00  0.00    +0.050 A 
ATOM     14  C   LIG    1        3.766  -6.059   2.265  0.00  0.00    +0.150 A 
ATOM     15  C   LIG    1        4.835  -6.396   3.074  0.00  0.00    -0.060 A 
ATOM     16  C   LIG    1        5.937  -5.564   3.151  0.00  0.00    +0.170 A 
ATOM     17  C   LIG    1        5.973  -4.393   2.418  0.00  0.00    -0.130 A 
ATOM     18 BR   LIG    1        7.479  -3.256   2.524  0.00  0.00    -0.000 Br
BRANCH  15  19
ATOM     19  N   LIG    1        4.800  -7.650   3.861  0.00  0.00    +0.030 N 
ATOM     20  O   LIG    1        3.830  -8.383   3.794  0.00  0.00    -0.150 OA
ATOM     21  O   LIG    1        5.740  -7.947   4.575  0.00  0.00    -0.150 OA
ENDBRANCH  15  19
ENDBRANCH   9  12
ENDBRANCH   1   8
BRANCH   1  22
ATOM     22  O   LIG    1        2.530  -0.234  -0.044  0.00  0.00    -0.320 OA
BRANCH  22  23
ATOM     23  C   LIG    1        2.477   1.113  -0.046  0.00  0.00    +0.510 C 
ATOM     24  O   LIG    1        3.504   1.762  -0.057  0.00  0.00    -0.470 OA
BRANCH  23  30
ATOM     25  C   LIG    1        1.102   3.203  -0.036  0.00  0.00    +0.160 A 
ATOM     26  N   LIG    1       -0.074   3.812  -0.026  0.00  0.00    -0.490 NA
ATOM     27  C   LIG    1       -1.206   3.137  -0.013  0.00  0.00    +0.330 A 
ATOM     28  C   LIG    1       -1.217   1.753  -0.016  0.00  0.00    -0.050 A 
ATOM     29  C   LIG    1       -0.018   1.062  -0.020  0.00  0.00    +0.170 A 
ATOM     30  C   LIG    1        1.173   1.798  -0.034  0.00  0.00    -0.180 A 
BRANCH  25  32
ATOM     31  C   LIG    1        1.884   5.825  -0.050  0.00  0.00    +0.100 C 
ATOM     32  S   LIG    1        2.584   4.156  -0.053  0.00  0.00    +0.030 S 
ENDBRANCH  25  32
ENDBRANCH  23  30
ENDBRANCH  22  23
ENDBRANCH   1  22
TORSDOF 8
