REMARK  Name = ZINCpk00000eaAF8.0
REMARK                            x       y       z     vdW  Elec       q    Type
REMARK                         _______ _______ _______ _____ _____    ______ ____
ROOT
ATOM      1  C   LIG    1        0.010  -0.656  -1.161  0.00  0.00    +0.510 C 
ATOM      2  N   LIG    1        0.003   0.010   0.011  0.00  0.00    -0.600 N 
ATOM      3  C   LIG    1       -0.027   1.475   0.020  0.00  0.00    +0.290 C 
ATOM      4  O   LIG    1        0.035  -1.869  -1.169  0.00  0.00    -0.490 OA
ENDROOT
BRANCH   1   5
ATOM      5  C   LIG    1       -0.012   0.105  -2.461  0.00  0.00    +0.280 C 
BRANCH   5   6
ATOM      6  N   LIG    1        0.472  -0.758  -3.541  0.00  0.00    -0.740 N 
ATOM      7  H   LIG    1        1.257  -0.502  -4.051  0.00  0.00    +0.400 HD
ATOM      8  C   LIG    1       -0.172  -1.907  -3.826  0.00  0.00    +0.710 C 
ATOM      9  O   LIG    1       -1.155  -2.227  -3.186  0.00  0.00    -0.560 OA
ATOM     10  N   LIG    1        0.274  -2.701  -4.819  0.00  0.00    -0.870 N 
ATOM     11  H   LIG    1       -0.190  -3.528  -5.024  0.00  0.00    +0.420 HD
ATOM     12  H   LIG    1        1.058  -2.445  -5.330  0.00  0.00    +0.390 HD
ENDBRANCH   5   6
BRANCH   5  13
ATOM     13  C   LIG    1       -1.444   0.550  -2.767  0.00  0.00    +0.080 C 
BRANCH  13  14
ATOM     14  C   LIG    1       -1.448   1.428  -4.020  0.00  0.00    +0.080 C 
BRANCH  14  16
ATOM     15  C   LIG    1       -2.948   2.969  -5.874  0.00  0.00    +0.140 C 
ATOM     16  S   LIG    1       -3.146   1.956  -4.383  0.00  0.00    -0.250 S 
ENDBRANCH  14  16
ENDBRANCH  13  14
ENDBRANCH   5  13
ENDBRANCH   1   5
BRANCH   2  17
ATOM     17  C   LIG    1        0.024  -0.731   1.275  0.00  0.00    +0.330 C 
BRANCH  17  18
ATOM     18  C   LIG    1       -1.389  -1.013   1.715  0.00  0.00    +0.490 C 
ATOM     19  N   LIG    1       -1.615  -1.688   2.860  0.00  0.00    -0.670 N 
ATOM     20  H   LIG    1       -0.871  -2.061   3.358  0.00  0.00    +0.410 HD
ATOM     21  O   LIG    1       -2.322  -0.634   1.040  0.00  0.00    -0.500 OA
BRANCH  19  22
ATOM     22  C   LIG    1       -2.924  -1.851   3.329  0.00  0.00    +0.150 A 
ATOM     23  C   LIG    1       -3.910  -0.944   2.966  0.00  0.00    +0.010 A 
ATOM     24  C   LIG    1       -5.201  -1.107   3.430  0.00  0.00    -0.070 A 
ATOM     25  C   LIG    1       -5.510  -2.172   4.257  0.00  0.00    -0.020 A 
ATOM     26  C   LIG    1       -4.529  -3.076   4.621  0.00  0.00    +0.030 A 
ATOM     27  C   LIG    1       -6.273  -0.124   3.036  0.00  0.00    +0.100 C 
ATOM     28  C   LIG    1       -3.239  -2.922   4.155  0.00  0.00    -0.120 A 
ATOM     29  C   LIG    1       -2.172  -3.912   4.547  0.00  0.00    +0.090 C 
ENDBRANCH  19  22
ENDBRANCH  17  18
ENDBRANCH   2  17
TORSDOF 8
