REMARK  Name = ZINCrD0000075abH.0
REMARK                            x       y       z     vdW  Elec       q    Type
REMARK                         _______ _______ _______ _____ _____    ______ ____
ROOT
ATOM      1  C   LIG    1       -0.339   1.471   0.429  0.00  0.00    +0.300 C 
ENDROOT
BRANCH   1   8
ATOM      2  C   LIG    1        7.278   0.744  -0.233  0.00  0.00    +0.150 C 
ATOM      3  C   LIG    1        5.778   0.790  -0.093  0.00  0.00    -0.180 A 
ATOM      4  C   LIG    1        5.014  -0.273   0.069  0.00  0.00    -0.070 A 
ATOM      5  C   LIG    1        3.595   0.009   0.181  0.00  0.00    -0.230 A 
ATOM      6  C   LIG    1        2.494  -0.867   0.360  0.00  0.00    +0.490 A 
ATOM      7  N   LIG    1        1.274  -0.356   0.435  0.00  0.00    -0.570 NA
ATOM      8  C   LIG    1        1.071   0.946   0.345  0.00  0.00    +0.380 A 
ATOM      9  N   LIG    1        2.057   1.798   0.178  0.00  0.00    -0.530 NA
ATOM     10  C   LIG    1        3.325   1.377   0.091  0.00  0.00    +0.120 A 
ATOM     11  C   LIG    1        5.571  -1.672   0.134  0.00  0.00    +0.120 C 
ATOM     12  S   LIG    1        4.828   2.263  -0.127  0.00  0.00    +0.170 S 
BRANCH   6  13
ATOM     13  N   LIG    1        2.691  -2.233   0.456  0.00  0.00    -0.830 N 
ATOM     14  H   LIG    1        1.958  -2.811   0.719  0.00  0.00    +0.410 HD
ATOM     15  H   LIG    1        3.562  -2.612   0.261  0.00  0.00    +0.410 HD
ENDBRANCH   6  13
ENDBRANCH   1   8
BRANCH   1  16
ATOM     16  N   LIG    1       -0.671   1.756   1.831  0.00  0.00    -0.510 NA
ATOM     17  C   LIG    1        0.418   2.487   2.493  0.00  0.00    +0.170 C 
ATOM     18  C   LIG    1        0.114   2.606   3.990  0.00  0.00    +0.280 C 
ATOM     19  N   LIG    1       -1.221   3.202   4.150  0.00  0.00    -0.610 N 
ATOM     20  C   LIG    1       -2.342   2.606   3.407  0.00  0.00    +0.310 C 
ATOM     21  C   LIG    1       -1.412   4.265   4.956  0.00  0.00    +0.530 C 
ATOM     22  O   LIG    1       -2.532   4.691   5.142  0.00  0.00    -0.540 OA
ATOM     23  C   LIG    1       -1.942   2.487   1.933  0.00  0.00    +0.100 C 
ATOM     24  C   LIG    1       -3.029   1.731   1.167  0.00  0.00    +0.060 C 
ATOM     25  C   LIG    1       -1.775   3.886   1.335  0.00  0.00    +0.010 C 
BRANCH  21  26
ATOM     26  C   LIG    1       -0.234   4.924   5.625  0.00  0.00    -0.090 C 
ATOM     27  C   LIG    1        0.760   5.394   4.562  0.00  0.00    +0.040 C 
ATOM     28  C   LIG    1        0.451   3.921   6.556  0.00  0.00    +0.040 C 
ATOM     29  C   LIG    1       -0.717   6.126   6.439  0.00  0.00    +0.050 C 
ENDBRANCH  21  26
ENDBRANCH   1  16
TORSDOF 4
