REMARK  Name = ZINCtV000002CQsX.0
REMARK                            x       y       z     vdW  Elec       q    Type
REMARK                         _______ _______ _______ _____ _____    ______ ____
ROOT
ATOM      1  C   LIG    1       -0.951  -4.848  -0.291  0.00  0.00    +0.210 A 
ATOM      2  C   LIG    1       -2.186  -4.212  -0.283  0.00  0.00    -0.060 A 
ATOM      3  C   LIG    1       -2.253  -2.837  -0.184  0.00  0.00    +0.040 A 
ATOM      4  C   LIG    1       -1.087  -2.089  -0.091  0.00  0.00    +0.080 A 
ATOM      5  C   LIG    1        0.148  -2.724  -0.105  0.00  0.00    +0.060 A 
ATOM      6  C   LIG    1        0.216  -4.100  -0.198  0.00  0.00    -0.050 A 
ENDROOT
BRANCH   4   7
ATOM      7  N   LIG    1       -1.156  -0.694   0.009  0.00  0.00    -0.660 N 
ATOM      8  H   LIG    1       -1.866  -0.210  -0.440  0.00  0.00    +0.410 HD
ATOM      9  C   LIG    1       -0.235  -0.024   0.730  0.00  0.00    +0.600 C 
ATOM     10  O   LIG    1        0.600  -0.636   1.372  0.00  0.00    -0.490 OA
BRANCH   9  11
ATOM     11  C   LIG    1       -0.238   1.439   0.742  0.00  0.00    -0.080 A 
ATOM     12  C   LIG    1        0.646   2.255   1.435  0.00  0.00    -0.040 A 
ATOM     13  C   LIG    1        0.261   3.586   1.149  0.00  0.00    -0.050 A 
ATOM     14  C   LIG    1       -0.802   3.522   0.324  0.00  0.00    +0.210 A 
ATOM     15  O   LIG    1       -1.096   2.240   0.076  0.00  0.00    -0.160 OA
BRANCH  12  16
ATOM     16  C   LIG    1        1.767   1.819   2.300  0.00  0.00    -0.040 A 
ATOM     17  C   LIG    1        1.553   0.869   3.299  0.00  0.00    +0.060 A 
ATOM     18  C   LIG    1        2.602   0.463   4.097  0.00  0.00    +0.000 A 
ATOM     19  C   LIG    1        3.862   1.004   3.917  0.00  0.00    +0.010 A 
ATOM     20  C   LIG    1        4.080   1.951   2.932  0.00  0.00    -0.010 A 
ATOM     21  C   LIG    1        3.040   2.361   2.123  0.00  0.00    +0.020 A 
ENDBRANCH  12  16
ENDBRANCH   9  11
ENDBRANCH   4   7
BRANCH   1  22
ATOM     22  N   LIG    1       -0.882  -6.242  -0.392  0.00  0.00    -0.740 N 
ATOM     23  H   LIG    1       -1.697  -6.764  -0.457  0.00  0.00    +0.400 HD
BRANCH  22  25
ATOM     24  C   LIG    1        0.978  -6.928  -1.825  0.00  0.00    +0.030 C 
ATOM     25  C   LIG    1        0.421  -6.912  -0.400  0.00  0.00    +0.280 C 
BRANCH  25  26
ATOM     26  C   LIG    1        0.260  -8.327   0.092  0.00  0.00    -0.090 A 
ATOM     27  C   LIG    1       -0.842  -9.070  -0.288  0.00  0.00    +0.010 A 
ATOM     28  C   LIG    1       -0.987 -10.370   0.160  0.00  0.00    +0.000 A 
ATOM     29  C   LIG    1       -0.034 -10.924   0.996  0.00  0.00    +0.000 A 
ATOM     30  C   LIG    1        1.065 -10.179   1.380  0.00  0.00    +0.000 A 
ATOM     31  C   LIG    1        1.212  -8.880   0.928  0.00  0.00    +0.010 A 
ENDBRANCH  25  26
ENDBRANCH  22  25
ENDBRANCH   1  22
TORSDOF 6
