REMARK  Name = ZINCpk00000xK3Tj.1
REMARK                            x       y       z     vdW  Elec       q    Type
REMARK                         _______ _______ _______ _____ _____    ______ ____
ROOT
ATOM      1  C   LIG    1       -5.274   2.892   1.463  0.00  0.00    +0.530 C 
ATOM      2  N   LIG    1       -6.598   2.919   1.716  0.00  0.00    -0.610 N 
ATOM      3  C   LIG    1       -7.576   2.951   0.618  0.00  0.00    +0.280 C 
ATOM      4  C   LIG    1       -8.604   1.833   0.854  0.00  0.00    +0.170 C 
ATOM      5  N   LIG    1       -9.176   1.978   2.199  0.00  0.00    -0.540 NA
ATOM      6  C   LIG    1       -8.149   1.812   3.236  0.00  0.00    +0.170 C 
ATOM      7  C   LIG    1       -7.103   2.922   3.097  0.00  0.00    +0.300 C 
ATOM      8  O   LIG    1       -4.482   2.870   2.381  0.00  0.00    -0.530 OA
ENDROOT
BRANCH   1   9
ATOM      9  C   LIG    1       -4.779   2.888   0.040  0.00  0.00    +0.200 C 
BRANCH   9  17
ATOM     10  C   LIG    1        0.002  -0.004   0.002  0.00  0.00    +0.160 C 
ATOM     11  C   LIG    1       -0.018   1.503   0.010  0.00  0.00    +0.210 A 
ATOM     12  C   LIG    1        1.142   2.208   0.003  0.00  0.00    -0.060 A 
ATOM     13  C   LIG    1        1.093   3.607   0.011  0.00  0.00    +0.240 A 
ATOM     14  N   LIG    1       -0.064   4.229   0.025  0.00  0.00    -0.460 NA
ATOM     15  C   LIG    1       -1.213   3.543   0.032  0.00  0.00    +0.460 A 
ATOM     16  N   LIG    1       -2.485   3.924   0.045  0.00  0.00    -0.510 NA
ATOM     17  C   LIG    1       -3.272   2.856   0.032  0.00  0.00    +0.290 A 
ATOM     18  N   LIG    1       -2.539   1.768   0.023  0.00  0.00    -0.320 NA
ATOM     19  C   LIG    1        2.372   4.403   0.003  0.00  0.00    +0.170 C 
ATOM     20  N   LIG    1       -1.199   2.177   0.019  0.00  0.00    -0.330 N 
ENDBRANCH   9  17
ENDBRANCH   1   9
BRANCH   5  21
ATOM     21  C   LIG    1      -10.287   1.038   2.403  0.00  0.00    +0.170 C 
BRANCH  21  22
ATOM     22  C   LIG    1      -11.441   1.403   1.466  0.00  0.00    +0.020 C 
BRANCH  22  23
ATOM     23  C   LIG    1      -12.598   0.424   1.678  0.00  0.00    -0.030 C 
ATOM     24  C   LIG    1      -12.162  -0.980   1.256  0.00  0.00    +0.000 C 
ATOM     25  C   LIG    1      -13.797   0.861   0.835  0.00  0.00    +0.010 C 
ENDBRANCH  22  23
ENDBRANCH  21  22
ENDBRANCH   5  21
TORSDOF 5
