REMARK  Name = ZINCkj000005kLZ3.2
REMARK                            x       y       z     vdW  Elec       q    Type
REMARK                         _______ _______ _______ _____ _____    ______ ____
ROOT
ATOM      1  C   LIG    1        2.862   1.889   2.501  0.00  0.00    +0.620 C 
ATOM      2  N   LIG    1        3.181   1.189   1.394  0.00  0.00    -0.630 N 
ATOM      3  C   LIG    1        3.707   1.865   0.197  0.00  0.00    +0.310 C 
ATOM      4  C   LIG    1        2.893   1.405  -1.017  0.00  0.00    +0.250 C 
ATOM      5  N   LIG    1        2.912  -0.062  -1.091  0.00  0.00    -0.380 N 
ATOM      6  C   LIG    1        2.232  -0.630   0.079  0.00  0.00    +0.260 C 
ATOM      7  H   LIG    1        3.869  -0.384  -1.110  0.00  0.00    +0.420 HD
ATOM      8  C   LIG    1        3.013  -0.271   1.348  0.00  0.00    +0.230 C 
ATOM      9  C   LIG    1        2.235  -0.738   2.580  0.00  0.00    +0.090 C 
ATOM     10  O   LIG    1        2.558   1.304   3.524  0.00  0.00    -0.480 OA
ENDROOT
BRANCH   1  13
ATOM     11  C   LIG    1        4.403   3.635   4.457  0.00  0.00    +0.170 C 
ATOM     12  C   LIG    1        3.557   4.163   3.328  0.00  0.00    +0.160 A 
ATOM     13  C   LIG    1        2.882   3.356   2.472  0.00  0.00    -0.320 A 
ATOM     14  S   LIG    1        2.026   4.384   1.325  0.00  0.00    +0.150 S 
ATOM     15  C   LIG    1        2.655   5.777   2.091  0.00  0.00    +0.270 A 
ATOM     16  N   LIG    1        3.412   5.442   3.086  0.00  0.00    -0.470 NA
ENDBRANCH   1  13
BRANCH   5  17
ATOM     17  C   LIG    1        2.226  -0.498  -2.314  0.00  0.00    +0.230 C 
BRANCH  17  18
ATOM     18  C   LIG    1        2.399  -2.008  -2.485  0.00  0.00    +0.110 C 
ATOM     19  C   LIG    1        3.889  -2.356  -2.471  0.00  0.00    +0.080 C 
ATOM     20  C   LIG    1        1.786  -2.444  -3.818  0.00  0.00    +0.060 C 
BRANCH  18  21
ATOM     21  O   LIG    1        1.741  -2.687  -1.414  0.00  0.00    -0.550 OA
ATOM     22  H   LIG    1        0.791  -2.513  -1.362  0.00  0.00    +0.390 HD
ENDBRANCH  18  21
ENDBRANCH  17  18
ENDBRANCH   5  17
TORSDOF 4
