REMARK  Name = ZINCkj000005kLZ3.1
REMARK                            x       y       z     vdW  Elec       q    Type
REMARK                         _______ _______ _______ _____ _____    ______ ____
ROOT
ATOM      1  C   LIG    1       -0.903  -0.951  -0.144  0.00  0.00    +0.620 C 
ATOM      2  N   LIG    1       -0.768  -2.291  -0.209  0.00  0.00    -0.630 N 
ATOM      3  C   LIG    1        0.557  -2.923  -0.118  0.00  0.00    +0.300 C 
ATOM      4  C   LIG    1        0.490  -4.032   0.943  0.00  0.00    +0.270 C 
ATOM      5  N   LIG    1       -0.602  -4.957   0.612  0.00  0.00    -0.380 N 
ATOM      6  C   LIG    1       -1.891  -4.258   0.691  0.00  0.00    +0.270 C 
ATOM      7  H   LIG    1       -0.469  -5.311  -0.323  0.00  0.00    +0.420 HD
ATOM      8  C   LIG    1       -1.942  -3.161  -0.377  0.00  0.00    +0.280 C 
ATOM      9  C   LIG    1       -1.918  -3.793  -1.771  0.00  0.00    +0.050 C 
ATOM     10  O   LIG    1       -2.003  -0.457   0.017  0.00  0.00    -0.490 OA
ENDROOT
BRANCH   1  13
ATOM     11  C   LIG    1       -0.888   2.044   0.382  0.00  0.00    +0.180 C 
ATOM     12  C   LIG    1        0.320   1.247  -0.039  0.00  0.00    +0.180 A 
ATOM     13  C   LIG    1        0.278  -0.089  -0.268  0.00  0.00    -0.330 A 
ATOM     14  S   LIG    1        1.895  -0.604  -0.741  0.00  0.00    +0.150 S 
ATOM     15  C   LIG    1        2.461   1.002  -0.587  0.00  0.00    +0.270 A 
ATOM     16  N   LIG    1        1.499   1.786  -0.220  0.00  0.00    -0.470 NA
ENDBRANCH   1  13
BRANCH   5  17
ATOM     17  C   LIG    1       -0.596  -6.078   1.562  0.00  0.00    +0.240 C 
BRANCH  17  18
ATOM     18  C   LIG    1       -1.592  -7.143   1.100  0.00  0.00    +0.110 C 
ATOM     19  C   LIG    1       -1.444  -8.392   1.971  0.00  0.00    +0.060 C 
ATOM     20  C   LIG    1       -1.313  -7.504  -0.361  0.00  0.00    +0.080 C 
BRANCH  18  21
ATOM     21  O   LIG    1       -2.922  -6.634   1.219  0.00  0.00    -0.550 OA
ATOM     22  H   LIG    1       -3.169  -6.384   2.120  0.00  0.00    +0.390 HD
ENDBRANCH  18  21
ENDBRANCH  17  18
ENDBRANCH   5  17
TORSDOF 4
