REMARK  Name = ZINCpe00000VVGk7.2
REMARK                            x       y       z     vdW  Elec       q    Type
REMARK                         _______ _______ _______ _____ _____    ______ ____
ROOT
ATOM      1  C   LIG    1        0.153  -4.093  -1.271  0.00  0.00    +0.030 C 
ATOM      2  C   LIG    1        1.508  -4.805  -1.325  0.00  0.00    +0.010 C 
ATOM      3  C   LIG    1        2.359  -4.356  -0.134  0.00  0.00    +0.040 C 
ATOM      4  C   LIG    1        2.520  -2.835  -0.173  0.00  0.00    +0.160 C 
ATOM      5  N   LIG    1        1.197  -2.200  -0.118  0.00  0.00    -0.510 NA
ATOM      6  C   LIG    1        0.378  -2.579  -1.277  0.00  0.00    +0.190 C 
ENDROOT
BRANCH   1  12
ATOM      7  C   LIG    1       -0.242  -7.786  -4.147  0.00  0.00    +0.340 C 
ATOM      8  N   LIG    1       -0.294  -6.394  -3.693  0.00  0.00    -0.580 N 
ATOM      9  C   LIG    1        0.224  -5.363  -4.370  0.00  0.00    +0.700 C 
ATOM     10  N   LIG    1        0.044  -4.190  -3.736  0.00  0.00    -0.720 N 
ATOM     11  H   LIG    1        0.334  -3.316  -4.040  0.00  0.00    +0.440 HD
ATOM     12  C   LIG    1       -0.682  -4.491  -2.490  0.00  0.00    +0.130 C 
ATOM     13  C   LIG    1       -2.035  -3.778  -2.469  0.00  0.00    +0.090 C 
ATOM     14  O   LIG    1        0.793  -5.473  -5.438  0.00  0.00    -0.540 OA
ATOM     15  C   LIG    1       -0.871  -5.994  -2.538  0.00  0.00    +0.530 C 
ATOM     16  O   LIG    1       -1.424  -6.690  -1.713  0.00  0.00    -0.460 OA
ENDBRANCH   1  12
BRANCH   5  17
ATOM     17  C   LIG    1        1.317  -0.740  -0.015  0.00  0.00    +0.180 C 
BRANCH  17  18
ATOM     18  C   LIG    1       -0.057  -0.121  -0.007  0.00  0.00    -0.090 A 
ATOM     19  C   LIG    1       -1.048  -0.649   0.799  0.00  0.00    +0.060 A 
ATOM     20  C   LIG    1       -2.308  -0.079   0.809  0.00  0.00    +0.010 A 
ATOM     21  C   LIG    1       -2.579   1.013   0.005  0.00  0.00    +0.010 A 
ATOM     22  C   LIG    1       -1.589   1.537  -0.805  0.00  0.00    +0.000 A 
ATOM     23  C   LIG    1       -0.328   0.970  -0.811  0.00  0.00    +0.010 A 
ENDBRANCH  17  18
BRANCH  17  24
ATOM     24  C   LIG    1        2.034  -0.385   1.262  0.00  0.00    +0.530 C 
ATOM     25  O   LIG    1        1.974  -1.128   2.219  0.00  0.00    -0.510 OA
ATOM     26  N   LIG    1        2.743   0.759   1.341  0.00  0.00    -0.860 N 
ATOM     27  H   LIG    1        3.202   0.989   2.165  0.00  0.00    +0.410 HD
ATOM     28  H   LIG    1        2.792   1.353   0.577  0.00  0.00    +0.400 HD
ENDBRANCH  17  24
ENDBRANCH   5  17
TORSDOF 4
