REMARK  Name = ZINCpe00000VVGK7.0
REMARK                            x       y       z     vdW  Elec       q    Type
REMARK                         _______ _______ _______ _____ _____    ______ ____
ROOT
ATOM      1  C   LIG    1       -1.196  -0.918   0.009  0.00  0.00    +0.400 C 
ENDROOT
BRANCH   1   5
ATOM      2  N   LIG    1        1.205   1.719  -0.000  0.00  0.00    -0.130 N 
ATOM      3  N   LIG    1        1.994   0.702  -0.013  0.00  0.00    -0.040 NA
ATOM      4  N   LIG    1        1.283  -0.374  -0.012  0.00  0.00    -0.270 NA
ATOM      5  C   LIG    1        0.002  -0.004   0.002  0.00  0.00    +0.160 A 
ATOM      6  N   LIG    1       -0.016   1.306   0.009  0.00  0.00    -0.280 NA
BRANCH   2   7
ATOM      7  C   LIG    1        1.627   3.122   0.003  0.00  0.00    +0.410 C 
BRANCH   7  10
ATOM      8  N   LIG    1        2.170   4.864   1.674  0.00  0.00    -0.720 N 
ATOM      9  H   LIG    1        2.345   5.471   0.938  0.00  0.00    +0.410 HD
ATOM     10  C   LIG    1        1.786   3.596   1.425  0.00  0.00    +0.500 C 
ATOM     11  O   LIG    1        1.567   2.837   2.345  0.00  0.00    -0.520 OA
BRANCH   8  12
ATOM     12  C   LIG    1        2.324   5.324   3.056  0.00  0.00    +0.310 C 
BRANCH  12  14
ATOM     13  C   LIG    1        2.063   7.659   3.721  0.00  0.00    +0.050 C 
ATOM     14  C   LIG    1        2.758   6.767   3.059  0.00  0.00    -0.070 C 
ENDBRANCH  12  14
ENDBRANCH   8  12
ENDBRANCH   7  10
ENDBRANCH   2   7
ENDBRANCH   1   5
BRANCH   1  15
ATOM     15  N   LIG    1       -1.002  -1.985  -0.976  0.00  0.00    -0.720 N 
ATOM     16  H   LIG    1       -0.105  -2.246  -1.238  0.00  0.00    +0.410 HD
ATOM     17  C   LIG    1       -2.069  -2.605  -1.518  0.00  0.00    +0.570 C 
ATOM     18  O   LIG    1       -3.193  -2.278  -1.190  0.00  0.00    -0.520 OA
BRANCH  17  19
ATOM     19  C   LIG    1       -1.873  -3.682  -2.511  0.00  0.00    -0.140 A 
ATOM     20  C   LIG    1       -0.583  -4.056  -2.894  0.00  0.00    +0.040 A 
ATOM     21  C   LIG    1       -0.407  -5.065  -3.818  0.00  0.00    +0.000 A 
ATOM     22  C   LIG    1       -1.505  -5.699  -4.373  0.00  0.00    +0.040 A 
ATOM     23  C   LIG    1       -2.785  -5.330  -4.001  0.00  0.00    +0.000 A 
ATOM     24  C   LIG    1       -2.975  -4.326  -3.074  0.00  0.00    +0.080 A 
ENDBRANCH  17  19
ENDBRANCH   1  15
BRANCH   1  25
ATOM     25  C   LIG    1       -1.362  -1.532   1.400  0.00  0.00    -0.060 C 
ATOM     26  C   LIG    1       -1.100  -3.032   1.547  0.00  0.00    +0.020 C 
ATOM     27  C   LIG    1       -2.531  -2.495   1.613  0.00  0.00    +0.040 C 
ENDBRANCH   1  25
TORSDOF 8
