REMARK  Name = ZINCvU0000000Ikh.0
REMARK                            x       y       z     vdW  Elec       q    Type
REMARK                         _______ _______ _______ _____ _____    ______ ____
ROOT
ATOM      1  C   LIG    1       -0.005  -0.005  -0.008  0.00  0.00    +0.160 A 
ATOM      2  N   LIG    1        0.857  -0.771  -0.639  0.00  0.00    -0.270 NA
ATOM      3  N   LIG    1        0.534  -2.111  -0.406  0.00  0.00    -0.310 N 
ATOM      4  C   LIG    1       -0.555  -2.185   0.380  0.00  0.00    +0.290 A 
ATOM      5  C   LIG    1       -0.953  -0.894   0.673  0.00  0.00    -0.220 A 
ENDROOT
BRANCH   1  10
ATOM      6  C   LIG    1       -0.060   5.753   0.053  0.00  0.00    +0.090 C 
ATOM      7  C   LIG    1       -0.045   4.246   0.037  0.00  0.00    -0.070 A 
ATOM      8  C   LIG    1        1.161   3.568   0.014  0.00  0.00    +0.010 A 
ATOM      9  C   LIG    1        1.180   2.189  -0.001  0.00  0.00    +0.050 A 
ATOM     10  C   LIG    1       -0.019   1.477   0.008  0.00  0.00    -0.030 A 
ATOM     11  C   LIG    1       -1.231   2.165   0.026  0.00  0.00    +0.040 A 
ATOM     12  C   LIG    1       -1.238   3.545   0.046  0.00  0.00    +0.010 A 
ENDBRANCH   1  10
BRANCH   3  13
ATOM     13  C   LIG    1        1.236  -3.210  -0.918  0.00  0.00    +0.150 A 
ATOM     14  C   LIG    1        0.822  -4.501  -0.618  0.00  0.00    -0.010 A 
ATOM     15  C   LIG    1        1.512  -5.583  -1.128  0.00  0.00    +0.050 A 
ATOM     16  C   LIG    1        2.623  -5.381  -1.927  0.00  0.00    +0.010 A 
ATOM     17  C   LIG    1        3.041  -4.097  -2.224  0.00  0.00    +0.040 A 
ATOM     18  C   LIG    1        2.351  -3.011  -1.721  0.00  0.00    +0.030 A 
ENDBRANCH   3  13
BRANCH   5  19
ATOM     19  C   LIG    1       -2.097  -0.492   1.500  0.00  0.00    +0.200 C 
ATOM     20  C   LIG    1       -2.886  -1.433   2.065  0.00  0.00    -0.130 C 
BRANCH  20  21
ATOM     21  C   LIG    1       -3.990  -1.046   2.865  0.00  0.00    +0.560 C 
ATOM     22  N   LIG    1       -4.777  -1.984   3.428  0.00  0.00    -0.670 N 
ATOM     23  H   LIG    1       -4.629  -2.922   3.232  0.00  0.00    +0.420 HD
ATOM     24  O   LIG    1       -4.228   0.135   3.042  0.00  0.00    -0.530 OA
BRANCH  22  25
ATOM     25  C   LIG    1       -5.808  -1.604   4.294  0.00  0.00    +0.170 A 
ATOM     26  C   LIG    1       -6.134  -2.406   5.380  0.00  0.00    +0.010 A 
ATOM     27  C   LIG    1       -7.149  -2.027   6.238  0.00  0.00    +0.050 A 
ATOM     28  C   LIG    1       -7.848  -0.855   6.011  0.00  0.00    +0.050 A 
ATOM     29  C   LIG    1       -7.529  -0.055   4.923  0.00  0.00    +0.090 A 
ATOM     30  F   LIG    1       -8.213   1.089   4.703  0.00  0.00    -0.120 F 
ATOM     31  F   LIG    1       -8.844  -0.490   6.848  0.00  0.00    -0.130 F 
ATOM     32  C   LIG    1       -6.510  -0.428   4.066  0.00  0.00    +0.030 A 
ENDBRANCH  22  25
ENDBRANCH  20  21
ENDBRANCH   5  19
TORSDOF 5
