REMARK  Name = ZINCvU00000007SN.0
REMARK                            x       y       z     vdW  Elec       q    Type
REMARK                         _______ _______ _______ _____ _____    ______ ____
ROOT
ATOM      1  O   LIG    1        1.063  -0.598  -0.011  0.00  0.00    -0.490 OA
ATOM      2  C   LIG    1        0.002  -0.004   0.002  0.00  0.00    +0.550 C 
ENDROOT
BRANCH   2   3
ATOM      3  C   LIG    1       -1.261  -0.756   0.010  0.00  0.00    +0.070 A 
ATOM      4  C   LIG    1       -1.301  -2.107  -0.002  0.00  0.00    -0.010 A 
ATOM      5  S   LIG    1       -2.990  -2.609   0.017  0.00  0.00    +0.100 S 
ATOM      6  C   LIG    1       -3.497  -0.923   0.030  0.00  0.00    +0.350 A 
ATOM      7  N   LIG    1       -2.455  -0.155   0.024  0.00  0.00    -0.520 NA
BRANCH   6   8
ATOM      8  N   LIG    1       -4.810  -0.484   0.044  0.00  0.00    -0.680 N 
ATOM      9  H   LIG    1       -5.004   0.466   0.050  0.00  0.00    +0.420 HD
BRANCH   8  10
ATOM     10  C   LIG    1       -5.906  -1.456   0.049  0.00  0.00    +0.320 C 
BRANCH  10  11
ATOM     11  C   LIG    1       -7.225  -0.726   0.064  0.00  0.00    -0.120 A 
ATOM     12  C   LIG    1       -7.821  -0.402   1.268  0.00  0.00    +0.030 A 
ATOM     13  C   LIG    1       -9.028   0.273   1.282  0.00  0.00    +0.010 A 
ATOM     14  C   LIG    1       -9.643   0.613   0.092  0.00  0.00    +0.020 A 
ATOM     15  C   LIG    1       -9.049   0.283  -1.112  0.00  0.00    +0.010 A 
ATOM     16  C   LIG    1       -7.840  -0.386  -1.126  0.00  0.00    +0.030 A 
ENDBRANCH  10  11
ENDBRANCH   8  10
ENDBRANCH   6   8
ENDBRANCH   2   3
BRANCH   2  17
ATOM     17  O   LIG    1       -0.016   1.344   0.009  0.00  0.00    -0.330 OA
BRANCH  17  18
ATOM     18  C   LIG    1        1.268   2.021   0.001  0.00  0.00    +0.350 C 
BRANCH  18  19
ATOM     19  C   LIG    1        1.051   3.512   0.011  0.00  0.00    +0.050 A 
ATOM     20  C   LIG    1       -0.166   4.065   0.020  0.00  0.00    -0.030 A 
ATOM     21  S   LIG    1        0.034   5.815   0.032  0.00  0.00    +0.170 S 
ATOM     22  C   LIG    1        1.734   5.630   0.015  0.00  0.00    +0.030 A 
ATOM     23  N   LIG    1        2.044   4.378   0.006  0.00  0.00    -0.440 NA
BRANCH  22  24
ATOM     24  C   LIG    1        2.725   6.764   0.011  0.00  0.00    +0.330 C 
BRANCH  24  25
ATOM     25  O   LIG    1        3.026   7.130  -1.338  0.00  0.00    -0.300 OA
BRANCH  25  26
ATOM     26  C   LIG    1        3.911   8.145  -1.520  0.00  0.00    +0.120 A 
ATOM     27  C   LIG    1        4.474   8.780  -0.422  0.00  0.00    -0.040 A 
ATOM     28  C   LIG    1        5.376   9.810  -0.608  0.00  0.00    +0.030 A 
ATOM     29  C   LIG    1        5.712  10.213  -1.889  0.00  0.00    +0.060 A 
ATOM     30  C   LIG    1        5.148   9.584  -2.986  0.00  0.00    +0.030 A 
ATOM     31  F   LIG    1        6.592  11.223  -2.070  0.00  0.00    -0.140 F 
ATOM     32  C   LIG    1        4.248   8.551  -2.802  0.00  0.00    +0.020 A 
ENDBRANCH  25  26
ENDBRANCH  24  25
ENDBRANCH  22  24
ENDBRANCH  18  19
ENDBRANCH  17  18
ENDBRANCH   2  17
TORSDOF 10
