REMARK  Name = ZINCpk00000KfKMY.0
REMARK                            x       y       z     vdW  Elec       q    Type
REMARK                         _______ _______ _______ _____ _____    ______ ____
ROOT
ATOM      1  N   LIG    1       -0.119  -0.351   2.688  0.00  0.00    -0.720 N 
ATOM      2  H   LIG    1       -0.574  -0.924   2.051  0.00  0.00    +0.400 HD
ATOM      3  C   LIG    1       -0.074   0.981   2.485  0.00  0.00    +0.480 C 
ATOM      4  O   LIG    1        0.494   1.697   3.282  0.00  0.00    -0.520 OA
ENDROOT
BRANCH   1   9
ATOM      5  N   LIG    1        2.634  -1.783   4.765  0.00  0.00    -0.490 N 
ATOM      6  C   LIG    1        2.032  -3.084   5.085  0.00  0.00    +0.180 C 
ATOM      7  C   LIG    1        0.550  -2.893   5.417  0.00  0.00    +0.050 C 
ATOM      8  C   LIG    1       -0.160  -2.263   4.215  0.00  0.00    +0.020 C 
ATOM      9  C   LIG    1        0.517  -0.933   3.873  0.00  0.00    +0.250 C 
ATOM     10  C   LIG    1        2.000  -1.181   3.586  0.00  0.00    +0.180 C 
BRANCH   5  15
ATOM     11  C   LIG    1        8.182  -2.111   4.196  0.00  0.00    +0.160 C 
ATOM     12  C   LIG    1        6.681  -2.061   4.311  0.00  0.00    +0.060 A 
ATOM     13  C   LIG    1        5.895  -2.875   3.507  0.00  0.00    +0.040 A 
ATOM     14  C   LIG    1        4.519  -2.795   3.646  0.00  0.00    +0.000 A 
ATOM     15  C   LIG    1        4.008  -1.901   4.586  0.00  0.00    +0.240 A 
ATOM     16  N   LIG    1        4.839  -1.160   5.305  0.00  0.00    -0.210 NA
ATOM     17  N   LIG    1        6.113  -1.243   5.175  0.00  0.00    -0.230 NA
ENDBRANCH   5  15
ENDBRANCH   1   9
BRANCH   3  18
ATOM     18  C   LIG    1       -0.729   1.579   1.267  0.00  0.00    +0.230 C 
BRANCH  18  19
ATOM     19  O   LIG    1       -0.647   3.004   1.334  0.00  0.00    -0.530 OA
ATOM     20  H   LIG    1        0.258   3.345   1.368  0.00  0.00    +0.380 HD
ENDBRANCH  18  19
BRANCH  18  21
ATOM     21  C   LIG    1       -0.013   1.086   0.008  0.00  0.00    +0.060 C 
BRANCH  21  22
ATOM     22  C   LIG    1       -0.742   1.585  -1.213  0.00  0.00    -0.080 A 
ATOM     23  C   LIG    1       -1.750   0.825  -1.775  0.00  0.00    +0.000 A 
ATOM     24  C   LIG    1       -2.422   1.285  -2.892  0.00  0.00    +0.000 A 
ATOM     25  C   LIG    1       -2.078   2.501  -3.453  0.00  0.00    +0.000 A 
ATOM     26  C   LIG    1       -1.066   3.259  -2.894  0.00  0.00    +0.000 A 
ATOM     27  C   LIG    1       -0.398   2.801  -1.774  0.00  0.00    +0.020 A 
ENDBRANCH  21  22
ENDBRANCH  18  21
ENDBRANCH   3  18
TORSDOF 6
