REMARK  Name = ZINCnE000001E7LM.0
REMARK                            x       y       z     vdW  Elec       q    Type
REMARK                         _______ _______ _______ _____ _____    ______ ____
ROOT
ATOM      1  N   LIG    1        1.206   3.448   0.357  0.00  0.00    -0.680 N 
ATOM      2  H   LIG    1        0.378   3.950   0.409  0.00  0.00    +0.410 HD
ATOM      3  C   LIG    1        2.385   4.099   0.294  0.00  0.00    +0.530 C 
ATOM      4  O   LIG    1        3.414   3.476   0.141  0.00  0.00    -0.520 OA
ENDROOT
BRANCH   1   9
ATOM      5  C   LIG    1        2.133  -0.066   0.899  0.00  0.00    -0.110 A 
ATOM      6  C   LIG    1        1.051  -0.669   0.285  0.00  0.00    +0.220 A 
ATOM      7  N   LIG    1        0.094   0.053  -0.264  0.00  0.00    -0.460 NA
ATOM      8  C   LIG    1        0.124   1.370  -0.252  0.00  0.00    +0.210 A 
ATOM      9  C   LIG    1        1.178   2.049   0.346  0.00  0.00    +0.110 A 
ATOM     10  C   LIG    1        2.206   1.317   0.935  0.00  0.00    +0.070 A 
BRANCH   5  12
ATOM     11  C   LIG    1        2.620  -1.781   2.622  0.00  0.00    +0.040 C 
ATOM     12  C   LIG    1        3.220  -0.903   1.522  0.00  0.00    +0.030 C 
ATOM     13  C   LIG    1        3.858  -1.790   0.452  0.00  0.00    +0.040 C 
ENDBRANCH   5  12
ENDBRANCH   1   9
BRANCH   3  14
ATOM     14  C   LIG    1        2.424   5.601   0.416  0.00  0.00    +0.080 C 
BRANCH  14  15
ATOM     15  C   LIG    1        3.873   6.083   0.313  0.00  0.00    +0.110 C 
BRANCH  15  16
ATOM     16  C   LIG    1        3.912   7.585   0.434  0.00  0.00    -0.050 A 
ATOM     17  C   LIG    1        3.968   8.368  -0.699  0.00  0.00    -0.030 A 
ATOM     18  C   LIG    1        4.004   9.748  -0.590  0.00  0.00    -0.020 A 
ATOM     19  C   LIG    1        3.984  10.350   0.655  0.00  0.00    -0.040 A 
ATOM     20  C   LIG    1        3.928   9.579   1.798  0.00  0.00    +0.030 A 
ATOM     21  C   LIG    1        3.885   8.186   1.695  0.00  0.00    -0.140 A 
BRANCH  21  22
ATOM     22  C   LIG    1        3.819   7.355   2.912  0.00  0.00    +0.520 C 
ATOM     23  O   LIG    1        3.697   6.142   2.817  0.00  0.00    -0.670 OA
ATOM     24  O   LIG    1        3.885   7.879   4.015  0.00  0.00    -0.690 OA
ENDBRANCH  21  22
ENDBRANCH  15  16
ENDBRANCH  14  15
ENDBRANCH   3  14
TORSDOF 6
