REMARK  Name = ZINCrH000004uP43.0
REMARK                            x       y       z     vdW  Elec       q    Type
REMARK                         _______ _______ _______ _____ _____    ______ ____
ROOT
ATOM      1  O   LIG    1       -5.022   2.693  -1.069  0.00  0.00    -0.510 OA
ATOM      2  C   LIG    1       -5.242   1.659  -0.468  0.00  0.00    +0.600 C 
ATOM      3  N   LIG    1       -4.234   1.007   0.144  0.00  0.00    -0.720 N 
ATOM      4  H   LIG    1       -4.409   0.182   0.623  0.00  0.00    +0.400 HD
ENDROOT
BRANCH   3   5
ATOM      5  C   LIG    1       -2.872   1.544   0.085  0.00  0.00    +0.260 C 
ATOM      6  C   LIG    1       -2.194   1.077  -1.207  0.00  0.00    +0.020 C 
ATOM      7  C   LIG    1       -0.752   1.593  -1.232  0.00  0.00    +0.040 C 
ATOM      8  C   LIG    1       -0.013   1.086   0.008  0.00  0.00    +0.190 C 
ATOM      9  N   LIG    1       -0.700   1.559   1.216  0.00  0.00    -0.480 N 
ATOM     10  C   LIG    1       -2.071   1.038   1.287  0.00  0.00    +0.190 C 
BRANCH   9  11
ATOM     11  C   LIG    1        0.022   1.226   2.365  0.00  0.00    +0.140 A 
ATOM     12  C   LIG    1       -0.583   0.493   3.378  0.00  0.00    -0.050 A 
ATOM     13  C   LIG    1        0.133   0.160   4.511  0.00  0.00    +0.070 A 
ATOM     14  C   LIG    1        1.449   0.564   4.643  0.00  0.00    -0.040 A 
ATOM     15  C   LIG    1        2.054   1.299   3.638  0.00  0.00    +0.130 A 
ATOM     16  F   LIG    1        3.340   1.693   3.770  0.00  0.00    -0.140 F 
ATOM     17  C   LIG    1        1.343   1.631   2.499  0.00  0.00    -0.040 A 
ENDBRANCH   9  11
ENDBRANCH   3   5
BRANCH   2  18
ATOM     18  C   LIG    1       -6.606   1.121  -0.408  0.00  0.00    -0.300 A 
ATOM     19  C   LIG    1       -7.719   1.680  -0.977  0.00  0.00    +0.330 A 
ATOM     20  N   LIG    1       -8.816   0.998  -0.780  0.00  0.00    -0.460 NA
ATOM     21  C   LIG    1       -8.722  -0.096  -0.077  0.00  0.00    +0.090 A 
ATOM     22  S   LIG    1       -7.105  -0.355   0.413  0.00  0.00    +0.210 S 
BRANCH  21  23
ATOM     23  C   LIG    1       -9.856  -0.987   0.250  0.00  0.00    +0.010 A 
ATOM     24  C   LIG    1       -9.663  -2.147   1.008  0.00  0.00    -0.010 A 
ATOM     25  C   LIG    1      -10.750  -2.948   1.294  0.00  0.00    +0.280 A 
ATOM     26  N   LIG    1      -11.954  -2.637   0.855  0.00  0.00    -0.470 NA
ATOM     27  C   LIG    1      -12.179  -1.555   0.134  0.00  0.00    +0.270 A 
ATOM     28  C   LIG    1      -11.151  -0.696  -0.195  0.00  0.00    +0.030 A 
ENDBRANCH  21  23
ENDBRANCH   2  18
TORSDOF 4
