REMARK  Name = ZINCrg00001Jdv5d.0
REMARK                            x       y       z     vdW  Elec       q    Type
REMARK                         _______ _______ _______ _____ _____    ______ ____
ROOT
ATOM      1  N   LIG    1        1.521   2.222  -4.375  0.00  0.00    -0.260 N 
ATOM      2  N   LIG    1        0.730   2.241  -3.357  0.00  0.00    -0.260 NA
ATOM      3  C   LIG    1        0.385   3.486  -3.070  0.00  0.00    +0.000 A 
ATOM      4  C   LIG    1        1.037   4.306  -4.001  0.00  0.00    -0.130 A 
ATOM      5  C   LIG    1        1.026   5.801  -4.167  0.00  0.00    +0.110 C 
ATOM      6  C   LIG    1        1.588   6.118  -5.562  0.00  0.00    +0.140 C 
ATOM      7  C   LIG    1        1.891   7.615  -5.660  0.00  0.00    +0.080 C 
ATOM      8  O   LIG    1        2.791   5.375  -5.775  0.00  0.00    -0.360 OA
ATOM      9  C   LIG    1        2.597   3.964  -5.947  0.00  0.00    +0.250 C 
ATOM     10  C   LIG    1        3.950   3.249  -5.929  0.00  0.00    +0.070 C 
ATOM     11  C   LIG    1        1.745   3.470  -4.805  0.00  0.00    -0.020 A 
ENDROOT
BRANCH   3  12
ATOM     12  C   LIG    1       -0.508   3.926  -1.979  0.00  0.00    +0.620 C 
ATOM     13  N   LIG    1       -1.162   3.013  -1.234  0.00  0.00    -0.590 N 
ATOM     14  C   LIG    1       -1.142   1.578  -1.573  0.00  0.00    +0.300 C 
ATOM     15  C   LIG    1       -0.565   0.809  -0.385  0.00  0.00    +0.260 C 
ATOM     16  N   LIG    1       -1.191   1.212   0.866  0.00  0.00    -0.720 N 
ATOM     17  H   LIG    1       -1.183   0.580   1.602  0.00  0.00    +0.400 HD
ATOM     18  C   LIG    1       -1.777   2.398   1.067  0.00  0.00    +0.540 C 
ATOM     19  O   LIG    1       -2.194   2.673   2.172  0.00  0.00    -0.530 OA
ATOM     20  C   LIG    1       -1.931   3.397  -0.044  0.00  0.00    +0.120 C 
ATOM     21  C   LIG    1       -3.385   3.772  -0.348  0.00  0.00    +0.050 C 
ATOM     22  C   LIG    1       -3.221   4.903   0.683  0.00  0.00    +0.030 C 
ATOM     23  C   LIG    1       -1.712   4.850   0.388  0.00  0.00    +0.080 C 
ATOM     24  O   LIG    1       -0.652   5.112  -1.753  0.00  0.00    -0.510 OA
ENDBRANCH   3  12
BRANCH   1  25
ATOM     25  C   LIG    1        2.096   1.012  -4.969  0.00  0.00    +0.350 C 
BRANCH  25  26
ATOM     26  C   LIG    1        3.429   0.694  -4.289  0.00  0.00    +0.170 C 
BRANCH  26  28
ATOM     27  C   LIG    1        5.243  -0.873  -4.301  0.00  0.00    +0.220 C 
ATOM     28  O   LIG    1        3.990  -0.486  -4.868  0.00  0.00    -0.390 OA
ENDBRANCH  26  28
ENDBRANCH  25  26
ENDBRANCH   1  25
TORSDOF 4
