REMARK  Name = ZINCpe000027pH9V.0
REMARK                            x       y       z     vdW  Elec       q    Type
REMARK                         _______ _______ _______ _____ _____    ______ ____
ROOT
ATOM      1  N   LIG    1       -0.884   1.741  -1.264  0.00  0.00    -0.480 N 
ATOM      2  C   LIG    1       -1.540   3.017  -0.903  0.00  0.00    +0.230 C 
ATOM      3  C   LIG    1       -1.502   3.126   0.633  0.00  0.00    +0.270 C 
ATOM      4  C   LIG    1       -0.756   1.857   1.111  0.00  0.00    +0.270 C 
ATOM      5  C   LIG    1        0.044   1.433  -0.146  0.00  0.00    +0.210 C 
ENDROOT
BRANCH   1  11
ATOM      6  C   LIG    1       -0.563   1.089  -3.585  0.00  0.00    -0.050 A 
ATOM      7  C   LIG    1        0.157   1.247  -4.770  0.00  0.00    +0.350 A 
ATOM      8  N   LIG    1        1.166   2.091  -4.834  0.00  0.00    -0.480 NA
ATOM      9  C   LIG    1        1.537   2.823  -3.798  0.00  0.00    +0.310 A 
ATOM     10  C   LIG    1        0.878   2.735  -2.589  0.00  0.00    -0.070 A 
ATOM     11  C   LIG    1       -0.197   1.858  -2.462  0.00  0.00    +0.170 A 
BRANCH   6  13
ATOM     12  N   LIG    1       -2.523  -0.565  -3.456  0.00  0.00    -0.390 NA
ATOM     13  C   LIG    1       -1.656   0.167  -3.513  0.00  0.00    +0.260 C 
ENDBRANCH   6  13
ENDBRANCH   1  11
BRANCH   3  14
ATOM     14  N   LIG    1       -0.769   4.327   1.039  0.00  0.00    -0.290 N 
ATOM     15  C   LIG    1        0.313   4.846   0.414  0.00  0.00    +0.120 A 
ATOM     16  C   LIG    1        0.665   5.946   1.119  0.00  0.00    +0.150 A 
ATOM     17  N   LIG    1       -0.208   6.046   2.128  0.00  0.00    -0.260 NA
ATOM     18  N   LIG    1       -1.048   5.075   2.049  0.00  0.00    -0.070 NA
ENDBRANCH   3  14
BRANCH   4  19
ATOM     19  N   LIG    1        0.149   2.170   2.220  0.00  0.00    -0.730 N 
ATOM     20  H   LIG    1        0.438   3.084   2.367  0.00  0.00    +0.400 HD
ATOM     21  C   LIG    1        0.581   1.188   3.036  0.00  0.00    +0.530 C 
ATOM     22  O   LIG    1        0.220   0.044   2.852  0.00  0.00    -0.530 OA
BRANCH  21  23
ATOM     23  C   LIG    1        1.511   1.510   4.176  0.00  0.00    -0.030 C 
ATOM     24  C   LIG    1        2.983   1.646   3.751  0.00  0.00    +0.040 C 
ATOM     25  C   LIG    1        3.344   0.902   5.049  0.00  0.00    +0.030 C 
ATOM     26  C   LIG    1        1.940   0.277   4.989  0.00  0.00    +0.050 C 
ENDBRANCH  21  23
ENDBRANCH   4  19
TORSDOF 5
