REMARK  Name = ZINCpk00000xIac0.0
REMARK                            x       y       z     vdW  Elec       q    Type
REMARK                         _______ _______ _______ _____ _____    ______ ____
ROOT
ATOM      1  C   LIG    1        7.172   2.970   0.665  0.00  0.00    -0.070 A 
ATOM      2  C   LIG    1        6.166   3.868   0.302  0.00  0.00    +0.080 A 
ATOM      3  C   LIG    1        4.883   3.690   0.777  0.00  0.00    +0.120 A 
ATOM      4  C   LIG    1        4.593   2.626   1.612  0.00  0.00    -0.650 A 
ATOM      5  C   LIG    1        5.586   1.736   1.980  0.00  0.00    +0.120 A 
ATOM      6  C   LIG    1        6.872   1.898   1.508  0.00  0.00    +0.070 A 
ENDROOT
BRANCH   4   7
ATOM      7  S   LIG    1        2.952   2.407   2.215  0.00  0.00    +2.690 S 
ATOM      8  O   LIG    1        3.061   1.646   3.410  0.00  0.00    -0.950 OA
ATOM      9  O   LIG    1        2.331   3.684   2.162  0.00  0.00    -0.950 OA
BRANCH   7  10
ATOM     10  N   LIG    1        2.151   1.453   1.124  0.00  0.00    -0.990 NA
ATOM     11  C   LIG    1        1.420   2.052  -0.001  0.00  0.00    +0.280 C 
ATOM     12  C   LIG    1       -0.019   1.526   0.010  0.00  0.00    +0.020 C 
ATOM     13  C   LIG    1        0.002  -0.004   0.002  0.00  0.00    +0.030 C 
ATOM     14  C   LIG    1        0.712  -0.513   1.258  0.00  0.00    -0.020 C 
ATOM     15  C   LIG    1        0.704  -2.043   1.265  0.00  0.00    +0.030 C 
ATOM     16  C   LIG    1        2.159  -0.010   1.262  0.00  0.00    +0.280 C 
ENDBRANCH   7  10
ENDBRANCH   4   7
BRANCH   1  17
ATOM     17  C   LIG    1        8.548   3.154   0.159  0.00  0.00    +0.510 C 
ATOM     18  O   LIG    1        8.806   4.087  -0.574  0.00  0.00    -0.490 OA
BRANCH  17  19
ATOM     19  O   LIG    1        9.516   2.286   0.512  0.00  0.00    -0.350 OA
BRANCH  19  20
ATOM     20  C   LIG    1       10.845   2.528  -0.023  0.00  0.00    +0.220 C 
BRANCH  20  21
ATOM     21  C   LIG    1       11.803   1.447   0.483  0.00  0.00    +0.300 C 
BRANCH  21  24
ATOM     22  C   LIG    1       11.688  -2.299  -0.295  0.00  0.00    +0.110 C 
ATOM     23  C   LIG    1       12.102  -0.960   0.259  0.00  0.00    +0.510 C 
ATOM     24  N   LIG    1       11.399   0.146  -0.055  0.00  0.00    -0.730 N 
ATOM     25  H   LIG    1       10.626   0.080  -0.637  0.00  0.00    +0.400 HD
ATOM     26  O   LIG    1       13.069  -0.878   0.987  0.00  0.00    -0.540 OA
ENDBRANCH  21  24
ENDBRANCH  20  21
ENDBRANCH  19  20
ENDBRANCH  17  19
ENDBRANCH   1  17
TORSDOF 7
