REMARK  Name = ZINCpe00000VVGvF.1
REMARK                            x       y       z     vdW  Elec       q    Type
REMARK                         _______ _______ _______ _____ _____    ______ ____
ROOT
ATOM      1  C   LIG    1        0.063  -2.562   2.851  0.00  0.00    +0.370 C 
ATOM      2  O   LIG    1        0.060  -1.782   3.773  0.00  0.00    -0.380 OA
ENDROOT
BRANCH   1   3
ATOM      3  C   LIG    1        0.043  -2.052   1.433  0.00  0.00    +0.060 C 
BRANCH   3   4
ATOM      4  C   LIG    1        0.022  -0.522   1.442  0.00  0.00    +0.030 C 
BRANCH   4   5
ATOM      5  C   LIG    1        0.002  -0.004   0.002  0.00  0.00    +0.320 C 
BRANCH   5  10
ATOM      6  C   LIG    1       -1.867   4.600   0.042  0.00  0.00    +0.340 C 
ATOM      7  N   LIG    1       -0.879   3.518   0.028  0.00  0.00    -0.630 N 
ATOM      8  C   LIG    1        0.587   3.664   0.015  0.00  0.00    +0.300 C 
ATOM      9  C   LIG    1        1.087   2.233   0.004  0.00  0.00    +0.520 C 
ATOM     10  N   LIG    1       -0.018   1.461   0.010  0.00  0.00    -0.580 N 
ATOM     11  O   LIG    1        2.240   1.861  -0.008  0.00  0.00    -0.470 OA
ATOM     12  C   LIG    1       -1.135   2.197   0.019  0.00  0.00    +0.700 C 
ATOM     13  O   LIG    1       -2.255   1.726   0.022  0.00  0.00    -0.540 OA
ENDBRANCH   5  10
ENDBRANCH   4   5
ENDBRANCH   3   4
ENDBRANCH   1   3
BRANCH   1  14
ATOM     14  C   LIG    1        0.085  -4.045   3.118  0.00  0.00    +0.110 C 
BRANCH  14  15
ATOM     15  C   LIG    1       -0.610  -4.330   4.425  0.00  0.00    +0.530 C 
ATOM     16  N   LIG    1       -0.711  -5.598   4.871  0.00  0.00    -0.720 N 
ATOM     17  H   LIG    1       -0.338  -6.326   4.351  0.00  0.00    +0.400 HD
ATOM     18  O   LIG    1       -1.077  -3.419   5.075  0.00  0.00    -0.490 OA
BRANCH  16  19
ATOM     19  C   LIG    1       -1.387  -5.876   6.141  0.00  0.00    +0.240 C 
ATOM     20  C   LIG    1       -0.396  -5.705   7.294  0.00  0.00    +0.000 C 
ATOM     21  C   LIG    1       -1.101  -5.995   8.620  0.00  0.00    +0.020 C 
ATOM     22  C   LIG    1       -1.632  -7.430   8.612  0.00  0.00    +0.010 C 
ATOM     23  C   LIG    1       -2.623  -7.601   7.459  0.00  0.00    +0.020 C 
ATOM     24  C   LIG    1       -1.918  -7.311   6.133  0.00  0.00    +0.010 C 
ENDBRANCH  16  19
ENDBRANCH  14  15
BRANCH  14  25
ATOM     25  C   LIG    1        1.480  -4.508   3.193  0.00  0.00    +0.200 C 
ATOM     26  N   LIG    1        2.557  -4.867   3.250  0.00  0.00    -0.380 NA
ENDBRANCH  14  25
ENDBRANCH   1  14
TORSDOF 8
