REMARK  Name = ZINCpe00000VVGvF.0
REMARK                            x       y       z     vdW  Elec       q    Type
REMARK                         _______ _______ _______ _____ _____    ______ ____
ROOT
ATOM      1  C   LIG    1        2.811   4.042  -0.003  0.00  0.00    +0.370 C 
ATOM      2  O   LIG    1        3.739   3.270  -0.016  0.00  0.00    -0.380 OA
ENDROOT
BRANCH   1   3
ATOM      3  C   LIG    1        1.397   3.520   0.008  0.00  0.00    +0.060 C 
BRANCH   3   4
ATOM      4  C   LIG    1        1.418   1.990  -0.001  0.00  0.00    +0.030 C 
BRANCH   4   5
ATOM      5  C   LIG    1       -0.018   1.461   0.010  0.00  0.00    +0.320 C 
BRANCH   5  10
ATOM      6  C   LIG    1        0.025  -3.159  -1.821  0.00  0.00    +0.340 C 
ATOM      7  N   LIG    1        0.021  -2.068  -0.843  0.00  0.00    -0.630 N 
ATOM      8  C   LIG    1        0.037  -2.202   0.624  0.00  0.00    +0.300 C 
ATOM      9  C   LIG    1        0.022  -0.767   1.113  0.00  0.00    +0.520 C 
ATOM     10  N   LIG    1        0.002  -0.004   0.002  0.00  0.00    -0.580 N 
ATOM     11  O   LIG    1        0.029  -0.385   2.263  0.00  0.00    -0.470 OA
ATOM     12  C   LIG    1       -0.004  -0.750  -1.109  0.00  0.00    +0.700 C 
ATOM     13  O   LIG    1       -0.025  -0.287  -2.233  0.00  0.00    -0.540 OA
ENDBRANCH   5  10
ENDBRANCH   4   5
ENDBRANCH   3   4
ENDBRANCH   1   3
BRANCH   1  14
ATOM     14  C   LIG    1        3.066   5.527   0.003  0.00  0.00    +0.110 C 
BRANCH  14  15
ATOM     15  C   LIG    1        4.426   5.801   0.592  0.00  0.00    +0.520 C 
ATOM     16  N   LIG    1        4.871   7.068   0.698  0.00  0.00    -0.720 N 
ATOM     17  H   LIG    1        4.316   7.804   0.396  0.00  0.00    +0.400 HD
ATOM     18  O   LIG    1        5.119   4.880   0.970  0.00  0.00    -0.490 OA
BRANCH  16  19
ATOM     19  C   LIG    1        6.193   7.335   1.271  0.00  0.00    +0.230 C 
ATOM     20  C   LIG    1        6.085   7.400   2.795  0.00  0.00    +0.010 C 
ATOM     21  C   LIG    1        7.465   7.678   3.393  0.00  0.00    +0.020 C 
ATOM     22  C   LIG    1        7.992   9.012   2.862  0.00  0.00    +0.010 C 
ATOM     23  C   LIG    1        8.100   8.947   1.337  0.00  0.00    +0.020 C 
ATOM     24  C   LIG    1        6.720   8.669   0.739  0.00  0.00    +0.010 C 
ENDBRANCH  16  19
ENDBRANCH  14  15
BRANCH  14  25
ATOM     25  C   LIG    1        3.017   6.038  -1.377  0.00  0.00    +0.200 C 
ATOM     26  N   LIG    1        2.979   6.433  -2.442  0.00  0.00    -0.380 NA
ENDBRANCH  14  25
ENDBRANCH   1  14
TORSDOF 8
