REMARK  Name = ZINCah0000002iYK.0
REMARK                            x       y       z     vdW  Elec       q    Type
REMARK                         _______ _______ _______ _____ _____    ______ ____
ROOT
ATOM      1  C   LIG    1       -3.527   4.855   0.044  0.00  0.00    +0.170 C 
ATOM      2  C   LIG    1       -2.816   3.526   0.034  0.00  0.00    +0.030 A 
ATOM      3  C   LIG    1       -1.476   3.332   0.027  0.00  0.00    -0.120 A 
ATOM      4  C   LIG    1       -1.297   1.926   0.019  0.00  0.00    -0.050 A 
ATOM      5  N   LIG    1       -2.501   1.383   0.016  0.00  0.00    -0.220 NA
ATOM      6 CL   LIG    1       -0.238   4.550   0.028  0.00  0.00    -0.020 Cl
ATOM      7  N   LIG    1       -3.399   2.301   0.030  0.00  0.00    -0.280 N 
ATOM      8  C   LIG    1       -4.844   2.060   0.035  0.00  0.00    +0.370 C 
ENDROOT
BRANCH   4   9
ATOM      9  C   LIG    1       -0.014   1.209   0.009  0.00  0.00    +0.550 C 
ATOM     10  O   LIG    1        0.002  -0.004   0.002  0.00  0.00    -0.440 OA
ENDBRANCH   4   9
TORSDOF 1
