REMARK  Name = ZINCb70000003XDD.0
REMARK                            x       y       z     vdW  Elec       q    Type
REMARK                         _______ _______ _______ _____ _____    ______ ____
ROOT
ATOM      1  C   LIG    1       -2.239   1.462  -0.652  0.00  0.00    +0.020 C 
ATOM      2  C   LIG    1       -1.952   2.296   0.648  0.00  0.00    +0.070 C 
ATOM      3  C   LIG    1       -1.332   3.587   0.028  0.00  0.00    +0.050 C 
ATOM      4  C   LIG    1       -0.506   3.051  -1.181  0.00  0.00    +0.070 C 
ATOM      5  C   LIG    1       -0.733   1.496   1.205  0.00  0.00    +0.280 C 
ATOM      6  N   LIG    1       -0.012   1.005   0.008  0.00  0.00    -0.520 N 
ATOM      7  H   LIG    1        0.931   1.364   0.001  0.00  0.00    +0.440 HD
ATOM      8  H   LIG    1        0.002  -0.004   0.002  0.00  0.00    +0.430 HD
ATOM      9  C   LIG    1       -0.762   1.514  -1.182  0.00  0.00    +0.230 C 
ENDROOT
BRANCH   1  10
ATOM     10  C   LIG    1       -3.200   2.163  -1.578  0.00  0.00    +0.480 C 
ATOM     11  O   LIG    1       -2.794   2.680  -2.592  0.00  0.00    -0.490 OA
BRANCH  10  13
ATOM     12  C   LIG    1       -5.373   2.906  -2.213  0.00  0.00    +0.280 C 
ATOM     13  O   LIG    1       -4.506   2.214  -1.276  0.00  0.00    -0.350 OA
ENDBRANCH  10  13
ENDBRANCH   1  10
TORSDOF 2
