REMARK  Name = ZINCbu0000000GGr.0
REMARK                            x       y       z     vdW  Elec       q    Type
REMARK                         _______ _______ _______ _____ _____    ______ ____
ROOT
ATOM      1  C   LIG    1       -3.384   2.816   3.958  0.00  0.00    +0.290 C 
ATOM      2  C   LIG    1       -4.164   1.598   4.499  0.00  0.00    +0.080 C 
ATOM      3  C   LIG    1       -5.639   2.048   4.527  0.00  0.00    +0.070 C 
ATOM      4  C   LIG    1       -5.627   3.499   4.002  0.00  0.00    +0.280 C 
ATOM      5  N   LIG    1       -4.389   3.591   3.186  0.00  0.00    -0.520 N 
ATOM      6  H   LIG    1       -4.533   3.176   2.278  0.00  0.00    +0.420 HD
ATOM      7  H   LIG    1       -4.097   4.553   3.093  0.00  0.00    +0.440 HD
ENDROOT
BRANCH   1  12
ATOM      8  C   LIG    1       -0.013   1.086   0.008  0.00  0.00    +0.160 C 
ATOM      9  C   LIG    1       -0.718   1.572   1.248  0.00  0.00    -0.120 A 
ATOM     10  C   LIG    1       -0.129   1.830   2.417  0.00  0.00    +0.000 A 
ATOM     11  C   LIG    1       -0.982   2.267   3.416  0.00  0.00    +0.090 A 
ATOM     12  C   LIG    1       -2.263   2.365   3.058  0.00  0.00    -0.280 A 
ATOM     13  S   LIG    1       -2.443   1.893   1.373  0.00  0.00    +0.100 S 
ENDBRANCH   1  12
TORSDOF 1
