REMARK  Name = ZINCrD0000073zDE.0
REMARK                            x       y       z     vdW  Elec       q    Type
REMARK                         _______ _______ _______ _____ _____    ______ ____
ROOT
ATOM      1  C   LIG    1       -5.930   3.224   2.837  0.00  0.00    +0.330 C 
ENDROOT
BRANCH   1   6
ATOM      2  C   LIG    1      -10.975   4.364   2.563  0.00  0.00    +0.190 A 
ATOM      3  C   LIG    1      -10.027   4.394   3.583  0.00  0.00    -0.080 A 
ATOM      4  C   LIG    1       -8.736   4.023   3.338  0.00  0.00    +0.120 A 
ATOM      5  C   LIG    1       -8.363   3.610   2.054  0.00  0.00    -0.190 A 
ATOM      6  C   LIG    1       -6.986   3.207   1.762  0.00  0.00    +0.030 A 
ATOM      7  C   LIG    1       -6.686   2.821   0.495  0.00  0.00    -0.070 A 
ATOM      8  C   LIG    1       -7.693   2.807  -0.492  0.00  0.00    +0.510 A 
ATOM      9  O   LIG    1       -8.953   3.179  -0.218  0.00  0.00    -0.270 OA
ATOM     10  O   LIG    1       -7.411   2.454  -1.623  0.00  0.00    -0.460 OA
ATOM     11  C   LIG    1       -9.317   3.578   1.020  0.00  0.00    +0.190 A 
ATOM     12  C   LIG    1      -10.623   3.958   1.286  0.00  0.00    -0.010 A 
BRANCH   2  14
ATOM     13  C   LIG    1      -12.553   5.144   4.160  0.00  0.00    +0.250 C 
ATOM     14  O   LIG    1      -12.255   4.736   2.823  0.00  0.00    -0.300 OA
ENDBRANCH   2  14
ENDBRANCH   1   6
BRANCH   1  15
ATOM     15  O   LIG    1       -4.665   2.781   2.280  0.00  0.00    -0.360 OA
BRANCH  15  16
ATOM     16  C   LIG    1       -3.608   2.738   3.116  0.00  0.00    +0.540 C 
ATOM     17  O   LIG    1       -3.741   3.064   4.281  0.00  0.00    -0.490 OA
BRANCH  16  18
ATOM     18  C   LIG    1       -2.298   2.300   2.623  0.00  0.00    -0.050 A 
ATOM     19  C   LIG    1       -1.156   2.212   3.361  0.00  0.00    -0.010 A 
ATOM     20  C   LIG    1       -0.137   1.751   2.494  0.00  0.00    -0.260 A 
ATOM     21  C   LIG    1       -0.717   1.576   1.246  0.00  0.00    +0.120 A 
ATOM     22  C   LIG    1       -0.009   1.095   0.005  0.00  0.00    +0.160 C 
ATOM     23  C   LIG    1       -1.006   2.545   4.824  0.00  0.00    +0.140 C 
ATOM     24  N   LIG    1       -2.012   1.913   1.331  0.00  0.00    -0.510 N 
ATOM     25  H   LIG    1       -2.647   1.886   0.599  0.00  0.00    +0.430 HD
BRANCH  20  26
ATOM     26  C   LIG    1        1.264   1.504   2.847  0.00  0.00    +0.440 C 
ATOM     27  O   LIG    1        2.064   2.416   2.827  0.00  0.00    -0.450 OA
ATOM     28  C   LIG    1        1.710   0.118   3.236  0.00  0.00    +0.080 C 
ENDBRANCH  20  26
ENDBRANCH  16  18
ENDBRANCH  15  16
ENDBRANCH   1  15
TORSDOF 6
