REMARK  Name = ZINCpk00000KfKuL.0
REMARK                            x       y       z     vdW  Elec       q    Type
REMARK                         _______ _______ _______ _____ _____    ______ ____
ROOT
ATOM      1  C   LIG    1       -0.021  -4.318   0.193  0.00  0.00    +0.220 C 
ATOM      2  C   LIG    1       -1.524  -4.657   0.273  0.00  0.00    +0.040 C 
ATOM      3  C   LIG    1       -2.193  -3.412  -0.368  0.00  0.00    +0.040 C 
ATOM      4  C   LIG    1       -1.261  -2.274   0.117  0.00  0.00    +0.250 C 
ATOM      5  N   LIG    1        0.093  -2.856   0.088  0.00  0.00    -0.610 N 
ATOM      6  C   LIG    1        1.244  -2.163  -0.021  0.00  0.00    +0.560 C 
ATOM      7  O   LIG    1        2.298  -2.754  -0.151  0.00  0.00    -0.480 OA
ENDROOT
BRANCH   6   8
ATOM      8  C   LIG    1        1.224  -0.685   0.017  0.00  0.00    -0.100 A 
ATOM      9  C   LIG    1        0.129  -0.014   0.563  0.00  0.00    +0.050 A 
ATOM     10  C   LIG    1        0.113   1.366   0.598  0.00  0.00    +0.050 A 
ATOM     11  C   LIG    1        1.179   2.087   0.092  0.00  0.00    +0.040 A 
ATOM     12  C   LIG    1        2.273   1.427  -0.454  0.00  0.00    +0.130 A 
ATOM     13  C   LIG    1        2.299   0.043  -0.493  0.00  0.00    +0.110 A 
BRANCH  12  14
ATOM     14  N   LIG    1        3.352   2.163  -0.965  0.00  0.00    -0.330 N 
ATOM     15  C   LIG    1        3.481   3.507  -1.008  0.00  0.00    +0.470 A 
ATOM     16  N   LIG    1        4.637   3.769  -1.559  0.00  0.00    -0.330 NA
ATOM     17  N   LIG    1        5.244   2.683  -1.876  0.00  0.00    -0.030 NA
ATOM     18  N   LIG    1        4.529   1.661  -1.548  0.00  0.00    -0.070 NA
ENDBRANCH  12  14
ENDBRANCH   6   8
BRANCH   1  19
ATOM     19  C   LIG    1        0.688  -4.806   1.458  0.00  0.00    +0.310 C 
BRANCH  19  23
ATOM     20  C   LIG    1        5.322  -3.163   2.430  0.00  0.00    +0.100 C 
ATOM     21  C   LIG    1        4.145  -3.828   1.764  0.00  0.00    -0.230 A 
ATOM     22  C   LIG    1        2.873  -3.842   2.226  0.00  0.00    +0.210 A 
ATOM     23  N   LIG    1        2.124  -4.540   1.347  0.00  0.00    -0.360 N 
ATOM     24  N   LIG    1        2.962  -4.962   0.306  0.00  0.00    -0.260 NA
ATOM     25  C   LIG    1        4.173  -4.534   0.557  0.00  0.00    +0.230 A 
ENDBRANCH  19  23
ENDBRANCH   1  19
TORSDOF 4
