REMARK  Name = ZINCrg00000fSDZC.1
REMARK                            x       y       z     vdW  Elec       q    Type
REMARK                         _______ _______ _______ _____ _____    ______ ____
ROOT
ATOM      1  C   LIG    1       -2.426   3.025  -1.694  0.00  0.00    +0.180 A 
ATOM      2  N   LIG    1       -2.721   1.841  -2.168  0.00  0.00    -0.560 NA
ATOM      3  C   LIG    1       -4.055   1.723  -2.329  0.00  0.00    +0.500 A 
ATOM      4  N   LIG    1       -4.800   0.725  -2.772  0.00  0.00    -0.570 NA
ATOM      5  C   LIG    1       -6.131   0.829  -2.847  0.00  0.00    +0.270 A 
ATOM      6  C   LIG    1       -6.758   2.003  -2.455  0.00  0.00    -0.230 A 
ATOM      7  C   LIG    1       -5.965   3.064  -1.984  0.00  0.00    +0.540 A 
ATOM      8  O   LIG    1       -6.477   4.113  -1.631  0.00  0.00    -0.560 OA
ATOM      9  N   LIG    1       -4.630   2.900  -1.931  0.00  0.00    -0.380 N 
ATOM     10  N   LIG    1       -3.583   3.736  -1.517  0.00  0.00    -0.300 NA
ENDROOT
BRANCH   5  11
ATOM     11  C   LIG    1       -6.937  -0.310  -3.348  0.00  0.00    -0.040 A 
ATOM     12  C   LIG    1       -8.325  -0.206  -3.422  0.00  0.00    +0.040 A 
ATOM     13  C   LIG    1       -9.069  -1.268  -3.895  0.00  0.00    -0.010 A 
ATOM     14  C   LIG    1       -8.441  -2.437  -4.284  0.00  0.00    +0.010 A 
ATOM     15  C   LIG    1       -7.064  -2.548  -4.208  0.00  0.00    -0.010 A 
ATOM     16  C   LIG    1       -6.309  -1.491  -3.742  0.00  0.00    +0.060 A 
ENDBRANCH   5  11
BRANCH   1  18
ATOM     17  O   LIG    1       -0.895   4.636  -0.949  0.00  0.00    -0.500 OA
ATOM     18  C   LIG    1       -1.055   3.516  -1.388  0.00  0.00    +0.630 C 
ATOM     19  N   LIG    1        0.010   2.717  -1.600  0.00  0.00    -0.740 N 
ATOM     20  H   LIG    1       -0.118   1.822  -1.951  0.00  0.00    +0.410 HD
BRANCH  19  21
ATOM     21  C   LIG    1        1.359   3.201  -1.300  0.00  0.00    +0.320 C 
BRANCH  21  22
ATOM     22  C   LIG    1        2.370   2.079  -1.547  0.00  0.00    +0.200 C 
ATOM     23  C   LIG    1        3.671   2.237  -0.744  0.00  0.00    +0.110 C 
ATOM     24  C   LIG    1        3.556   0.715  -0.586  0.00  0.00    +0.290 C 
ATOM     25  N   LIG    1        2.099   0.861  -0.761  0.00  0.00    -0.380 N 
ATOM     26  H   LIG    1        1.684   0.118  -1.303  0.00  0.00    +0.430 HD
BRANCH  25  27
ATOM     27  C   LIG    1        1.383   1.122   0.495  0.00  0.00    +0.110 C 
ATOM     28  C   LIG    1        1.508   0.082   1.610  0.00  0.00    +0.100 C 
ATOM     29  C   LIG    1        2.223   1.429   1.736  0.00  0.00    +0.090 C 
ENDBRANCH  25  27
ENDBRANCH  21  22
ENDBRANCH  19  21
ENDBRANCH   1  18
TORSDOF 5
