REMARK  Name = ZINCrg00000fSDZC.0
REMARK                            x       y       z     vdW  Elec       q    Type
REMARK                         _______ _______ _______ _____ _____    ______ ____
ROOT
ATOM      1  C   LIG    1       -2.098   0.716   0.026  0.00  0.00    +0.190 A 
ATOM      2  N   LIG    1       -1.307   1.759   0.029  0.00  0.00    -0.560 NA
ATOM      3  C   LIG    1       -0.017   1.365   0.009  0.00  0.00    +0.490 A 
ATOM      4  N   LIG    1        1.111   2.055   0.003  0.00  0.00    -0.570 NA
ATOM      5  C   LIG    1        2.301   1.444  -0.011  0.00  0.00    +0.270 A 
ATOM      6  C   LIG    1        2.370   0.058  -0.019  0.00  0.00    -0.230 A 
ATOM      7  C   LIG    1        1.169  -0.674  -0.012  0.00  0.00    +0.540 A 
ATOM      8  O   LIG    1        1.186  -1.894  -0.019  0.00  0.00    -0.560 OA
ATOM      9  N   LIG    1        0.002  -0.004   0.002  0.00  0.00    -0.380 N 
ATOM     10  N   LIG    1       -1.337  -0.422   0.013  0.00  0.00    -0.300 NA
ENDROOT
BRANCH   5  11
ATOM     11  C   LIG    1        3.546   2.248  -0.019  0.00  0.00    -0.040 A 
ATOM     12  C   LIG    1        4.788   1.614  -0.029  0.00  0.00    +0.040 A 
ATOM     13  C   LIG    1        5.944   2.367  -0.042  0.00  0.00    -0.010 A 
ATOM     14  C   LIG    1        5.873   3.749  -0.034  0.00  0.00    +0.010 A 
ATOM     15  C   LIG    1        4.643   4.383  -0.018  0.00  0.00    -0.010 A 
ATOM     16  C   LIG    1        3.481   3.640  -0.011  0.00  0.00    +0.060 A 
ENDBRANCH   5  11
BRANCH   1  18
ATOM     17  O   LIG    1       -4.223  -0.272   0.042  0.00  0.00    -0.500 OA
ATOM     18  C   LIG    1       -3.585   0.761   0.041  0.00  0.00    +0.630 C 
ATOM     19  N   LIG    1       -4.224   1.947   0.053  0.00  0.00    -0.740 N 
ATOM     20  H   LIG    1       -3.714   2.773   0.052  0.00  0.00    +0.410 HD
BRANCH  19  21
ATOM     21  C   LIG    1       -5.688   1.991   0.068  0.00  0.00    +0.310 C 
BRANCH  21  22
ATOM     22  C   LIG    1       -6.155   3.448   0.080  0.00  0.00    +0.200 C 
ATOM     23  C   LIG    1       -7.534   3.643   0.726  0.00  0.00    +0.110 C 
ATOM     24  C   LIG    1       -6.891   4.910   1.306  0.00  0.00    +0.300 C 
ATOM     25  N   LIG    1       -5.584   4.238   1.187  0.00  0.00    -0.390 N 
ATOM     26  H   LIG    1       -5.343   3.683   1.994  0.00  0.00    +0.430 HD
BRANCH  25  27
ATOM     27  C   LIG    1       -4.501   5.136   0.765  0.00  0.00    +0.090 C 
ATOM     28  C   LIG    1       -3.086   4.811   1.247  0.00  0.00    +0.110 C 
ATOM     29  C   LIG    1       -3.841   6.002   1.841  0.00  0.00    +0.090 C 
ENDBRANCH  25  27
ENDBRANCH  21  22
ENDBRANCH  19  21
ENDBRANCH   1  18
TORSDOF 5
