REMARK  Name = ZINCpk00000y6xxQ.0
REMARK                            x       y       z     vdW  Elec       q    Type
REMARK                         _______ _______ _______ _____ _____    ______ ____
ROOT
ATOM      1  C   LIG    1        1.294   1.741  -0.001  0.00  0.00    +0.030 A 
ATOM      2  C   LIG    1       -0.016   1.345   0.009  0.00  0.00    +0.230 A 
ATOM      3  N   LIG    1        0.002  -0.004   0.002  0.00  0.00    -0.280 N 
ATOM      4  N   LIG    1        1.226  -0.398  -0.012  0.00  0.00    -0.060 NA
ATOM      5  N   LIG    1        2.026   0.609  -0.014  0.00  0.00    -0.210 NA
ENDROOT
BRANCH   1   9
ATOM      6  C   LIG    1        3.047   4.850  -0.001  0.00  0.00    +0.220 A 
ATOM      7  N   LIG    1        1.793   5.220   0.013  0.00  0.00    -0.360 NA
ATOM      8  O   LIG    1        1.066   4.250   0.009  0.00  0.00    +0.100 OA
ATOM      9  C   LIG    1        1.803   3.127   0.002  0.00  0.00    +0.270 A 
ATOM     10  N   LIG    1        3.069   3.501  -0.008  0.00  0.00    -0.440 NA
BRANCH   6  16
ATOM     11  F   LIG    1        7.859   5.536  -0.041  0.00  0.00    -0.130 F 
ATOM     12  C   LIG    1        6.611   6.054  -0.028  0.00  0.00    +0.100 A 
ATOM     13  C   LIG    1        6.432   7.427  -0.018  0.00  0.00    +0.010 A 
ATOM     14  C   LIG    1        5.157   7.963  -0.004  0.00  0.00    +0.050 A 
ATOM     15  C   LIG    1        4.056   7.131   0.002  0.00  0.00    +0.050 A 
ATOM     16  C   LIG    1        4.229   5.748  -0.007  0.00  0.00    +0.000 A 
ATOM     17  C   LIG    1        5.514   5.212  -0.017  0.00  0.00    +0.040 A 
ENDBRANCH   6  16
ENDBRANCH   1   9
BRANCH   3  18
ATOM     18  C   LIG    1       -1.176  -0.875   0.009  0.00  0.00    +0.340 C 
BRANCH  18  19
ATOM     19  C   LIG    1       -1.106  -1.837  -1.179  0.00  0.00    +0.190 C 
BRANCH  19  20
ATOM     20  N   LIG    1       -2.288  -2.710  -1.171  0.00  0.00    -0.530 NA
ATOM     21  C   LIG    1       -2.275  -3.604  -0.004  0.00  0.00    +0.150 C 
ATOM     22  C   LIG    1       -3.550  -4.452  -0.004  0.00  0.00    +0.220 C 
ATOM     23  O   LIG    1       -3.638  -5.172  -1.237  0.00  0.00    -0.380 OA
ATOM     24  C   LIG    1       -3.653  -4.332  -2.394  0.00  0.00    +0.220 C 
ATOM     25  C   LIG    1       -2.379  -3.483  -2.419  0.00  0.00    +0.160 C 
ENDBRANCH  19  20
ENDBRANCH  18  19
ENDBRANCH   3  18
TORSDOF 5
