REMARK  Name = ZINCrH000004mGHb.1
REMARK                            x       y       z     vdW  Elec       q    Type
REMARK                         _______ _______ _______ _____ _____    ______ ____
ROOT
ATOM      1  C   LIG    1       -0.232   1.383  -4.871  0.00  0.00    +0.150 C 
ENDROOT
BRANCH   1   2
ATOM      2  N   LIG    1       -0.953   2.023  -5.980  0.00  0.00    -0.670 NA
ATOM      3  H   LIG    1       -1.923   1.745  -5.989  0.00  0.00    +0.350 HD
BRANCH   2   4
ATOM      4  C   LIG    1       -0.308   1.728  -7.266  0.00  0.00    +0.240 C 
BRANCH   4   5
ATOM      5  C   LIG    1       -1.073   2.399  -8.378  0.00  0.00    -0.050 A 
ATOM      6  C   LIG    1       -0.741   3.682  -8.769  0.00  0.00    +0.000 A 
ATOM      7  C   LIG    1       -1.443   4.299  -9.790  0.00  0.00    +0.040 A 
ATOM      8  C   LIG    1       -2.479   3.634 -10.421  0.00  0.00    -0.010 A 
ATOM      9  C   LIG    1       -2.816   2.350 -10.033  0.00  0.00    +0.000 A 
ATOM     10 CL   LIG    1       -3.357   4.411 -11.701  0.00  0.00    -0.050 Cl
ATOM     11 CL   LIG    1        0.557   4.521  -7.979  0.00  0.00    -0.040 Cl
ATOM     12  C   LIG    1       -2.109   1.726  -9.013  0.00  0.00    +0.120 A 
BRANCH  12  13
ATOM     13  N   LIG    1       -2.443   0.427  -8.624  0.00  0.00    -0.510 N 
ATOM     14  C   LIG    1       -2.206  -0.527  -9.715  0.00  0.00    +0.200 C 
ATOM     15  C   LIG    1       -3.834   0.359  -8.157  0.00  0.00    +0.220 C 
ENDBRANCH  12  13
ENDBRANCH   4   5
ENDBRANCH   2   4
ENDBRANCH   1   2
BRANCH   1  16
ATOM     16  C   LIG    1       -0.932   1.713  -3.551  0.00  0.00    +0.230 C 
BRANCH  16  17
ATOM     17  O   LIG    1       -2.235   1.127  -3.543  0.00  0.00    -0.550 OA
ATOM     18  H   LIG    1       -2.234   0.164  -3.633  0.00  0.00    +0.370 HD
ENDBRANCH  16  17
BRANCH  16  19
ATOM     19  C   LIG    1       -0.114   1.152  -2.386  0.00  0.00    +0.140 C 
BRANCH  19  20
ATOM     20  O   LIG    1       -0.704   1.559  -1.150  0.00  0.00    -0.370 OA
BRANCH  20  21
ATOM     21  C   LIG    1       -0.013   1.086   0.008  0.00  0.00    +0.230 C 
BRANCH  21  25
ATOM     22  C   LIG    1       -2.013   2.464   3.524  0.00  0.00    +0.130 A 
ATOM     23  C   LIG    1       -2.367   1.250   2.954  0.00  0.00    -0.020 A 
ATOM     24  C   LIG    1       -1.720   0.807   1.817  0.00  0.00    +0.070 A 
ATOM     25  C   LIG    1       -0.718   1.572   1.248  0.00  0.00    -0.130 A 
ATOM     26  C   LIG    1       -0.359   2.779   1.818  0.00  0.00    +0.070 A 
ATOM     27  C   LIG    1       -1.008   3.230   2.951  0.00  0.00    -0.080 A 
BRANCH  22  29
ATOM     28  C   LIG    1       -2.231   4.160   5.175  0.00  0.00    +0.250 C 
ATOM     29  O   LIG    1       -2.648   2.902   4.643  0.00  0.00    -0.320 OA
ENDBRANCH  22  29
ENDBRANCH  21  25
ENDBRANCH  20  21
ENDBRANCH  19  20
ENDBRANCH  16  19
ENDBRANCH   1  16
TORSDOF 11
