REMARK  Name = ZINCpe00000MJI0V.0
REMARK                            x       y       z     vdW  Elec       q    Type
REMARK                         _______ _______ _______ _____ _____    ______ ____
ROOT
ATOM      1  O   LIG    1       -4.488   3.219   2.701  0.00  0.00    -0.520 OA
ATOM      2  C   LIG    1       -5.070   4.012   1.991  0.00  0.00    +0.520 C 
ATOM      3  N   LIG    1       -5.940   4.888   2.531  0.00  0.00    -0.600 N 
ENDROOT
BRANCH   2   4
ATOM      4  C   LIG    1       -4.819   4.019   0.505  0.00  0.00    -0.010 C 
ATOM      5  C   LIG    1       -3.584   4.882   0.156  0.00  0.00    +0.110 C 
ATOM      6  C   LIG    1       -2.438   3.895   0.129  0.00  0.00    +0.530 C 
ATOM      7  N   LIG    1       -2.910   2.639   0.054  0.00  0.00    -0.540 N 
ATOM      8  O   LIG    1       -1.263   4.195   0.170  0.00  0.00    -0.500 OA
ATOM      9  C   LIG    1       -4.377   2.623   0.006  0.00  0.00    +0.310 C 
BRANCH   7  10
ATOM     10  C   LIG    1       -2.109   1.498   0.020  0.00  0.00    +0.370 A 
ATOM     11  C   LIG    1       -0.726   1.627   0.067  0.00  0.00    -0.040 A 
ATOM     12  C   LIG    1        0.058   0.486   0.033  0.00  0.00    +0.090 A 
ATOM     13  C   LIG    1       -0.573  -0.748  -0.046  0.00  0.00    -0.060 A 
ATOM     14  C   LIG    1       -1.952  -0.801  -0.089  0.00  0.00    +0.290 A 
ATOM     15  N   LIG    1       -2.673   0.304  -0.060  0.00  0.00    -0.510 NA
ENDBRANCH   7  10
ENDBRANCH   2   4
BRANCH   3  16
ATOM     16  C   LIG    1       -6.100   4.960   3.985  0.00  0.00    +0.360 C 
BRANCH  16  17
ATOM     17  C   LIG    1       -5.128   5.965   4.548  0.00  0.00    -0.160 A 
ATOM     18  C   LIG    1       -5.492   7.296   4.678  0.00  0.00    +0.070 A 
ATOM     19  C   LIG    1       -4.566   8.186   5.202  0.00  0.00    -0.040 A 
ATOM     20  C   LIG    1       -3.319   7.719   5.573  0.00  0.00    +0.260 A 
ATOM     21  N   LIG    1       -3.007   6.445   5.435  0.00  0.00    -0.480 NA
ATOM     22  C   LIG    1       -3.865   5.570   4.947  0.00  0.00    +0.280 A 
ENDBRANCH  16  17
ENDBRANCH   3  16
BRANCH   3  23
ATOM     23  C   LIG    1       -6.727   5.768   1.663  0.00  0.00    +0.290 C 
BRANCH  23  24
ATOM     24  C   LIG    1       -7.983   5.031   1.193  0.00  0.00    +0.160 C 
BRANCH  24  25
ATOM     25  O   LIG    1       -8.823   4.757   2.316  0.00  0.00    -0.570 OA
ATOM     26  H   LIG    1       -9.639   4.290   2.092  0.00  0.00    +0.380 HD
ENDBRANCH  24  25
ENDBRANCH  23  24
ENDBRANCH   3  23
TORSDOF 7
