REMARK  Name = ZINC9u0000000C6K.0
REMARK                            x       y       z     vdW  Elec       q    Type
REMARK                         _______ _______ _______ _____ _____    ______ ____
ROOT
ATOM      1 CL   LIG    1       -1.490  -0.892   0.011  0.00  0.00    +0.020 Cl
ATOM      2  C   LIG    1        0.002  -0.004   0.002  0.00  0.00    +0.140 A 
ATOM      3  C   LIG    1        1.210  -0.680  -0.014  0.00  0.00    +0.300 A 
ATOM      4  N   LIG    1        2.346  -0.005  -0.020  0.00  0.00    -0.400 NA
ATOM      5  C   LIG    1        2.330   1.317  -0.013  0.00  0.00    +0.140 A 
ATOM      6  C   LIG    1        1.120   1.995   0.002  0.00  0.00    +0.160 A 
ATOM      7 CL   LIG    1        1.098   3.731   0.011  0.00  0.00    +0.030 Cl
ATOM      8 CL   LIG    1        3.822   2.203  -0.021  0.00  0.00    +0.030 Cl
ATOM      9  N   LIG    1       -0.016   1.319   0.009  0.00  0.00    -0.410 NA
ENDROOT
TORSDOF 0
