REMARK  Name = ZINCtV00000L6k8k.0
REMARK                            x       y       z     vdW  Elec       q    Type
REMARK                         _______ _______ _______ _____ _____    ______ ____
ROOT
ATOM      1  C   LIG    1       -0.013   1.086   0.008  0.00  0.00    +0.140 C 
ATOM      2  C   LIG    1       -0.718   1.572   1.248  0.00  0.00    +0.030 A 
ATOM      3  C   LIG    1       -0.132   1.835   2.430  0.00  0.00    -0.040 A 
ATOM      4  C   LIG    1       -1.195   2.278   3.336  0.00  0.00    -0.110 A 
ATOM      5  C   LIG    1       -2.351   2.245   2.613  0.00  0.00    +0.090 A 
ATOM      6  C   LIG    1       -3.720   2.617   3.121  0.00  0.00    +0.160 C 
ATOM      7  N   LIG    1       -2.056   1.823   1.354  0.00  0.00    -0.410 N 
ENDROOT
BRANCH   4   8
ATOM      8  C   LIG    1       -1.044   2.680   4.750  0.00  0.00    +0.300 A 
ATOM      9  N   LIG    1       -2.015   3.074   5.542  0.00  0.00    -0.470 NA
ATOM     10  C   LIG    1       -1.507   3.359   6.757  0.00  0.00    +0.040 A 
ATOM     11  C   LIG    1       -0.168   3.133   6.718  0.00  0.00    -0.000 A 
ATOM     12  C   LIG    1        0.807   3.319   7.851  0.00  0.00    +0.160 C 
ATOM     13  N   LIG    1        0.126   2.700   5.452  0.00  0.00    -0.560 N 
ATOM     14  H   LIG    1        1.002   2.455   5.117  0.00  0.00    +0.420 HD
BRANCH  10  15
ATOM     15  C   LIG    1       -2.276   3.836   7.933  0.00  0.00    +0.000 A 
ATOM     16  C   LIG    1       -1.915   3.429   9.216  0.00  0.00    +0.010 A 
ATOM     17  C   LIG    1       -2.631   3.881  10.307  0.00  0.00    +0.000 A 
ATOM     18  C   LIG    1       -3.711   4.725  10.127  0.00  0.00    +0.000 A 
ATOM     19  C   LIG    1       -4.077   5.127   8.855  0.00  0.00    +0.000 A 
ATOM     20  C   LIG    1       -3.366   4.687   7.758  0.00  0.00    +0.040 A 
ENDBRANCH  10  15
ENDBRANCH   4   8
BRANCH   7  21
ATOM     21  C   LIG    1       -2.988   1.667   0.319  0.00  0.00    +0.120 A 
ATOM     22  C   LIG    1       -3.991   0.713   0.424  0.00  0.00    +0.060 A 
ATOM     23  C   LIG    1       -4.908   0.561  -0.598  0.00  0.00    +0.050 A 
ATOM     24  C   LIG    1       -4.828   1.359  -1.724  0.00  0.00    +0.090 A 
ATOM     25  C   LIG    1       -3.830   2.311  -1.832  0.00  0.00    -0.170 A 
ATOM     26  C   LIG    1       -2.914   2.470  -0.811  0.00  0.00    +0.080 A 
BRANCH  25  27
ATOM     27  C   LIG    1       -3.747   3.178  -3.061  0.00  0.00    +0.510 C 
ATOM     28  F   LIG    1       -2.512   2.981  -3.688  0.00  0.00    -0.170 F 
ATOM     29  F   LIG    1       -3.873   4.522  -2.693  0.00  0.00    -0.170 F 
ATOM     30  F   LIG    1       -4.778   2.837  -3.943  0.00  0.00    -0.170 F 
ENDBRANCH  25  27
ENDBRANCH   7  21
TORSDOF 4
