REMARK  Name = ZINCpk00000RoDr2.0
REMARK                            x       y       z     vdW  Elec       q    Type
REMARK                         _______ _______ _______ _____ _____    ______ ____
ROOT
ATOM      1  N   LIG    1        2.297   0.424   2.199  0.00  0.00    -1.100 NA
ATOM      2  H   LIG    1        1.981  -0.391   1.777  0.00  0.00    +0.420 HD
ENDROOT
BRANCH   1   3
ATOM      3  C   LIG    1        3.049   1.410   1.419  0.00  0.00    +0.230 C 
ATOM      4  C   LIG    1        4.529   1.018   1.390  0.00  0.00    +0.020 C 
ATOM      5  C   LIG    1        5.291   2.012   0.507  0.00  0.00    +0.000 C 
ATOM      6  C   LIG    1        4.666   2.025  -0.890  0.00  0.00    +0.210 C 
ATOM      7  O   LIG    1        3.282   2.366  -0.788  0.00  0.00    -0.370 OA
ATOM      8  C   LIG    1        2.510   1.446  -0.014  0.00  0.00    +0.240 C 
BRANCH   8   9
ATOM      9  C   LIG    1        1.069   1.888   0.002  0.00  0.00    -0.240 A 
ATOM     10  C   LIG    1       -0.013   1.076   0.008  0.00  0.00    +0.250 A 
ATOM     11  N   LIG    1       -1.113   1.857   0.017  0.00  0.00    -0.360 N 
ATOM     12  N   LIG    1       -0.694   3.193   0.025  0.00  0.00    -0.290 NA
ATOM     13  C   LIG    1       -2.502   1.389   0.021  0.00  0.00    +0.360 C 
ATOM     14  C   LIG    1        0.614   3.211   0.013  0.00  0.00    +0.250 A 
ENDBRANCH   8   9
ENDBRANCH   1   3
BRANCH   1  15
ATOM     15  S   LIG    1        1.986   0.699   3.802  0.00  0.00    +2.730 S 
ATOM     16  O   LIG    1        3.220   1.086   4.390  0.00  0.00    -0.950 OA
ATOM     17  O   LIG    1        1.221  -0.408   4.259  0.00  0.00    -0.950 OA
BRANCH  15  21
ATOM     18  N   LIG    1        0.190   4.152   4.035  0.00  0.00    -0.440 N 
ATOM     19  C   LIG    1       -0.862   3.308   3.963  0.00  0.00    +0.400 A 
ATOM     20  N   LIG    1       -0.413   2.086   3.878  0.00  0.00    -0.410 NA
ATOM     21  C   LIG    1        0.928   2.106   3.894  0.00  0.00    -0.560 A 
ATOM     22  C   LIG    1        1.325   3.389   3.998  0.00  0.00    +0.260 A 
BRANCH  18  23
ATOM     23  C   LIG    1        0.127   5.612   4.141  0.00  0.00    +0.300 C 
BRANCH  23  25
ATOM     24  C   LIG    1        1.407   5.618   6.287  0.00  0.00    +0.020 C 
ATOM     25  C   LIG    1        0.090   6.016   5.616  0.00  0.00    -0.030 C 
ATOM     26  C   LIG    1       -0.100   7.530   5.726  0.00  0.00    +0.040 C 
ENDBRANCH  23  25
ENDBRANCH  18  23
ENDBRANCH  15  21
ENDBRANCH   1  15
TORSDOF 6
