REMARK  Name = ZINCtV00000L6ksW.0
REMARK                            x       y       z     vdW  Elec       q    Type
REMARK                         _______ _______ _______ _____ _____    ______ ____
ROOT
ATOM      1  P   LIG    1       -1.466  -0.677   1.942  0.00  0.00    +2.680 P 
ATOM      2  N   LIG    1       -2.718  -1.287   1.254  0.00  0.00    -1.240 NA
ENDROOT
BRANCH   1   3
ATOM      3  N   LIG    1       -0.380  -1.905   2.322  0.00  0.00    -0.920 NA
ATOM      4  C   LIG    1        0.703  -1.403   3.197  0.00  0.00    +0.170 C 
ATOM      5  C   LIG    1        1.837  -2.382   3.343  0.00  0.00    +0.050 C 
ATOM      6  C   LIG    1        2.912  -2.047   2.288  0.00  0.00    +0.000 C 
ATOM      7  C   LIG    1        2.554  -2.536   0.961  0.00  0.00    +0.010 C 
ATOM      8  C   LIG    1        1.245  -1.905   0.441  0.00  0.00    +0.000 C 
ATOM      9  C   LIG    1        0.085  -2.599   1.101  0.00  0.00    +0.240 C 
ENDBRANCH   1   3
BRANCH   1  10
ATOM     10  N   LIG    1       -0.730   0.419   0.898  0.00  0.00    -0.930 NA
ATOM     11  C   LIG    1       -1.731   1.341   0.310  0.00  0.00    +0.260 C 
ATOM     12  C   LIG    1       -2.020   2.524   1.193  0.00  0.00    +0.000 C 
ATOM     13  C   LIG    1       -1.103   3.691   0.772  0.00  0.00    +0.020 C 
ATOM     14  C   LIG    1        0.253   3.540   1.289  0.00  0.00    +0.000 C 
ATOM     15  C   LIG    1        0.937   2.259   0.766  0.00  0.00    +0.050 C 
ATOM     16  C   LIG    1        0.418   1.086   1.552  0.00  0.00    +0.170 C 
ENDBRANCH   1  10
BRANCH   1  18
ATOM     17  C   LIG    1       -3.214   1.029   3.190  0.00  0.00    +0.060 C 
ATOM     18  C   LIG    1       -1.970   0.183   3.469  0.00  0.00    -0.700 C 
ATOM     19  C   LIG    1       -0.832   1.089   3.943  0.00  0.00    +0.050 C 
ATOM     20  C   LIG    1       -2.287  -0.848   4.554  0.00  0.00    +0.090 C 
ENDBRANCH   1  18
BRANCH   2  21
ATOM     21  C   LIG    1       -3.404  -2.248   1.857  0.00  0.00    +0.720 C 
ATOM     22  N   LIG    1       -4.427  -2.849   1.218  0.00  0.00    -0.670 N 
ATOM     23  H   LIG    1       -4.620  -2.625   0.294  0.00  0.00    +0.410 HD
ATOM     24  O   LIG    1       -3.108  -2.590   2.991  0.00  0.00    -0.640 OA
BRANCH  22  25
ATOM     25  C   LIG    1       -5.201  -3.782   1.879  0.00  0.00    +0.170 A 
ATOM     26  C   LIG    1       -4.611  -4.668   2.788  0.00  0.00    +0.020 A 
ATOM     27  C   LIG    1       -5.389  -5.594   3.446  0.00  0.00    +0.020 A 
ATOM     28  C   LIG    1       -6.754  -5.656   3.203  0.00  0.00    -0.030 A 
ATOM     29  C   LIG    1       -7.345  -4.784   2.299  0.00  0.00    +0.020 A 
ATOM     30  C   LIG    1       -6.579  -3.851   1.638  0.00  0.00    -0.040 A 
ENDBRANCH  22  25
ENDBRANCH   2  21
TORSDOF 5
