REMARK  Name = ZINCrD000000CfAr.1
REMARK                            x       y       z     vdW  Elec       q    Type
REMARK                         _______ _______ _______ _____ _____    ______ ____
ROOT
ATOM      1  C   LIG    1        5.032   3.785  -0.025  0.00  0.00    -0.290 A 
ATOM      2  C   LIG    1        3.689   3.464  -0.014  0.00  0.00    +0.310 A 
ATOM      3  N   LIG    1        3.585   2.124  -0.020  0.00  0.00    -0.290 N 
ATOM      4  N   LIG    1        4.861   1.553  -0.029  0.00  0.00    -0.260 NA
ATOM      5  C   LIG    1        5.762   2.512  -0.038  0.00  0.00    +0.230 A 
ENDROOT
BRANCH   3   6
ATOM      6  C   LIG    1        2.381   1.409  -0.013  0.00  0.00    +0.140 A 
ATOM      7  C   LIG    1        1.169   2.087   0.002  0.00  0.00    +0.000 A 
ATOM      8  C   LIG    1       -0.017   1.379   0.010  0.00  0.00    +0.050 A 
ATOM      9  C   LIG    1        0.002  -0.004   0.002  0.00  0.00    +0.010 A 
ATOM     10  C   LIG    1        1.207  -0.682  -0.013  0.00  0.00    +0.050 A 
ATOM     11  C   LIG    1        2.396   0.020  -0.021  0.00  0.00    +0.030 A 
ENDBRANCH   3   6
BRANCH   5  12
ATOM     12  C   LIG    1        7.228   2.340  -0.053  0.00  0.00    -0.160 A 
ATOM     13  C   LIG    1        7.902   1.350   0.567  0.00  0.00    +0.050 A 
ATOM     14  C   LIG    1        9.272   1.398   0.409  0.00  0.00    -0.010 A 
ATOM     15  C   LIG    1        9.720   2.416  -0.332  0.00  0.00    -0.050 A 
ATOM     16  S   LIG    1        8.366   3.390  -0.888  0.00  0.00    +0.230 S 
ENDBRANCH   5  12
BRANCH   1  18
ATOM     17  O   LIG    1        6.823   5.277  -0.032  0.00  0.00    -0.470 OA
ATOM     18  C   LIG    1        5.615   5.136  -0.022  0.00  0.00    +0.610 C 
ATOM     19  N   LIG    1        4.811   6.218  -0.009  0.00  0.00    -0.600 N 
ATOM     20  H   LIG    1        3.847   6.106  -0.001  0.00  0.00    +0.430 HD
BRANCH  19  21
ATOM     21  C   LIG    1        5.361   7.492  -0.006  0.00  0.00    +0.330 A 
ATOM     22  N   LIG    1        4.722   8.619   0.001  0.00  0.00    -0.300 NA
ATOM     23  N   LIG    1        5.443   9.804   0.006  0.00  0.00    -0.330 N 
ATOM     24  C   LIG    1        5.244  11.167   0.015  0.00  0.00    +0.440 A 
ATOM     25  N   LIG    1        6.415  11.740   0.007  0.00  0.00    -0.260 NA
ATOM     26  N   LIG    1        7.342  10.847  -0.006  0.00  0.00    -0.230 NA
ATOM     27  C   LIG    1        6.797   9.657  -0.007  0.00  0.00    +0.050 A 
ATOM     28  S   LIG    1        7.083   7.912  -0.020  0.00  0.00    +0.280 S 
ENDBRANCH  19  21
ENDBRANCH   1  18
TORSDOF 4
