REMARK  Name = ZINCb70000003Zjc.0
REMARK                            x       y       z     vdW  Elec       q    Type
REMARK                         _______ _______ _______ _____ _____    ______ ____
ROOT
ATOM      1  C   LIG    1        1.314   0.753   0.006  0.00  0.00    +0.030 C 
ATOM      2  C   LIG    1       -0.150   1.185   0.115  0.00  0.00    +0.100 C 
ATOM      3  C   LIG    1        0.205  -0.301   0.025  0.00  0.00    +0.150 C 
ENDROOT
BRANCH   1   4
ATOM      4  N   LIG    1        1.997   0.992  -1.268  0.00  0.00    -0.280 N 
ATOM      5  C   LIG    1        2.425   2.192  -1.725  0.00  0.00    +0.110 A 
ATOM      6  C   LIG    1        2.997   1.954  -2.929  0.00  0.00    +0.180 A 
ATOM      7  N   LIG    1        2.884   0.640  -3.150  0.00  0.00    -0.250 NA
ATOM      8  N   LIG    1        2.287   0.098  -2.147  0.00  0.00    -0.060 NA
ENDBRANCH   1   4
BRANCH   1  10
ATOM      9  C   LIG    1        3.562   0.277   0.986  0.00  0.00    +0.100 C 
ATOM     10  C   LIG    1        2.184   0.885   1.257  0.00  0.00    +0.240 C 
BRANCH  10  11
ATOM     11  N   LIG    1        2.335   2.306   1.600  0.00  0.00    -0.640 N 
ATOM     12  H   LIG    1        2.773   2.793   0.833  0.00  0.00    +0.430 HD
ATOM     13  H   LIG    1        2.909   2.393   2.425  0.00  0.00    +0.440 HD
ATOM     14  H   LIG    1        1.427   2.707   1.779  0.00  0.00    +0.440 HD
ENDBRANCH  10  11
ENDBRANCH   1  10
TORSDOF 3
