REMARK  Name = ZINCqH0000038pJ8.0
REMARK                            x       y       z     vdW  Elec       q    Type
REMARK                         _______ _______ _______ _____ _____    ______ ____
ROOT
ATOM      1  C   LIG    1       -7.055   7.017   1.606  0.00  0.00    -0.090 C 
ENDROOT
BRANCH   1   5
ATOM      2  C   LIG    1       -8.267   8.096   4.813  0.00  0.00    +0.220 A 
ATOM      3  N   LIG    1       -8.705   6.867   4.736  0.00  0.00    -0.370 NA
ATOM      4  O   LIG    1       -8.363   6.368   3.684  0.00  0.00    +0.080 OA
ATOM      5  C   LIG    1       -7.657   7.249   2.968  0.00  0.00    +0.200 A 
ATOM      6  N   LIG    1       -7.583   8.349   3.675  0.00  0.00    -0.460 NA
BRANCH   2  13
ATOM      7  C   LIG    1       -9.778   7.243   7.128  0.00  0.00    +0.110 C 
ATOM      8  C   LIG    1       -9.203   8.634   7.062  0.00  0.00    -0.050 A 
ATOM      9  C   LIG    1       -9.394   9.513   8.109  0.00  0.00    +0.000 A 
ATOM     10  C   LIG    1       -8.867  10.790   8.049  0.00  0.00    +0.040 A 
ATOM     11  C   LIG    1       -8.146  11.195   6.940  0.00  0.00    +0.000 A 
ATOM     12  C   LIG    1       -7.943  10.322   5.889  0.00  0.00    +0.060 A 
ATOM     13  C   LIG    1       -8.476   9.037   5.942  0.00  0.00    -0.040 A 
ENDBRANCH   2  13
ENDBRANCH   1   5
BRANCH   1  14
ATOM     14  S   LIG    1       -5.372   6.365   1.792  0.00  0.00    +1.290 S 
ATOM     15  O   LIG    1       -4.556   7.335   2.435  0.00  0.00    -0.800 OA
BRANCH  14  16
ATOM     16  C   LIG    1       -4.824   6.154   0.076  0.00  0.00    -0.120 C 
BRANCH  16  17
ATOM     17  C   LIG    1       -3.419   5.610   0.061  0.00  0.00    +0.030 A 
ATOM     18  N   LIG    1       -2.315   6.303   0.054  0.00  0.00    -0.340 NA
ATOM     19  O   LIG    1       -1.335   5.595   0.048  0.00  0.00    +0.130 OA
ATOM     20  C   LIG    1       -1.671   4.291   0.039  0.00  0.00    +0.050 A 
ATOM     21  C   LIG    1       -3.043   4.253   0.051  0.00  0.00    -0.010 A 
BRANCH  20  22
ATOM     22  C   LIG    1       -0.755   3.142   0.025  0.00  0.00    +0.030 A 
ATOM     23  C   LIG    1        0.607   3.204   0.013  0.00  0.00    +0.010 A 
ATOM     24  C   LIG    1        1.073   1.877   0.002  0.00  0.00    -0.050 A 
ATOM     25  C   LIG    1       -0.013   1.076   0.008  0.00  0.00    +0.210 A 
ATOM     26  O   LIG    1       -1.114   1.843   0.017  0.00  0.00    -0.160 OA
ENDBRANCH  20  22
ENDBRANCH  16  17
ENDBRANCH  14  16
ENDBRANCH   1  14
TORSDOF 6
