REMARK  Name = ZINCpk00000kLksb.0
REMARK                            x       y       z     vdW  Elec       q    Type
REMARK                         _______ _______ _______ _____ _____    ______ ____
ROOT
ATOM      1  C   LIG    1        4.341   5.677  -0.628  0.00  0.00    +0.560 C 
ATOM      2  N   LIG    1        3.557   4.756  -0.033  0.00  0.00    -0.720 N 
ATOM      3  H   LIG    1        3.646   4.584   0.917  0.00  0.00    +0.400 HD
ATOM      4  O   LIG    1        4.229   5.893  -1.819  0.00  0.00    -0.510 OA
ENDROOT
BRANCH   1  11
ATOM      5  C   LIG    1        8.636   8.669   3.615  0.00  0.00    +0.160 C 
ATOM      6  C   LIG    1        8.167   8.606   2.184  0.00  0.00    -0.060 A 
ATOM      7  C   LIG    1        8.638   9.344   1.151  0.00  0.00    +0.230 A 
ATOM      8  N   LIG    1        7.974   9.003   0.048  0.00  0.00    -0.470 NA
ATOM      9  C   LIG    1        7.087   8.064   0.347  0.00  0.00    +0.200 A 
ATOM     10  C   LIG    1        6.151   7.365  -0.437  0.00  0.00    +0.180 A 
ATOM     11  C   LIG    1        5.337   6.423   0.167  0.00  0.00    -0.130 A 
ATOM     12  C   LIG    1        5.475   6.176   1.556  0.00  0.00    +0.030 A 
ATOM     13  C   LIG    1        6.385   6.858   2.276  0.00  0.00    +0.220 A 
ATOM     14  N   LIG    1        7.188   7.795   1.688  0.00  0.00    -0.350 N 
ENDBRANCH   1  11
BRANCH   2  15
ATOM     15  C   LIG    1        2.568   4.017  -0.822  0.00  0.00    +0.260 C 
ATOM     16  C   LIG    1        1.425   3.530   0.087  0.00  0.00    +0.050 C 
ATOM     17  C   LIG    1        1.418   1.990  -0.001  0.00  0.00    -0.020 C 
ATOM     18  C   LIG    1        2.099   1.681  -1.357  0.00  0.00    +0.010 C 
ATOM     19  C   LIG    1        3.215   2.755  -1.430  0.00  0.00    +0.150 C 
BRANCH  19  20
ATOM     20  O   LIG    1        3.593   2.992  -2.788  0.00  0.00    -0.550 OA
ATOM     21  H   LIG    1        4.005   2.231  -3.220  0.00  0.00    +0.380 HD
ENDBRANCH  19  20
BRANCH  17  22
ATOM     22  C   LIG    1       -0.018   1.461   0.010  0.00  0.00    +0.310 C 
BRANCH  22  23
ATOM     23  N   LIG    1        0.002  -0.004   0.002  0.00  0.00    -0.460 N 
ATOM     24  C   LIG    1       -0.003  -0.810  -1.104  0.00  0.00    +0.120 A 
ATOM     25  C   LIG    1        0.024  -2.081  -0.660  0.00  0.00    +0.140 A 
ATOM     26  N   LIG    1        0.036  -2.052   0.681  0.00  0.00    -0.490 NA
ATOM     27  C   LIG    1        0.023  -0.811   1.085  0.00  0.00    +0.380 A 
ENDBRANCH  22  23
ENDBRANCH  17  22
ENDBRANCH   2  15
TORSDOF 5
