REMARK  Name = ZINCtV00001bB3rG.0
REMARK                            x       y       z     vdW  Elec       q    Type
REMARK                         _______ _______ _______ _____ _____    ______ ____
ROOT
ATOM      1  C   LIG    1        1.169   3.570   0.010  0.00  0.00    +0.130 A 
ATOM      2  C   LIG    1        2.299   4.299   0.003  0.00  0.00    -0.110 A 
ATOM      3  S   LIG    1        1.854   6.004   0.015  0.00  0.00    +0.210 S 
ATOM      4  C   LIG    1        0.150   5.560   0.028  0.00  0.00    +0.280 A 
ATOM      5  N   LIG    1        0.042   4.268   0.018  0.00  0.00    -0.500 NA
ENDROOT
BRANCH   1   9
ATOM      6  C   LIG    1        1.208  -0.682  -0.013  0.00  0.00    -0.070 A 
ATOM      7  C   LIG    1        0.002  -0.004   0.002  0.00  0.00    +0.000 A 
ATOM      8  C   LIG    1       -0.017   1.376   0.010  0.00  0.00    +0.050 A 
ATOM      9  C   LIG    1        1.183   2.086   0.002  0.00  0.00    -0.030 A 
ATOM     10  C   LIG    1        2.394   1.398  -0.014  0.00  0.00    +0.020 A 
ATOM     11  C   LIG    1        2.401   0.018  -0.021  0.00  0.00    +0.000 A 
BRANCH   6  12
ATOM     12  C   LIG    1        1.222  -2.189  -0.020  0.00  0.00    +0.030 C 
ATOM     13  C   LIG    1        1.936  -2.686  -1.279  0.00  0.00    +0.030 C 
BRANCH  12  15
ATOM     14  C   LIG    1        1.866  -4.225   1.277  0.00  0.00    +0.000 C 
ATOM     15  C   LIG    1        1.959  -2.699   1.219  0.00  0.00    +0.000 C 
ENDBRANCH  12  15
ENDBRANCH   6  12
ENDBRANCH   1   9
BRANCH   4  16
ATOM     16  N   LIG    1       -0.911   6.454   0.042  0.00  0.00    -0.620 N 
ATOM     17  H   LIG    1       -1.823   6.124   0.049  0.00  0.00    +0.430 HD
ATOM     18  C   LIG    1       -0.675   7.781   0.046  0.00  0.00    +0.560 C 
ATOM     19  O   LIG    1        0.471   8.196   0.037  0.00  0.00    -0.510 OA
BRANCH  18  20
ATOM     20  C   LIG    1       -1.752   8.688   0.060  0.00  0.00    -0.050 C 
ATOM     21  C   LIG    1       -1.513  10.029   0.064  0.00  0.00    +0.180 C 
BRANCH  21  22
ATOM     22  C   LIG    1       -2.590  10.936   0.077  0.00  0.00    -0.010 A 
ATOM     23  C   LIG    1       -3.691  10.927  -0.763  0.00  0.00    +0.140 A 
ATOM     24  N   LIG    1       -4.472  11.945  -0.424  0.00  0.00    -0.440 NA
ATOM     25  C   LIG    1       -3.933  12.604   0.585  0.00  0.00    +0.170 A 
ATOM     26  S   LIG    1       -4.150  13.981   1.677  0.00  0.00    +0.200 S 
ATOM     27  C   LIG    1       -2.647  13.682   2.568  0.00  0.00    +0.030 A 
ATOM     28  C   LIG    1       -2.104  12.618   2.001  0.00  0.00    +0.220 A 
ATOM     29 CL   LIG    1       -3.996   9.785  -2.034  0.00  0.00    +0.030 Cl
ATOM     30  N   LIG    1       -2.760  12.024   0.951  0.00  0.00    -0.400 N 
ENDBRANCH  21  22
ENDBRANCH  18  20
ENDBRANCH   4  16
TORSDOF 6
