REMARK  Name = ZINCrD00000l1Hmm.0
REMARK                            x       y       z     vdW  Elec       q    Type
REMARK                         _______ _______ _______ _____ _____    ______ ____
ROOT
ATOM      1  C   LIG    1        1.335   0.934   5.266  0.00  0.00    +0.070 C 
ATOM      2  C   LIG    1        0.091   0.211   4.747  0.00  0.00    +0.190 C 
ENDROOT
BRANCH   2   3
ATOM      3  C   LIG    1       -0.894   0.034   5.873  0.00  0.00    +0.520 C 
ATOM      4  N   LIG    1       -0.545  -0.665   6.971  0.00  0.00    -0.660 N 
ATOM      5  H   LIG    1        0.317  -1.110   7.009  0.00  0.00    +0.420 HD
ATOM      6  O   LIG    1       -2.002   0.522   5.792  0.00  0.00    -0.490 OA
BRANCH   4   7
ATOM      7  C   LIG    1       -1.426  -0.751   8.057  0.00  0.00    +0.130 A 
ATOM      8  C   LIG    1       -2.796  -0.798   7.839  0.00  0.00    +0.090 A 
ATOM      9  C   LIG    1       -3.664  -0.882   8.911  0.00  0.00    +0.050 A 
ATOM     10  C   LIG    1       -3.170  -0.920  10.203  0.00  0.00    +0.090 A 
ATOM     11  C   LIG    1       -1.802  -0.874  10.426  0.00  0.00    +0.050 A 
ATOM     12  F   LIG    1       -1.322  -0.911  11.688  0.00  0.00    -0.110 F 
ATOM     13  F   LIG    1       -4.022  -1.003  11.248  0.00  0.00    -0.120 F 
ATOM     14  C   LIG    1       -0.929  -0.795   9.355  0.00  0.00    +0.070 A 
ATOM     15  F   LIG    1        0.404  -0.756   9.570  0.00  0.00    -0.120 F 
ENDBRANCH   4   7
ENDBRANCH   2   3
BRANCH   2  16
ATOM     16  O   LIG    1       -0.518   0.996   3.688  0.00  0.00    -0.320 OA
BRANCH  16  17
ATOM     17  C   LIG    1       -0.104   0.754   2.435  0.00  0.00    +0.460 C 
ATOM     18  O   LIG    1        0.740  -0.085   2.228  0.00  0.00    -0.500 OA
BRANCH  17  19
ATOM     19  C   LIG    1       -0.698   1.537   1.274  0.00  0.00    +0.050 C 
ATOM     20  C   LIG    1       -0.040   1.048  -0.005  0.00  0.00    +0.070 C 
ATOM     21  C   LIG    1       -0.739   1.538  -1.270  0.00  0.00    -0.030 C 
ATOM     22  C   LIG    1       -0.606   3.051  -1.421  0.00  0.00    +0.040 C 
ATOM     23  C   LIG    1       -1.353   3.831  -0.356  0.00  0.00    +0.010 C 
ATOM     24  C   LIG    1       -2.771   3.362  -0.096  0.00  0.00    +0.040 C 
ATOM     25  C   LIG    1       -2.899   1.848   0.041  0.00  0.00    -0.020 C 
ATOM     26  C   LIG    1       -2.216   1.206  -1.153  0.00  0.00    +0.370 C 
ATOM     27  O   LIG    1       -2.793   0.497  -1.938  0.00  0.00    -0.440 OA
ATOM     28  C   LIG    1       -2.206   1.349   1.305  0.00  0.00    +0.070 C 
ENDBRANCH  17  19
ENDBRANCH  16  17
ENDBRANCH   2  16
TORSDOF 5
