REMARK  Name = ZINCpe000000UpBO.0
REMARK                            x       y       z     vdW  Elec       q    Type
REMARK                         _______ _______ _______ _____ _____    ______ ____
ROOT
ATOM      1  C   LIG    1        2.364   8.250  -1.802  0.00  0.00    +0.240 C 
ATOM      2  C   LIG    1        1.613   9.093  -2.835  0.00  0.00    +0.040 C 
ATOM      3  C   LIG    1        1.663   8.391  -4.195  0.00  0.00    +0.010 C 
ATOM      4  C   LIG    1        1.057   6.991  -4.060  0.00  0.00    +0.020 C 
ATOM      5  C   LIG    1        1.824   6.209  -2.992  0.00  0.00    +0.160 C 
ATOM      6  N   LIG    1        1.745   6.921  -1.710  0.00  0.00    -0.510 NA
ENDROOT
BRANCH   1  12
ATOM      7  C   LIG    1        3.356   9.624   0.172  0.00  0.00    -0.290 A 
ATOM      8  C   LIG    1        2.874  10.089   1.380  0.00  0.00    +0.290 A 
ATOM      9  N   LIG    1        1.597   9.690   1.483  0.00  0.00    -0.460 N 
ATOM     10  H   LIG    1        1.006   9.869   2.231  0.00  0.00    +0.450 HD
ATOM     11  N   LIG    1        1.261   8.970   0.331  0.00  0.00    -0.260 NA
ATOM     12  C   LIG    1        2.300   8.928  -0.458  0.00  0.00    +0.130 A 
BRANCH   7  15
ATOM     13  C   LIG    1        6.665  11.222  -0.779  0.00  0.00    +0.290 C 
ATOM     14  N   LIG    1        5.355  10.990  -0.165  0.00  0.00    -0.620 N 
ATOM     15  C   LIG    1        4.716   9.820  -0.362  0.00  0.00    +0.590 C 
ATOM     16  O   LIG    1        5.261   8.926  -0.980  0.00  0.00    -0.540 OA
ATOM     17  C   LIG    1        4.740  12.030   0.664  0.00  0.00    +0.280 C 
ENDBRANCH   7  15
ENDBRANCH   1  12
BRANCH   6  18
ATOM     18  C   LIG    1        2.352   6.132  -0.630  0.00  0.00    +0.150 C 
BRANCH  18  19
ATOM     19  C   LIG    1        1.527   4.864  -0.400  0.00  0.00    +0.210 C 
BRANCH  19  20
ATOM     20  O   LIG    1        0.193   5.224  -0.035  0.00  0.00    -0.520 OA
ATOM     21  H   LIG    1        0.136   5.753   0.773  0.00  0.00    +0.370 HD
ENDBRANCH  19  20
BRANCH  19  22
ATOM     22  C   LIG    1        2.160   4.042   0.725  0.00  0.00    +0.290 C 
BRANCH  22  23
ATOM     23  N   LIG    1        1.441   2.773   0.866  0.00  0.00    -0.370 N 
ATOM     24  C   LIG    1        1.989   1.541   0.819  0.00  0.00    +0.210 A 
ATOM     25  C   LIG    1        0.994   0.640   0.991  0.00  0.00    -0.120 A 
ATOM     26  C   LIG    1       -0.204   1.346   1.141  0.00  0.00    +0.210 A 
ATOM     27  N   LIG    1        0.064   2.625   1.073  0.00  0.00    -0.270 NA
ENDBRANCH  22  23
ENDBRANCH  19  22
ENDBRANCH  18  19
ENDBRANCH   6  18
TORSDOF 7
