REMARK  Name = ZINCvU00000007NS.0
REMARK                            x       y       z     vdW  Elec       q    Type
REMARK                         _______ _______ _______ _____ _____    ______ ____
ROOT
ATOM      1  C   LIG    1       -3.432   2.417  -0.870  0.00  0.00    +0.570 A 
ATOM      2  N   LIG    1       -3.512   3.678  -0.490  0.00  0.00    -0.560 NA
ATOM      3  C   LIG    1       -2.474   4.272   0.113  0.00  0.00    +0.210 A 
ATOM      4  C   LIG    1       -2.525   5.611   0.528  0.00  0.00    +0.050 A 
ATOM      5  C   LIG    1       -1.440   6.169   1.136  0.00  0.00    +0.090 A 
ATOM      6  C   LIG    1       -0.279   5.430   1.353  0.00  0.00    -0.060 A 
ATOM      7  C   LIG    1       -0.196   4.125   0.961  0.00  0.00    +0.100 A 
ATOM      8 CL   LIG    1        1.080   6.179   2.131  0.00  0.00    -0.060 Cl
ATOM      9  C   LIG    1       -1.293   3.521   0.339  0.00  0.00    -0.190 A 
ATOM     10  C   LIG    1       -1.263   2.171  -0.096  0.00  0.00    +0.310 A 
ATOM     11  N   LIG    1       -2.344   1.676  -0.683  0.00  0.00    -0.540 NA
ENDROOT
BRANCH  10  12
ATOM     12  C   LIG    1       -0.058   1.336   0.106  0.00  0.00    -0.070 A 
ATOM     13  C   LIG    1        0.391   0.496  -0.914  0.00  0.00    +0.060 A 
ATOM     14  C   LIG    1        1.512  -0.285  -0.718  0.00  0.00    +0.010 A 
ATOM     15  C   LIG    1        2.190  -0.237   0.487  0.00  0.00    +0.030 A 
ATOM     16  C   LIG    1        1.750   0.594   1.502  0.00  0.00    +0.010 A 
ATOM     17  C   LIG    1        0.631   1.380   1.319  0.00  0.00    +0.040 A 
ENDBRANCH  10  12
BRANCH   1  18
ATOM     18  N   LIG    1       -4.528   1.840  -1.490  0.00  0.00    -0.620 N 
ATOM     19  H   LIG    1       -4.464   0.942  -1.851  0.00  0.00    +0.440 HD
BRANCH  18  25
ATOM     20  C   LIG    1       -6.535   2.395  -2.727  0.00  0.00    -0.180 A 
ATOM     21  C   LIG    1       -7.734   3.107  -2.816  0.00  0.00    +0.070 A 
ATOM     22  C   LIG    1       -8.101   3.963  -1.801  0.00  0.00    -0.020 A 
ATOM     23  C   LIG    1       -7.292   4.117  -0.687  0.00  0.00    +0.060 A 
ATOM     24  C   LIG    1       -6.108   3.416  -0.581  0.00  0.00    +0.010 A 
ATOM     25  C   LIG    1       -5.720   2.548  -1.594  0.00  0.00    +0.230 A 
BRANCH  20  28
ATOM     26  N   LIG    1       -6.965   1.258  -4.848  0.00  0.00    -0.720 N 
ATOM     27  H   LIG    1       -7.829   1.696  -4.879  0.00  0.00    +0.400 HD
ATOM     28  C   LIG    1       -6.132   1.482  -3.812  0.00  0.00    +0.560 C 
ATOM     29  O   LIG    1       -5.049   0.931  -3.773  0.00  0.00    -0.540 OA
BRANCH  26  30
ATOM     30  C   LIG    1       -6.564   0.351  -5.927  0.00  0.00    +0.290 C 
BRANCH  30  31
ATOM     31  C   LIG    1       -7.682   0.273  -6.969  0.00  0.00    +0.180 C 
BRANCH  31  33
ATOM     32  C   LIG    1       -8.868   1.587  -8.585  0.00  0.00    +0.200 C 
ATOM     33  O   LIG    1       -7.844   1.550  -7.590  0.00  0.00    -0.390 OA
ENDBRANCH  31  33
ENDBRANCH  30  31
ENDBRANCH  26  30
ENDBRANCH  20  28
ENDBRANCH  18  25
ENDBRANCH   1  18
TORSDOF 7
