REMARK  Name = ZINCkj000005gmul.0
REMARK                            x       y       z     vdW  Elec       q    Type
REMARK                         _______ _______ _______ _____ _____    ______ ____
ROOT
ATOM      1  N   LIG    1       -1.667  -0.005  -0.308  0.00  0.00    -0.710 N 
ATOM      2  H   LIG    1       -2.287   0.582  -0.768  0.00  0.00    +0.420 HD
ENDROOT
BRANCH   1   3
ATOM      3  C   LIG    1       -0.262   0.381  -0.163  0.00  0.00    +0.250 C 
ATOM      4  C   LIG    1       -0.141   1.906  -0.226  0.00  0.00    +0.060 C 
ATOM      5  C   LIG    1        1.336   2.299  -0.153  0.00  0.00    +0.270 C 
ATOM      6  N   LIG    1        2.061   1.703  -1.282  0.00  0.00    -0.380 N 
ATOM      7  C   LIG    1        2.010   0.239  -1.188  0.00  0.00    +0.250 C 
ATOM      8  H   LIG    1        1.635   1.998  -2.147  0.00  0.00    +0.430 HD
ATOM      9  C   LIG    1        0.559  -0.233  -1.301  0.00  0.00    +0.050 C 
BRANCH   6  10
ATOM     10  C   LIG    1        3.461   2.145  -1.250  0.00  0.00    +0.280 C 
BRANCH  10  11
ATOM     11  C   LIG    1        4.179   1.659  -2.511  0.00  0.00    +0.200 C 
BRANCH  11  12
ATOM     12  O   LIG    1        3.587   2.267  -3.660  0.00  0.00    -0.400 OA
ATOM     13  C   LIG    1        4.187   1.878  -4.898  0.00  0.00    +0.240 C 
ENDBRANCH  11  12
ENDBRANCH  10  11
ENDBRANCH   6  10
ENDBRANCH   1   3
BRANCH   1  16
ATOM     14  C   LIG    1       -1.726  -3.259   1.378  0.00  0.00    +0.400 A 
ATOM     15  C   LIG    1       -1.231  -2.063   0.875  0.00  0.00    -0.180 A 
ATOM     16  C   LIG    1       -2.112  -1.211   0.212  0.00  0.00    +0.460 A 
ATOM     17  N   LIG    1       -3.388  -1.569   0.090  0.00  0.00    -0.590 NA
ATOM     18  C   LIG    1       -3.817  -2.716   0.578  0.00  0.00    +0.600 A 
ATOM     19  N   LIG    1       -3.014  -3.547   1.211  0.00  0.00    -0.600 NA
BRANCH  14  20
ATOM     20  O   LIG    1       -0.908  -4.120   2.031  0.00  0.00    -0.300 OA
BRANCH  20  22
ATOM     21  C   LIG    1       -0.425  -6.167   3.221  0.00  0.00    +0.070 C 
ATOM     22  C   LIG    1       -1.494  -5.329   2.518  0.00  0.00    +0.200 C 
ENDBRANCH  20  22
ENDBRANCH  14  20
ENDBRANCH   1  16
TORSDOF 7
