REMARK  Name = ZINCrH00000No52m.0
REMARK                            x       y       z     vdW  Elec       q    Type
REMARK                         _______ _______ _______ _____ _____    ______ ____
ROOT
ATOM      1  C   LIG    1        1.736   1.795  -0.005  0.00  0.00    +0.360 A 
ATOM      2  N   LIG    1        2.210   0.597  -0.016  0.00  0.00    -0.480 NA
ATOM      3  C   LIG    1        1.335  -0.427  -0.013  0.00  0.00    +0.170 A 
ATOM      4  C   LIG    1        1.598  -1.813  -0.023  0.00  0.00    +0.060 A 
ATOM      5  C   LIG    1        0.565  -2.717  -0.018  0.00  0.00    +0.140 A 
ATOM      6  C   LIG    1       -0.752  -2.284  -0.003  0.00  0.00    -0.680 A 
ATOM      7  C   LIG    1       -1.033  -0.935   0.006  0.00  0.00    +0.200 A 
ATOM      8  C   LIG    1        0.002  -0.004   0.002  0.00  0.00    -0.210 A 
ATOM      9  S   LIG    1       -0.022   1.758   0.012  0.00  0.00    +0.080 S 
ENDROOT
BRANCH   1  12
ATOM     10  O   LIG    1        4.388   1.773  -0.030  0.00  0.00    -0.470 OA
ATOM     11  C   LIG    1        3.846   2.864  -0.020  0.00  0.00    +0.550 C 
ATOM     12  N   LIG    1        2.501   2.948  -0.006  0.00  0.00    -0.630 N 
ATOM     13  H   LIG    1        2.070   3.817   0.002  0.00  0.00    +0.430 HD
BRANCH  11  14
ATOM     14  C   LIG    1        4.630   4.043  -0.021  0.00  0.00    -0.110 C 
ATOM     15  C   LIG    1        5.980   3.958  -0.035  0.00  0.00    +0.190 C 
BRANCH  15  16
ATOM     16  C   LIG    1        6.791   5.180  -0.036  0.00  0.00    -0.110 A 
ATOM     17  C   LIG    1        6.261   6.435  -0.031  0.00  0.00    -0.050 A 
ATOM     18  S   LIG    1        7.493   7.613  -0.031  0.00  0.00    +0.190 S 
ATOM     19  C   LIG    1        8.759   6.398  -0.049  0.00  0.00    -0.060 A 
ATOM     20  C   LIG    1        8.237   5.178  -0.050  0.00  0.00    +0.040 A 
ENDBRANCH  15  16
ENDBRANCH  11  14
ENDBRANCH   1  12
BRANCH   6  21
ATOM     21  S   LIG    1       -2.066  -3.458   0.004  0.00  0.00    +2.710 S 
ATOM     22  O   LIG    1       -3.192  -2.796   0.563  0.00  0.00    -0.950 OA
ATOM     23  O   LIG    1       -1.527  -4.660   0.536  0.00  0.00    -0.940 OA
BRANCH  21  24
ATOM     24  N   LIG    1       -2.447  -3.776  -1.576  0.00  0.00    -1.010 NA
ATOM     25  C   LIG    1       -3.445  -3.054  -2.379  0.00  0.00    +0.270 C 
ATOM     26  C   LIG    1       -3.474  -3.712  -3.775  0.00  0.00    +0.030 C 
ATOM     27  C   LIG    1       -2.906  -5.130  -3.499  0.00  0.00    +0.040 C 
ATOM     28  C   LIG    1       -1.847  -4.835  -2.409  0.00  0.00    +0.270 C 
ENDBRANCH  21  24
ENDBRANCH   6  21
TORSDOF 5
