REMARK  Name = ZINCrg000000sAf7.0
REMARK                            x       y       z     vdW  Elec       q    Type
REMARK                         _______ _______ _______ _____ _____    ______ ____
ROOT
ATOM      1  C   LIG    1        0.530   1.481   0.472  0.00  0.00    +0.360 C 
ATOM      2  N   LIG    1        0.476   0.019   0.396  0.00  0.00    -0.560 N 
ATOM      3  C   LIG    1        0.515  -0.585  -0.813  0.00  0.00    +0.570 A 
ATOM      4  C   LIG    1        0.464  -2.058  -0.858  0.00  0.00    -0.220 A 
ATOM      5  C   LIG    1        0.503  -2.758  -2.060  0.00  0.00    +0.200 A 
ATOM      6  C   LIG    1        0.445  -4.143  -2.009  0.00  0.00    +0.020 A 
ATOM      7  C   LIG    1        0.350  -4.776  -0.772  0.00  0.00    +0.160 A 
ATOM      8  N   LIG    1        0.315  -4.082   0.358  0.00  0.00    -0.480 NA
ATOM      9  C   LIG    1        0.367  -2.763   0.358  0.00  0.00    +0.400 A 
ATOM     10  N   LIG    1        0.330  -2.041   1.539  0.00  0.00    -0.530 N 
ATOM     11  C   LIG    1        0.230  -2.748   2.818  0.00  0.00    +0.350 C 
ATOM     12  O   LIG    1        0.594   0.069  -1.835  0.00  0.00    -0.480 OA
ATOM     13  C   LIG    1        0.384  -0.698   1.526  0.00  0.00    +0.710 A 
ATOM     14  O   LIG    1        0.348  -0.106   2.587  0.00  0.00    -0.530 OA
ENDROOT
BRANCH   7  15
ATOM     15  C   LIG    1        0.288  -6.258  -0.717  0.00  0.00    +0.600 C 
ATOM     16  N   LIG    1        0.197  -6.885   0.473  0.00  0.00    -0.620 N 
ATOM     17  C   LIG    1        0.229  -6.482   1.887  0.00  0.00    +0.290 C 
ATOM     18  C   LIG    1        0.758  -7.881   2.219  0.00  0.00    +0.040 C 
ATOM     19  C   LIG    1        0.027  -8.273   0.928  0.00  0.00    +0.240 C 
ATOM     20  O   LIG    1        0.320  -6.906  -1.744  0.00  0.00    -0.520 OA
BRANCH  19  21
ATOM     21  C   LIG    1        0.791  -9.290   0.078  0.00  0.00    +0.080 C 
BRANCH  21  22
ATOM     22  C   LIG    1        0.467 -10.684   0.551  0.00  0.00    -0.080 A 
ATOM     23  C   LIG    1        1.176 -11.241   1.599  0.00  0.00    +0.010 A 
ATOM     24  C   LIG    1        0.876 -12.518   2.035  0.00  0.00    +0.000 A 
ATOM     25  C   LIG    1       -0.127 -13.241   1.417  0.00  0.00    +0.000 A 
ATOM     26  C   LIG    1       -0.832 -12.686   0.366  0.00  0.00    +0.000 A 
ATOM     27  C   LIG    1       -0.535 -11.408  -0.068  0.00  0.00    +0.010 A 
ENDBRANCH  21  22
ENDBRANCH  19  21
ENDBRANCH   7  15
TORSDOF 3
