REMARK  Name = ZINCrD00000F5LGy.0
REMARK                            x       y       z     vdW  Elec       q    Type
REMARK                         _______ _______ _______ _____ _____    ______ ____
ROOT
ATOM      1  C   LIG    1        3.359   5.988  -1.328  0.00  0.00    +0.070 C 
ENDROOT
BRANCH   1   8
ATOM      2  C   LIG    1        6.415  10.255  -4.567  0.00  0.00    +0.550 C 
ATOM      3  N   LIG    1        5.858   9.551  -3.562  0.00  0.00    -0.610 N 
ATOM      4  C   LIG    1        5.944   8.084  -3.538  0.00  0.00    +0.270 C 
ATOM      5  C   LIG    1        4.530   7.511  -3.433  0.00  0.00    +0.270 C 
ATOM      6  N   LIG    1        3.820   8.196  -2.344  0.00  0.00    -0.620 N 
ATOM      7  C   LIG    1        3.733   9.663  -2.367  0.00  0.00    +0.280 C 
ATOM      8  C   LIG    1        3.263   7.492  -1.339  0.00  0.00    +0.520 C 
ATOM      9  O   LIG    1        2.683   8.069  -0.443  0.00  0.00    -0.530 OA
ATOM     10  C   LIG    1        5.152  10.236  -2.470  0.00  0.00    +0.210 C 
ATOM     11  C   LIG    1        5.080  11.735  -2.766  0.00  0.00    +0.060 C 
ATOM     12  O   LIG    1        6.428  11.470  -4.524  0.00  0.00    -0.530 OA
BRANCH   2  14
ATOM     13  C   LIG    1        7.647  10.241  -6.657  0.00  0.00    +0.150 C 
ATOM     14  C   LIG    1        7.008   9.553  -5.716  0.00  0.00    -0.100 C 
ENDBRANCH   2  14
ENDBRANCH   1   8
BRANCH   1  15
ATOM     15  C   LIG    1        2.650   5.440  -0.088  0.00  0.00    +0.050 C 
ATOM     16  C   LIG    1        3.390   5.902   1.169  0.00  0.00    +0.040 C 
BRANCH  15  17
ATOM     17  C   LIG    1        2.639   3.934  -0.140  0.00  0.00    -0.040 A 
ATOM     18  C   LIG    1        3.832   3.236  -0.179  0.00  0.00    +0.000 A 
ATOM     19  C   LIG    1        3.826   1.854  -0.227  0.00  0.00    +0.060 A 
ATOM     20  C   LIG    1        2.627   1.167  -0.235  0.00  0.00    -0.060 A 
ATOM     21  C   LIG    1        1.429   1.866  -0.196  0.00  0.00    +0.110 A 
ATOM     22  C   LIG    1        1.438   3.252  -0.154  0.00  0.00    +0.020 A 
BRANCH  21  23
ATOM     23  O   LIG    1        0.248   1.193  -0.204  0.00  0.00    -0.310 OA
BRANCH  23  24
ATOM     24  C   LIG    1        0.315  -0.234  -0.254  0.00  0.00    +0.600 C 
ATOM     25  F   LIG    1        0.981  -0.629  -1.419  0.00  0.00    -0.160 F 
ATOM     26  F   LIG    1       -0.981  -0.762  -0.256  0.00  0.00    -0.130 F 
ATOM     27  F   LIG    1        1.010  -0.708   0.864  0.00  0.00    -0.160 F 
ENDBRANCH  23  24
ENDBRANCH  21  23
ENDBRANCH  15  17
ENDBRANCH   1  15
TORSDOF 6
