REMARK  Name = ZINCtV000002yQOJ.0
REMARK                            x       y       z     vdW  Elec       q    Type
REMARK                         _______ _______ _______ _____ _____    ______ ____
ROOT
ATOM      1  C   LIG    1        4.497   1.088  -0.694  0.00  0.00    -0.000 A 
ATOM      2  C   LIG    1        3.785   0.205  -1.442  0.00  0.00    -0.080 A 
ATOM      3  C   LIG    1        2.381   0.418  -1.092  0.00  0.00    -0.130 A 
ATOM      4  C   LIG    1        1.177  -0.160  -1.502  0.00  0.00    +0.070 A 
ATOM      5  C   LIG    1       -0.002   0.278  -0.967  0.00  0.00    +0.010 A 
ATOM      6  C   LIG    1       -0.009   1.292  -0.018  0.00  0.00    +0.060 A 
ATOM      7  C   LIG    1        1.168   1.875   0.400  0.00  0.00    +0.030 A 
ATOM      8  C   LIG    1        2.379   1.446  -0.131  0.00  0.00    +0.070 A 
ATOM      9  O   LIG    1        3.658   1.814   0.075  0.00  0.00    -0.180 OA
ENDROOT
BRANCH   1  12
ATOM     10  N   LIG    1        6.560   2.143   0.071  0.00  0.00    -0.660 N 
ATOM     11  H   LIG    1        6.025   2.742   0.614  0.00  0.00    +0.410 HD
ATOM     12  C   LIG    1        5.959   1.230  -0.717  0.00  0.00    +0.600 C 
ATOM     13  O   LIG    1        6.627   0.523  -1.448  0.00  0.00    -0.480 OA
BRANCH  10  20
ATOM     14  C   LIG    1        8.585   3.447  -0.102  0.00  0.00    -0.080 A 
ATOM     15  C   LIG    1        9.963   3.527  -0.067  0.00  0.00    +0.020 A 
ATOM     16  C   LIG    1       10.717   2.392   0.173  0.00  0.00    +0.020 A 
ATOM     17  C   LIG    1       10.093   1.175   0.380  0.00  0.00    +0.020 A 
ATOM     18  C   LIG    1        8.715   1.090   0.352  0.00  0.00    -0.070 A 
ATOM     19  C   LIG    1        8.036  -0.235   0.583  0.00  0.00    +0.100 C 
ATOM     20  C   LIG    1        7.955   2.226   0.105  0.00  0.00    +0.130 A 
BRANCH  14  22
ATOM     21  C   LIG    1        7.330   5.300   0.967  0.00  0.00    +0.020 C 
ATOM     22  C   LIG    1        7.765   4.684  -0.365  0.00  0.00    +0.060 C 
ENDBRANCH  14  22
ENDBRANCH  10  20
ENDBRANCH   1  12
BRANCH   2  23
ATOM     23  C   LIG    1        4.331  -0.792  -2.431  0.00  0.00    +0.290 C 
BRANCH  23  24
ATOM     24  O   LIG    1        4.398  -0.190  -3.725  0.00  0.00    -0.300 OA
BRANCH  24  25
ATOM     25  C   LIG    1        4.873  -0.960  -4.740  0.00  0.00    +0.140 A 
ATOM     26  C   LIG    1        5.271  -2.266  -4.493  0.00  0.00    -0.080 A 
ATOM     27  C   LIG    1        5.748  -3.049  -5.527  0.00  0.00    +0.040 A 
ATOM     28  C   LIG    1        5.839  -2.528  -6.804  0.00  0.00    -0.040 A 
ATOM     29  C   LIG    1        5.448  -1.225  -7.052  0.00  0.00    +0.050 A 
ATOM     30  C   LIG    1        4.965  -0.440  -6.022  0.00  0.00    -0.020 A 
ENDBRANCH  24  25
ENDBRANCH  23  24
ENDBRANCH   2  23
TORSDOF 6
