REMARK  Name = ZINCpe000000YBAk.0
REMARK                            x       y       z     vdW  Elec       q    Type
REMARK                         _______ _______ _______ _____ _____    ______ ____
ROOT
ATOM      1  C   LIG    1        1.393   3.829  -0.556  0.00  0.00    +0.250 A 
ATOM      2  C   LIG    1        0.875   4.453  -1.684  0.00  0.00    -0.030 A 
ATOM      3  C   LIG    1        1.094   5.802  -1.887  0.00  0.00    +0.180 A 
ATOM      4  C   LIG    1        1.837   6.528  -0.974  0.00  0.00    -0.080 A 
ATOM      5  C   LIG    1        2.359   5.908   0.147  0.00  0.00    +0.240 A 
ATOM      6  C   LIG    1        2.139   4.561   0.358  0.00  0.00    -0.670 A 
ENDROOT
BRANCH   1  11
ATOM      7  C   LIG    1       -0.079   2.022  -1.019  0.00  0.00    +0.130 C 
ATOM      8  C   LIG    1        0.084   0.494  -1.168  0.00  0.00    +0.060 C 
ATOM      9  C   LIG    1        1.606   0.248  -1.140  0.00  0.00    +0.050 C 
ATOM     10  C   LIG    1        2.236   1.648  -0.976  0.00  0.00    +0.220 C 
ATOM     11  N   LIG    1        1.169   2.466  -0.346  0.00  0.00    -0.470 N 
BRANCH   7  15
ATOM     12  N   LIG    1       -2.519   2.074  -0.620  0.00  0.00    -0.850 N 
ATOM     13  H   LIG    1       -3.292   2.280  -0.071  0.00  0.00    +0.410 HD
ATOM     14  H   LIG    1       -2.639   1.675  -1.496  0.00  0.00    +0.400 HD
ATOM     15  C   LIG    1       -1.279   2.342  -0.166  0.00  0.00    +0.520 C 
ATOM     16  O   LIG    1       -1.129   2.841   0.929  0.00  0.00    -0.500 OA
ENDBRANCH   7  15
ENDBRANCH   1  11
BRANCH   4  17
ATOM     17  N   LIG    1        2.075   7.972  -1.198  0.00  0.00    +0.030 N 
ATOM     18  O   LIG    1        1.616   8.519  -2.184  0.00  0.00    -0.160 OA
ATOM     19  O   LIG    1        2.729   8.612  -0.395  0.00  0.00    -0.150 OA
ENDBRANCH   4  17
BRANCH   6  20
ATOM     20  S   LIG    1        2.804   3.773   1.787  0.00  0.00    +2.720 S 
ATOM     21  O   LIG    1        3.477   4.783   2.526  0.00  0.00    -0.950 OA
ATOM     22  O   LIG    1        3.443   2.589   1.330  0.00  0.00    -0.940 OA
BRANCH  20  23
ATOM     23  N   LIG    1        1.525   3.285   2.718  0.00  0.00    -0.990 NA
ATOM     24  C   LIG    1        0.766   4.136   3.645  0.00  0.00    +0.250 C 
ATOM     25  C   LIG    1       -0.310   3.249   4.306  0.00  0.00    +0.040 C 
ATOM     26  C   LIG    1        0.272   1.820   4.142  0.00  0.00    +0.020 C 
ATOM     27  C   LIG    1        0.963   1.923   2.759  0.00  0.00    +0.290 C 
ENDBRANCH  20  23
ENDBRANCH   6  20
TORSDOF 5
