REMARK  Name = ZINCtV000002IJwg.0
REMARK                            x       y       z     vdW  Elec       q    Type
REMARK                         _______ _______ _______ _____ _____    ______ ____
ROOT
ATOM      1  C   LIG    1        1.940   0.674   0.331  0.00  0.00    +0.110 C 
ATOM      2  C   LIG    1        0.730   1.515   0.017  0.00  0.00    -0.100 A 
ATOM      3  C   LIG    1       -0.533   0.961   0.087  0.00  0.00    +0.050 A 
ATOM      4  C   LIG    1       -1.650   1.724  -0.204  0.00  0.00    +0.010 A 
ATOM      5  C   LIG    1       -1.514   3.051  -0.556  0.00  0.00    +0.040 A 
ATOM      6  C   LIG    1       -0.245   3.625  -0.630  0.00  0.00    -0.030 A 
ATOM      7  C   LIG    1        0.885   2.848  -0.340  0.00  0.00    +0.190 A 
ENDROOT
BRANCH   6   8
ATOM      8  C   LIG    1       -0.092   5.044  -1.012  0.00  0.00    +0.370 A 
ATOM      9  N   LIG    1        0.770   5.500  -1.888  0.00  0.00    -0.500 NA
ATOM     10  C   LIG    1        0.640   6.845  -1.997  0.00  0.00    +0.050 A 
ATOM     11  C   LIG    1        1.292   7.814  -2.767  0.00  0.00    +0.100 A 
ATOM     12  C   LIG    1        0.932   9.127  -2.658  0.00  0.00    -0.020 A 
ATOM     13  C   LIG    1       -0.079   9.514  -1.787  0.00  0.00    +0.110 A 
ATOM     14  C   LIG    1       -0.737   8.575  -1.017  0.00  0.00    -0.020 A 
ATOM     15  F   LIG    1       -0.421  10.818  -1.693  0.00  0.00    -0.140 F 
ATOM     16  C   LIG    1       -0.384   7.237  -1.115  0.00  0.00    +0.090 A 
ATOM     17  N   LIG    1       -0.833   6.080  -0.508  0.00  0.00    -0.460 N 
BRANCH  17  18
ATOM     18  C   LIG    1       -1.901   5.979   0.489  0.00  0.00    +0.230 C 
ATOM     19  C   LIG    1       -3.224   6.434  -0.132  0.00  0.00    +0.040 C 
ATOM     20  C   LIG    1       -1.566   6.872   1.686  0.00  0.00    +0.050 C 
ENDBRANCH  17  18
ENDBRANCH   6   8
BRANCH   7  21
ATOM     21  N   LIG    1        2.159   3.410  -0.410  0.00  0.00    -0.660 N 
ATOM     22  H   LIG    1        2.886   2.916  -0.821  0.00  0.00    +0.410 HD
ATOM     23  C   LIG    1        2.381   4.640   0.093  0.00  0.00    +0.610 C 
ATOM     24  O   LIG    1        1.484   5.238   0.659  0.00  0.00    -0.500 OA
BRANCH  23  25
ATOM     25  C   LIG    1        3.702   5.259  -0.040  0.00  0.00    -0.260 A 
ATOM     26  C   LIG    1        4.047   6.498   0.422  0.00  0.00    +0.120 A 
ATOM     27  C   LIG    1        5.356   6.830   0.164  0.00  0.00    +0.030 A 
ATOM     28  C   LIG    1        6.058   5.898  -0.495  0.00  0.00    -0.160 A 
ATOM     29 CL   LIG    1        7.725   6.062  -0.951  0.00  0.00    -0.000 Cl
ATOM     30  S   LIG    1        5.095   4.529  -0.826  0.00  0.00    +0.250 S 
ENDBRANCH  23  25
ENDBRANCH   7  21
TORSDOF 4
