REMARK  Name = ZINCtV00000bJKka.0
REMARK                            x       y       z     vdW  Elec       q    Type
REMARK                         _______ _______ _______ _____ _____    ______ ____
ROOT
ATOM      1  N   LIG    1        4.764   2.745  -0.089  0.00  0.00    -0.670 N 
ATOM      2  H   LIG    1        4.466   3.658  -0.230  0.00  0.00    +0.400 HD
ENDROOT
BRANCH   1   3
ATOM      3  C   LIG    1        3.878   1.731  -0.144  0.00  0.00    +0.550 C 
ATOM      4  S   LIG    1        4.404   0.121   0.104  0.00  0.00    -0.600 S 
BRANCH   3   5
ATOM      5  N   LIG    1        2.578   1.984  -0.394  0.00  0.00    -0.640 N 
ATOM      6  H   LIG    1        2.293   2.885  -0.615  0.00  0.00    +0.410 HD
BRANCH   5  11
ATOM      7  C   LIG    1       -0.280  -0.170  -1.239  0.00  0.00    -0.180 A 
ATOM      8  C   LIG    1       -0.213  -1.103  -0.221  0.00  0.00    +0.080 A 
ATOM      9  C   LIG    1        0.773  -1.010   0.744  0.00  0.00    +0.030 A 
ATOM     10  C   LIG    1        1.701   0.011   0.689  0.00  0.00    +0.110 A 
ATOM     11  C   LIG    1        1.640   0.948  -0.335  0.00  0.00    +0.130 A 
ATOM     12  C   LIG    1        0.646   0.854  -1.300  0.00  0.00    +0.060 A 
BRANCH   7  14
ATOM     13  F   LIG    1       -0.904  -1.061  -3.348  0.00  0.00    -0.170 F 
ATOM     14  C   LIG    1       -1.359  -0.272  -2.286  0.00  0.00    +0.510 C 
ATOM     15  F   LIG    1       -1.675   1.007  -2.756  0.00  0.00    -0.180 F 
ATOM     16  F   LIG    1       -2.499  -0.858  -1.724  0.00  0.00    -0.180 F 
ENDBRANCH   7  14
ENDBRANCH   5  11
ENDBRANCH   3   5
ENDBRANCH   1   3
BRANCH   1  17
ATOM     17  C   LIG    1        6.177   2.470   0.183  0.00  0.00    +0.310 C 
BRANCH  17  18
ATOM     18  C   LIG    1        6.960   3.784   0.190  0.00  0.00    +0.030 C 
BRANCH  18  19
ATOM     19  C   LIG    1        8.436   3.497   0.474  0.00  0.00    +0.090 C 
BRANCH  19  20
ATOM     20  C   LIG    1        9.185   4.798   0.604  0.00  0.00    -0.070 A 
ATOM     21  C   LIG    1        9.076   5.760  -0.383  0.00  0.00    +0.010 A 
ATOM     22  C   LIG    1        9.759   6.955  -0.262  0.00  0.00    +0.000 A 
ATOM     23  C   LIG    1       10.560   7.184   0.841  0.00  0.00    +0.000 A 
ATOM     24  C   LIG    1       10.674   6.221   1.825  0.00  0.00    +0.000 A 
ATOM     25  C   LIG    1        9.986   5.027   1.706  0.00  0.00    +0.010 A 
ENDBRANCH  19  20
BRANCH  19  26
ATOM     26  C   LIG    1        9.018   2.692  -0.659  0.00  0.00    -0.080 A 
ATOM     27  C   LIG    1        9.694   1.515  -0.396  0.00  0.00    +0.010 A 
ATOM     28  C   LIG    1       10.223   0.775  -1.436  0.00  0.00    +0.010 A 
ATOM     29  C   LIG    1       10.087   1.217  -2.739  0.00  0.00    +0.000 A 
ATOM     30  C   LIG    1        9.416   2.397  -3.002  0.00  0.00    +0.000 A 
ATOM     31  C   LIG    1        8.882   3.134  -1.962  0.00  0.00    +0.000 A 
ENDBRANCH  19  26
ENDBRANCH  18  19
ENDBRANCH  17  18
ENDBRANCH   1  17
TORSDOF 9
