REMARK  Name = ZINCrH000004t549.0
REMARK                            x       y       z     vdW  Elec       q    Type
REMARK                         _______ _______ _______ _____ _____    ______ ____
ROOT
ATOM      1  N   LIG    1        3.466   2.418  -0.018  0.00  0.00    -0.720 N 
ATOM      2  H   LIG    1        3.242   3.362  -0.011  0.00  0.00    +0.410 HD
ATOM      3  C   LIG    1        2.486   1.493  -0.014  0.00  0.00    +0.610 C 
ATOM      4  O   LIG    1        2.767   0.308  -0.023  0.00  0.00    -0.520 OA
ENDROOT
BRANCH   1   8
ATOM      5  N   LIG    1        7.601   2.446   0.787  0.00  0.00    -0.460 N 
ATOM      6  C   LIG    1        7.200   2.689  -0.604  0.00  0.00    +0.240 C 
ATOM      7  C   LIG    1        5.728   3.108  -0.646  0.00  0.00    +0.040 C 
ATOM      8  C   LIG    1        4.869   1.998  -0.034  0.00  0.00    +0.230 C 
ATOM      9  C   LIG    1        5.339   1.731   1.399  0.00  0.00    +0.030 C 
ATOM     10  C   LIG    1        6.822   1.352   1.381  0.00  0.00    +0.180 C 
BRANCH   5  16
ATOM     11  C   LIG    1        9.096   1.872   3.374  0.00  0.00    +0.320 C 
ATOM     12  N   LIG    1        9.649   1.933   2.019  0.00  0.00    -0.470 N 
ATOM     13  C   LIG    1       10.964   1.737   1.662  0.00  0.00    +0.120 A 
ATOM     14  C   LIG    1       11.034   1.889   0.328  0.00  0.00    +0.160 A 
ATOM     15  N   LIG    1        9.802   2.165  -0.131  0.00  0.00    -0.520 NA
ATOM     16  C   LIG    1        8.960   2.192   0.875  0.00  0.00    +0.390 A 
ENDBRANCH   5  16
ENDBRANCH   1   8
BRANCH   3  17
ATOM     17  C   LIG    1        1.082   1.913   0.002  0.00  0.00    -0.080 A 
ATOM     18  C   LIG    1       -0.013   1.076   0.008  0.00  0.00    +0.060 A 
ATOM     19  C   LIG    1       -1.146   1.895   0.017  0.00  0.00    -0.030 A 
ATOM     20  C   LIG    1       -0.708   3.188   0.026  0.00  0.00    +0.060 A 
ATOM     21  O   LIG    1        0.636   3.186   0.013  0.00  0.00    -0.150 OA
BRANCH  20  22
ATOM     22  C   LIG    1       -1.567   4.388   0.041  0.00  0.00    -0.020 A 
ATOM     23  C   LIG    1       -2.612   4.514  -0.877  0.00  0.00    +0.060 A 
ATOM     24  C   LIG    1       -3.414   5.636  -0.854  0.00  0.00    +0.030 A 
ATOM     25  C   LIG    1       -3.179   6.641   0.067  0.00  0.00    +0.050 A 
ATOM     26  C   LIG    1       -2.143   6.526   0.977  0.00  0.00    +0.030 A 
ATOM     27  C   LIG    1       -1.335   5.407   0.970  0.00  0.00    -0.020 A 
ATOM     28 CL   LIG    1       -0.035   5.264   2.111  0.00  0.00    -0.050 Cl
ENDBRANCH  20  22
ENDBRANCH   3  17
TORSDOF 4
