REMARK  Name = ZINCvU0000000Ghl.0
REMARK                            x       y       z     vdW  Elec       q    Type
REMARK                         _______ _______ _______ _____ _____    ______ ____
ROOT
ATOM      1  C   LIG    1       -6.957  -1.952   2.694  0.00  0.00    +0.140 C 
ATOM      2  C   LIG    1       -5.933  -0.928   3.111  0.00  0.00    +0.090 C 
ATOM      3  C   LIG    1       -6.142  -0.133   4.231  0.00  0.00    -0.140 C 
ATOM      4  C   LIG    1       -5.132   0.854   4.614  0.00  0.00    +0.570 C 
ATOM      5  N   LIG    1       -4.005   1.000   3.895  0.00  0.00    -0.550 N 
ATOM      6  C   LIG    1       -3.766   0.243   2.808  0.00  0.00    +0.560 C 
ATOM      7  O   LIG    1       -2.734   0.395   2.181  0.00  0.00    -0.460 OA
ATOM      8  O   LIG    1       -5.313   1.551   5.595  0.00  0.00    -0.490 OA
ATOM      9  C   LIG    1       -4.745  -0.759   2.371  0.00  0.00    -0.200 C 
ATOM     10  C   LIG    1       -4.499  -1.542   1.236  0.00  0.00    +0.290 C 
ENDROOT
BRANCH  10  11
ATOM     11  C   LIG    1       -3.421  -1.243   0.402  0.00  0.00    -0.040 A 
ATOM     12  C   LIG    1       -2.571  -2.168  -0.201  0.00  0.00    +0.040 A 
ATOM     13  C   LIG    1       -1.645  -1.441  -0.940  0.00  0.00    -0.040 A 
ATOM     14  C   LIG    1       -1.951  -0.103  -0.771  0.00  0.00    +0.080 A 
ATOM     15  O   LIG    1       -3.017  -0.005   0.041  0.00  0.00    -0.100 OA
BRANCH  14  16
ATOM     16  C   LIG    1       -1.226   1.028  -1.377  0.00  0.00    -0.020 A 
ATOM     17  C   LIG    1        0.167   1.104  -1.275  0.00  0.00    +0.090 A 
ATOM     18  C   LIG    1        0.839   2.164  -1.845  0.00  0.00    +0.050 A 
ATOM     19  C   LIG    1        0.139   3.153  -2.517  0.00  0.00    -0.010 A 
ATOM     20  C   LIG    1       -1.240   3.085  -2.622  0.00  0.00    +0.050 A 
ATOM     21 CL   LIG    1        0.996   4.485  -3.230  0.00  0.00    -0.050 Cl
ATOM     22  C   LIG    1       -1.927   2.030  -2.057  0.00  0.00    -0.000 A 
ATOM     23 CL   LIG    1       -3.655   1.942  -2.196  0.00  0.00    -0.040 Cl
ENDBRANCH  14  16
ENDBRANCH  10  11
BRANCH   3  24
ATOM     24  C   LIG    1       -7.338  -0.279   5.005  0.00  0.00    +0.270 C 
ATOM     25  N   LIG    1       -8.287  -0.394   5.619  0.00  0.00    -0.400 NA
ENDBRANCH   3  24
BRANCH   5  26
ATOM     26  C   LIG    1       -3.015   1.999   4.306  0.00  0.00    +0.330 C 
BRANCH  26  27
ATOM     27  C   LIG    1       -2.017   1.359   5.273  0.00  0.00    +0.130 C 
ATOM     28  C   LIG    1       -1.014   2.415   5.787  0.00  0.00    +0.010 C 
ATOM     29  C   LIG    1        0.325   1.650   5.876  0.00  0.00    +0.010 C 
ATOM     30  C   LIG    1       -0.027   0.222   5.404  0.00  0.00    +0.190 C 
ATOM     31  O   LIG    1       -1.206   0.382   4.584  0.00  0.00    -0.360 OA
ENDBRANCH  26  27
ENDBRANCH   5  26
TORSDOF 5
