REMARK  Name = ZINCqH0000006ZRs.0
REMARK                            x       y       z     vdW  Elec       q    Type
REMARK                         _______ _______ _______ _____ _____    ______ ____
ROOT
ATOM      1  C   LIG    1        0.045   1.435  -0.187  0.00  0.00    +0.240 A 
ATOM      2  N   LIG    1        1.042   2.287  -0.241  0.00  0.00    -0.270 NA
ATOM      3  N   LIG    1        0.596   3.490  -0.163  0.00  0.00    -0.260 NA
ATOM      4  C   LIG    1       -0.713   3.479  -0.055  0.00  0.00    +0.120 A 
ATOM      5  N   LIG    1       -1.110   2.172  -0.072  0.00  0.00    -0.460 N 
ATOM      6  C   LIG    1       -2.480   1.662   0.017  0.00  0.00    +0.350 C 
ENDROOT
BRANCH   1  10
ATOM      7  C   LIG    1        0.330  -2.801  -0.356  0.00  0.00    +0.150 A 
ATOM      8  C   LIG    1        1.391  -2.018  -0.792  0.00  0.00    -0.010 A 
ATOM      9  C   LIG    1        1.302  -0.643  -0.738  0.00  0.00    +0.120 A 
ATOM     10  C   LIG    1        0.144  -0.039  -0.246  0.00  0.00    -0.060 A 
ATOM     11  C   LIG    1       -0.918  -0.830   0.196  0.00  0.00    +0.060 A 
ATOM     12  C   LIG    1       -0.824  -2.204   0.134  0.00  0.00    -0.070 A 
BRANCH   7  14
ATOM     13  C   LIG    1       -0.706  -4.901   0.054  0.00  0.00    +0.240 C 
ATOM     14  O   LIG    1        0.422  -4.156  -0.410  0.00  0.00    -0.310 OA
ENDBRANCH   7  14
ENDBRANCH   1  10
BRANCH   4  15
ATOM     15  S   LIG    1       -1.762   4.888   0.080  0.00  0.00    +0.150 S 
BRANCH  15  16
ATOM     16  C   LIG    1       -0.576   6.174  -0.133  0.00  0.00    -0.030 A 
ATOM     17  C   LIG    1       -0.275   7.045   0.897  0.00  0.00    +0.020 A 
ATOM     18  C   LIG    1        0.675   8.053   0.694  0.00  0.00    +0.510 A 
ATOM     19  O   LIG    1        1.304   8.208  -0.483  0.00  0.00    -0.260 OA
ATOM     20  C   LIG    1        1.057   7.399  -1.536  0.00  0.00    +0.150 A 
ATOM     21  C   LIG    1        1.721   7.584  -2.742  0.00  0.00    +0.020 A 
ATOM     22  C   LIG    1        1.458   6.750  -3.808  0.00  0.00    +0.080 A 
ATOM     23  C   LIG    1        0.534   5.723  -3.691  0.00  0.00    +0.010 A 
ATOM     24  C   LIG    1       -0.136   5.522  -2.503  0.00  0.00    +0.080 A 
ATOM     25  O   LIG    1        0.938   8.813   1.610  0.00  0.00    -0.450 OA
ATOM     26  C   LIG    1        0.122   6.359  -1.417  0.00  0.00    -0.120 A 
ENDBRANCH  15  16
ENDBRANCH   4  15
TORSDOF 4
