REMARK  Name = ZINCrH000004tKjf.0
REMARK                            x       y       z     vdW  Elec       q    Type
REMARK                         _______ _______ _______ _____ _____    ______ ____
ROOT
ATOM      1  C   LIG    1        1.395   2.047  -0.000  0.00  0.00    +0.440 A 
ATOM      2  N   LIG    1        2.378   1.191  -0.014  0.00  0.00    -0.580 NA
ATOM      3  C   LIG    1        3.659   1.595  -0.024  0.00  0.00    +0.540 A 
ATOM      4  C   LIG    1        3.946   3.044  -0.019  0.00  0.00    -0.220 A 
ATOM      5  C   LIG    1        2.865   3.904  -0.004  0.00  0.00    +0.050 A 
ATOM      6  S   LIG    1        3.430   5.566  -0.001  0.00  0.00    +0.170 S 
ATOM      7  C   LIG    1        5.115   5.070  -0.020  0.00  0.00    -0.200 A 
ATOM      8  C   LIG    1        6.292   6.028  -0.027  0.00  0.00    +0.120 C 
ATOM      9  C   LIG    1        7.555   5.261   0.373  0.00  0.00    +0.030 C 
ATOM     10  C   LIG    1        7.654   3.990  -0.476  0.00  0.00    +0.020 C 
ATOM     11  C   LIG    1        6.563   3.011  -0.041  0.00  0.00    +0.110 C 
ATOM     12  C   LIG    1        5.225   3.740  -0.027  0.00  0.00    -0.030 A 
ATOM     13  O   LIG    1        4.568   0.780  -0.037  0.00  0.00    -0.480 OA
ATOM     14  N   LIG    1        1.592   3.375  -0.001  0.00  0.00    -0.590 N 
ATOM     15  H   LIG    1        0.827   3.971   0.006  0.00  0.00    +0.420 HD
ENDROOT
BRANCH   1  16
ATOM     16  C   LIG    1       -0.019   1.526   0.010  0.00  0.00    +0.160 C 
BRANCH  16  17
ATOM     17  C   LIG    1        0.002  -0.004   0.002  0.00  0.00    +0.100 C 
BRANCH  17  19
ATOM     18  O   LIG    1       -2.344   0.250   0.026  0.00  0.00    -0.540 OA
ATOM     19  C   LIG    1       -1.412  -0.526   0.013  0.00  0.00    +0.520 C 
ATOM     20  N   LIG    1       -1.640  -1.854   0.008  0.00  0.00    -0.720 N 
ATOM     21  H   LIG    1       -0.894  -2.474  -0.003  0.00  0.00    +0.400 HD
BRANCH  20  22
ATOM     22  C   LIG    1       -3.014  -2.361   0.018  0.00  0.00    +0.320 C 
BRANCH  22  23
ATOM     23  C   LIG    1       -2.994  -3.868   0.010  0.00  0.00    -0.100 A 
ATOM     24  C   LIG    1       -3.283  -4.569   1.165  0.00  0.00    +0.050 A 
ATOM     25  C   LIG    1       -3.264  -5.952   1.157  0.00  0.00    +0.010 A 
ATOM     26  C   LIG    1       -2.956  -6.633  -0.005  0.00  0.00    +0.030 A 
ATOM     27  C   LIG    1       -2.666  -5.933  -1.161  0.00  0.00    +0.030 A 
ATOM     28  C   LIG    1       -2.691  -4.549  -1.156  0.00  0.00    -0.020 A 
ATOM     29 CL   LIG    1       -2.335  -3.669  -2.609  0.00  0.00    -0.060 Cl
ENDBRANCH  22  23
ENDBRANCH  20  22
ENDBRANCH  17  19
ENDBRANCH  16  17
ENDBRANCH   1  16
TORSDOF 5
