REMARK  Name = ZINCrg000000qM8h.0
REMARK                            x       y       z     vdW  Elec       q    Type
REMARK                         _______ _______ _______ _____ _____    ______ ____
ROOT
ATOM      1  N   LIG    1       -0.663  -1.849   1.509  0.00  0.00    -0.730 N 
ATOM      2  H   LIG    1       -0.349  -2.471   0.835  0.00  0.00    +0.400 HD
ATOM      3  C   LIG    1       -0.579  -0.521   1.293  0.00  0.00    +0.510 C 
ATOM      4  O   LIG    1       -0.971   0.257   2.136  0.00  0.00    -0.510 OA
ENDROOT
BRANCH   1   5
ATOM      5  C   LIG    1       -1.228  -2.352   2.764  0.00  0.00    +0.330 C 
BRANCH   5   9
ATOM      6  C   LIG    1       -1.176  -6.628   2.739  0.00  0.00    +0.110 A 
ATOM      7  C   LIG    1       -2.275  -5.943   2.247  0.00  0.00    -0.030 A 
ATOM      8  C   LIG    1       -2.291  -4.560   2.261  0.00  0.00    +0.040 A 
ATOM      9  C   LIG    1       -1.208  -3.859   2.756  0.00  0.00    -0.110 A 
ATOM     10  C   LIG    1       -0.108  -4.537   3.248  0.00  0.00    -0.010 A 
ATOM     11  C   LIG    1       -0.087  -5.922   3.242  0.00  0.00    +0.100 A 
BRANCH   6  13
ATOM     12  C   LIG    1       -2.313  -8.646   2.200  0.00  0.00    +0.240 C 
ATOM     13  O   LIG    1       -1.161  -7.988   2.731  0.00  0.00    -0.310 OA
ENDBRANCH   6  13
BRANCH  11  14
ATOM     14  O   LIG    1        0.994  -6.590   3.725  0.00  0.00    -0.310 OA
ATOM     15  C   LIG    1        2.075  -5.799   4.225  0.00  0.00    +0.240 C 
ENDBRANCH  11  14
ENDBRANCH   5   9
ENDBRANCH   1   5
BRANCH   3  16
ATOM     16  C   LIG    1        0.002  -0.004   0.002  0.00  0.00    +0.220 C 
BRANCH  16  17
ATOM     17  N   LIG    1       -0.018   1.461   0.010  0.00  0.00    -0.480 NA
ATOM     18  C   LIG    1        1.101   2.127   0.003  0.00  0.00    +0.390 C 
ATOM     19  N   LIG    1        2.314   1.487  -0.013  0.00  0.00    -1.050 N 
ATOM     20  H   LIG    1        2.472   0.530  -0.020  0.00  0.00    +0.450 HD
ATOM     21  S   LIG    1        3.464   2.700  -0.017  0.00  0.00    +2.670 S 
ATOM     22  C   LIG    1        2.413   4.125   0.002  0.00  0.00    -0.630 A 
ATOM     23  C   LIG    1        2.646   5.473   0.007  0.00  0.00    +0.150 A 
ATOM     24  C   LIG    1        1.578   6.357   0.023  0.00  0.00    +0.040 A 
ATOM     25  C   LIG    1        0.285   5.864   0.032  0.00  0.00    +0.070 A 
ATOM     26  C   LIG    1        0.047   4.508   0.027  0.00  0.00    +0.100 A 
ATOM     27  O   LIG    1        4.118   2.663  -1.278  0.00  0.00    -0.930 OA
ATOM     28  O   LIG    1        4.140   2.651   1.232  0.00  0.00    -0.930 OA
ATOM     29  C   LIG    1        1.117   3.599   0.005  0.00  0.00    -0.020 A 
ENDBRANCH  16  17
ENDBRANCH   3  16
TORSDOF 6
