REMARK  Name = ZINCpe000000Ug3o.0
REMARK                            x       y       z     vdW  Elec       q    Type
REMARK                         _______ _______ _______ _____ _____    ______ ____
ROOT
ATOM      1  N   LIG    1       -0.549  -4.563  -1.683  0.00  0.00    -0.720 N 
ATOM      2  H   LIG    1       -0.942  -5.053  -0.944  0.00  0.00    +0.410 HD
ATOM      3  C   LIG    1        0.294  -3.540  -1.440  0.00  0.00    +0.500 C 
ATOM      4  O   LIG    1        0.786  -2.927  -2.363  0.00  0.00    -0.510 OA
ENDROOT
BRANCH   1  11
ATOM      5  C   LIG    1       -3.591  -6.605  -5.006  0.00  0.00    +0.180 A 
ATOM      6  N   LIG    1       -3.287  -7.033  -6.205  0.00  0.00    -0.290 NA
ATOM      7  N   LIG    1       -2.019  -6.910  -6.402  0.00  0.00    -0.280 NA
ATOM      8  C   LIG    1       -1.463  -6.402  -5.344  0.00  0.00    +0.180 A 
ATOM      9  C   LIG    1       -0.009  -6.081  -5.109  0.00  0.00    +0.180 C 
ATOM     10  C   LIG    1        0.200  -5.883  -3.601  0.00  0.00    +0.030 C 
ATOM     11  C   LIG    1       -0.874  -4.933  -3.063  0.00  0.00    +0.240 C 
ATOM     12  C   LIG    1       -2.240  -5.628  -3.097  0.00  0.00    +0.300 C 
ATOM     13  N   LIG    1       -2.445  -6.193  -4.430  0.00  0.00    -0.470 N 
BRANCH   5  15
ATOM     14  C   LIG    1       -5.641  -5.242  -4.705  0.00  0.00    +0.040 C 
ATOM     15  C   LIG    1       -4.965  -6.577  -4.387  0.00  0.00    +0.140 C 
ENDBRANCH   5  15
ENDBRANCH   1  11
BRANCH   3  16
ATOM     16  C   LIG    1        0.628  -3.160  -0.020  0.00  0.00    +0.380 C 
BRANCH  16  17
ATOM     17  N   LIG    1        1.558  -2.028  -0.024  0.00  0.00    -0.530 N 
ATOM     18  C   LIG    1        2.904  -2.103  -0.037  0.00  0.00    +0.640 A 
ATOM     19  O   LIG    1        3.421  -0.864  -0.035  0.00  0.00    -0.230 OA
ATOM     20  C   LIG    1        2.410   0.040  -0.021  0.00  0.00    +0.040 A 
ATOM     21  C   LIG    1        2.381   1.425  -0.013  0.00  0.00    +0.060 A 
ATOM     22  C   LIG    1        1.170   2.089   0.002  0.00  0.00    +0.030 A 
ATOM     23  C   LIG    1       -0.017   1.377   0.010  0.00  0.00    +0.040 A 
ATOM     24  C   LIG    1        0.002  -0.004   0.002  0.00  0.00    +0.030 A 
ATOM     25  O   LIG    1        3.550  -3.133  -0.049  0.00  0.00    -0.480 OA
ATOM     26  C   LIG    1        1.213  -0.677  -0.013  0.00  0.00    +0.080 A 
ENDBRANCH  16  17
ENDBRANCH   3  16
TORSDOF 4
