REMARK  Name = ZINCrH000004rpfQ.2
REMARK                            x       y       z     vdW  Elec       q    Type
REMARK                         _______ _______ _______ _____ _____    ______ ____
ROOT
ATOM      1  C   LIG    1        1.296   3.391   0.034  0.00  0.00    +0.210 C 
ATOM      2  C   LIG    1        0.549   3.635  -1.281  0.00  0.00    +0.040 C 
ATOM      3  C   LIG    1        0.114   5.102  -1.347  0.00  0.00    +0.020 C 
ATOM      4  C   LIG    1        1.347   6.000  -1.222  0.00  0.00    +0.170 C 
ATOM      5  N   LIG    1        2.025   5.729   0.052  0.00  0.00    -0.520 NA
ATOM      6  C   LIG    1        2.494   4.339   0.119  0.00  0.00    +0.190 C 
ENDROOT
BRANCH   1  10
ATOM      7  N   LIG    1       -0.036   3.567   3.455  0.00  0.00    -0.690 N 
ATOM      8  H   LIG    1       -0.942   3.877   3.296  0.00  0.00    +0.410 HD
ATOM      9  C   LIG    1        0.822   3.437   2.423  0.00  0.00    +0.720 C 
ATOM     10  N   LIG    1        0.394   3.639   1.161  0.00  0.00    -0.710 N 
ATOM     11  H   LIG    1       -0.511   3.948   1.000  0.00  0.00    +0.400 HD
ATOM     12  O   LIG    1        1.982   3.139   2.631  0.00  0.00    -0.580 OA
BRANCH   7  17
ATOM     13  C   LIG    1        1.648   2.295   8.722  0.00  0.00    +0.090 C 
ATOM     14  C   LIG    1        1.201   2.633   7.323  0.00  0.00    -0.090 A 
ATOM     15  C   LIG    1        1.708   1.929   6.247  0.00  0.00    +0.040 A 
ATOM     16  C   LIG    1        1.297   2.233   4.964  0.00  0.00    +0.030 A 
ATOM     17  C   LIG    1        0.379   3.254   4.754  0.00  0.00    +0.180 A 
ATOM     18  C   LIG    1       -0.130   3.959   5.836  0.00  0.00    -0.010 A 
ATOM     19  C   LIG    1        0.282   3.648   7.118  0.00  0.00    -0.020 A 
ATOM     20 CL   LIG    1       -0.354   4.529   8.472  0.00  0.00    -0.060 Cl
ENDBRANCH   7  17
ENDBRANCH   1  10
BRANCH   5  21
ATOM     21  C   LIG    1        3.133   6.669   0.269  0.00  0.00    +0.250 C 
BRANCH  21  22
ATOM     22  C   LIG    1        4.203   6.432  -0.765  0.00  0.00    -0.120 A 
ATOM     23  C   LIG    1        5.225   5.537  -0.509  0.00  0.00    +0.010 A 
ATOM     24  C   LIG    1        6.205   5.316  -1.459  0.00  0.00    +0.000 A 
ATOM     25  C   LIG    1        6.167   5.997  -2.661  0.00  0.00    +0.000 A 
ATOM     26  C   LIG    1        5.148   6.895  -2.916  0.00  0.00    +0.000 A 
ATOM     27  C   LIG    1        4.166   7.113  -1.967  0.00  0.00    +0.010 A 
ENDBRANCH  21  22
ENDBRANCH   5  21
BRANCH   1  28
ATOM     28  C   LIG    1        1.786   1.942   0.081  0.00  0.00    +0.180 C 
BRANCH  28  29
ATOM     29  O   LIG    1        0.663   1.060   0.128  0.00  0.00    -0.570 OA
ATOM     30  H   LIG    1        0.900   0.123   0.159  0.00  0.00    +0.380 HD
ENDBRANCH  28  29
ENDBRANCH   1  28
TORSDOF 6
