REMARK  Name = ZINCpk00000y6uYO.0
REMARK                            x       y       z     vdW  Elec       q    Type
REMARK                         _______ _______ _______ _____ _____    ______ ____
ROOT
ATOM      1  C   LIG    1       -0.121   1.007  -2.468  0.00  0.00    +0.500 C 
ATOM      2  N   LIG    1       -0.420  -0.252  -2.846  0.00  0.00    -0.730 N 
ATOM      3  H   LIG    1       -1.041  -0.781  -2.322  0.00  0.00    +0.400 HD
ATOM      4  O   LIG    1        0.656   1.669  -3.123  0.00  0.00    -0.500 OA
ENDROOT
BRANCH   2   5
ATOM      5  C   LIG    1        0.194  -0.821  -4.048  0.00  0.00    +0.250 C 
ATOM      6  C   LIG    1       -0.620  -0.415  -5.280  0.00  0.00    -0.010 C 
ATOM      7  C   LIG    1       -2.028  -1.005  -5.168  0.00  0.00    +0.210 C 
ATOM      8  O   LIG    1       -1.940  -2.426  -5.040  0.00  0.00    -0.380 OA
ATOM      9  C   LIG    1       -1.230  -2.864  -3.880  0.00  0.00    +0.250 C 
ATOM     10  C   LIG    1        0.211  -2.349  -3.941  0.00  0.00    +0.030 C 
BRANCH   9  11
ATOM     11  C   LIG    1       -1.224  -4.370  -3.834  0.00  0.00    -0.020 A 
ATOM     12  C   LIG    1       -1.088  -5.139  -2.737  0.00  0.00    +0.160 A 
ATOM     13  N   LIG    1       -1.138  -6.423  -3.121  0.00  0.00    -0.490 NA
ATOM     14  C   LIG    1       -1.291  -6.479  -4.416  0.00  0.00    +0.390 A 
ATOM     15  N   LIG    1       -1.349  -5.220  -4.900  0.00  0.00    -0.440 N 
ATOM     16  C   LIG    1       -1.514  -4.835  -6.304  0.00  0.00    +0.320 C 
ENDBRANCH   9  11
ENDBRANCH   2   5
BRANCH   1  17
ATOM     17  C   LIG    1       -0.753   1.593  -1.232  0.00  0.00    +0.250 C 
BRANCH  17  20
ATOM     18  C   LIG    1        0.618   5.162  -1.411  0.00  0.00    +0.080 C 
ATOM     19  C   LIG    1        0.533   3.659  -1.355  0.00  0.00    +0.520 C 
ATOM     20  N   LIG    1       -0.670   3.054  -1.286  0.00  0.00    -0.720 N 
ATOM     21  H   LIG    1       -1.480   3.587  -1.273  0.00  0.00    +0.400 HD
ATOM     22  O   LIG    1        1.546   2.993  -1.372  0.00  0.00    -0.520 OA
ENDBRANCH  17  20
BRANCH  17  23
ATOM     23  C   LIG    1       -0.013   1.086   0.008  0.00  0.00    +0.050 C 
BRANCH  23  24
ATOM     24  C   LIG    1       -0.729   1.579   1.267  0.00  0.00    -0.010 C 
ATOM     25  C   LIG    1       -0.262   2.967   1.737  0.00  0.00    +0.010 C 
ATOM     26  C   LIG    1       -0.349   2.422   3.173  0.00  0.00    +0.000 C 
ATOM     27  C   LIG    1       -0.134   1.023   2.572  0.00  0.00    +0.010 C 
ENDBRANCH  23  24
ENDBRANCH  17  23
ENDBRANCH   1  17
TORSDOF 6
