REMARK  Name = ZINCrH000004r7HR.0
REMARK                            x       y       z     vdW  Elec       q    Type
REMARK                         _______ _______ _______ _____ _____    ______ ____
ROOT
ATOM      1  C   LIG    1        1.146   3.606   0.014  0.00  0.00    +0.060 C 
ENDROOT
BRANCH   1   2
ATOM      2  C   LIG    1        1.158   2.099   0.015  0.00  0.00    -0.080 A 
ATOM      3  C   LIG    1       -0.033   1.399   0.026  0.00  0.00    +0.050 A 
ATOM      4  C   LIG    1       -0.022   0.016   0.026  0.00  0.00    -0.010 A 
ATOM      5  C   LIG    1        1.180  -0.665   0.015  0.00  0.00    +0.010 A 
ATOM      6  C   LIG    1        2.372   0.035   0.004  0.00  0.00    +0.000 A 
ATOM      7  C   LIG    1        2.361   1.418   0.002  0.00  0.00    +0.030 A 
ENDBRANCH   1   2
BRANCH   1  10
ATOM      8  N   LIG    1        1.158   4.236  -2.378  0.00  0.00    -0.660 N 
ATOM      9  H   LIG    1        0.241   3.923  -2.435  0.00  0.00    +0.410 HD
ATOM     10  C   LIG    1        1.841   4.114  -1.224  0.00  0.00    +0.540 C 
ATOM     11  O   LIG    1        3.016   4.411  -1.180  0.00  0.00    -0.500 OA
BRANCH   8  17
ATOM     12  C   LIG    1        4.578   7.227  -4.257  0.00  0.00    +0.090 C 
ATOM     13  C   LIG    1        3.430   6.267  -4.436  0.00  0.00    -0.070 A 
ATOM     14  C   LIG    1        2.980   5.958  -5.706  0.00  0.00    -0.010 A 
ATOM     15  C   LIG    1        1.926   5.078  -5.874  0.00  0.00    +0.030 A 
ATOM     16  C   LIG    1        1.320   4.506  -4.773  0.00  0.00    -0.120 A 
ATOM     17  C   LIG    1        1.770   4.814  -3.496  0.00  0.00    +0.150 A 
ATOM     18  C   LIG    1        0.171   3.548  -4.958  0.00  0.00    +0.080 C 
ATOM     19  C   LIG    1        2.824   5.702  -3.330  0.00  0.00    +0.020 A 
ENDBRANCH   8  17
ENDBRANCH   1  10
BRANCH   1  20
ATOM     20  S   LIG    1        2.008   4.218   1.483  0.00  0.00    +0.090 S 
BRANCH  20  21
ATOM     21  C   LIG    1        0.928   3.620   2.741  0.00  0.00    +0.370 A 
ATOM     22  N   LIG    1       -0.154   2.940   2.393  0.00  0.00    -0.610 NA
ATOM     23  C   LIG    1       -0.989   2.469   3.317  0.00  0.00    +0.480 A 
ATOM     24  C   LIG    1       -0.718   2.709   4.661  0.00  0.00    -0.230 A 
ATOM     25  C   LIG    1        0.425   3.432   4.987  0.00  0.00    +0.480 A 
ATOM     26  N   LIG    1        1.218   3.868   4.011  0.00  0.00    -0.590 NA
BRANCH  25  27
ATOM     27  N   LIG    1        0.735   3.695   6.313  0.00  0.00    -0.840 N 
ATOM     28  H   LIG    1        0.153   3.374   7.020  0.00  0.00    +0.410 HD
ATOM     29  H   LIG    1        1.534   4.199   6.533  0.00  0.00    +0.410 HD
ENDBRANCH  25  27
BRANCH  23  30
ATOM     30  N   LIG    1       -2.116   1.753   2.945  0.00  0.00    -0.840 N 
ATOM     31  H   LIG    1       -2.299   1.590   2.006  0.00  0.00    +0.400 HD
ATOM     32  H   LIG    1       -2.722   1.416   3.623  0.00  0.00    +0.410 HD
ENDBRANCH  23  30
ENDBRANCH  20  21
ENDBRANCH   1  20
TORSDOF 7
