REMARK  Name = ZINCrH000004tL2a.0
REMARK                            x       y       z     vdW  Elec       q    Type
REMARK                         _______ _______ _______ _____ _____    ______ ____
ROOT
ATOM      1  O   LIG    1        8.620   2.135  -0.465  0.00  0.00    -0.500 OA
ATOM      2  C   LIG    1        8.025   1.991  -1.507  0.00  0.00    +0.470 C 
ENDROOT
BRANCH   2   3
ATOM      3  O   LIG    1        8.664   2.165  -2.674  0.00  0.00    -0.350 OA
BRANCH   3   4
ATOM      4  C   LIG    1       10.069   2.525  -2.610  0.00  0.00    +0.290 C 
BRANCH   4   5
ATOM      5  C   LIG    1       10.614   2.677  -4.007  0.00  0.00    -0.100 A 
ATOM      6  C   LIG    1       11.166   1.588  -4.655  0.00  0.00    +0.080 A 
ATOM      7  C   LIG    1       11.661   1.726  -5.939  0.00  0.00    +0.020 A 
ATOM      8  C   LIG    1       11.613   2.955  -6.569  0.00  0.00    +0.080 A 
ATOM      9  C   LIG    1       11.065   4.045  -5.919  0.00  0.00    -0.190 A 
ATOM     10  C   LIG    1       10.566   3.906  -4.638  0.00  0.00    +0.090 A 
BRANCH   9  11
ATOM     11  C   LIG    1       11.013   5.385  -6.607  0.00  0.00    +0.510 C 
ATOM     12  F   LIG    1        9.905   6.103  -6.145  0.00  0.00    -0.180 F 
ATOM     13  F   LIG    1       10.903   5.196  -7.989  0.00  0.00    -0.180 F 
ATOM     14  F   LIG    1       12.182   6.100  -6.325  0.00  0.00    -0.170 F 
ENDBRANCH   9  11
ENDBRANCH   4   5
ENDBRANCH   3   4
ENDBRANCH   2   3
BRANCH   2  15
ATOM     15  C   LIG    1        6.565   1.617  -1.495  0.00  0.00    +0.100 C 
BRANCH  15  16
ATOM     16  C   LIG    1        6.085   1.481  -0.049  0.00  0.00    +0.410 C 
BRANCH  16  17
ATOM     17  N   LIG    1        4.666   1.117  -0.037  0.00  0.00    -0.450 N 
ATOM     18  N   LIG    1        3.577   2.001  -0.027  0.00  0.00    -0.260 NA
ATOM     19  C   LIG    1        2.486   1.286  -0.015  0.00  0.00    +0.330 A 
ATOM     20  O   LIG    1        2.818  -0.024  -0.026  0.00  0.00    -0.260 OA
ATOM     21  C   LIG    1        4.157  -0.133  -0.040  0.00  0.00    +0.610 A 
ATOM     22  O   LIG    1        4.794  -1.169  -0.052  0.00  0.00    -0.470 OA
BRANCH  19  23
ATOM     23  C   LIG    1        1.115   1.820   0.001  0.00  0.00    -0.170 A 
ATOM     24  C   LIG    1       -0.013   1.076   0.008  0.00  0.00    +0.090 A 
ATOM     25  C   LIG    1       -1.183   1.804   0.017  0.00  0.00    +0.010 A 
ATOM     26  C   LIG    1       -1.025   3.131   0.029  0.00  0.00    -0.010 A 
ATOM     27  S   LIG    1        0.689   3.527   0.015  0.00  0.00    +0.210 S 
ENDBRANCH  19  23
ENDBRANCH  16  17
ENDBRANCH  15  16
ENDBRANCH   2  15
TORSDOF 8
