REMARK  Name = ZINCvU0000000FiC.0
REMARK                            x       y       z     vdW  Elec       q    Type
REMARK                         _______ _______ _______ _____ _____    ______ ____
ROOT
ATOM      1  C   LIG    1        0.103  -0.062   0.406  0.00  0.00    -0.680 A 
ATOM      2  C   LIG    1        1.315  -0.718   0.466  0.00  0.00    +0.230 A 
ATOM      3  C   LIG    1        2.490   0.010   0.664  0.00  0.00    -0.140 A 
ATOM      4  C   LIG    1        2.431   1.398   0.800  0.00  0.00    +0.160 A 
ATOM      5  C   LIG    1        1.213   2.043   0.738  0.00  0.00    +0.020 A 
ATOM      6  C   LIG    1        0.051   1.316   0.542  0.00  0.00    +0.090 A 
ATOM      7 CL   LIG    1       -1.477   2.135   0.458  0.00  0.00    -0.020 Cl
ENDROOT
BRANCH   1   8
ATOM      8  S   LIG    1       -1.381  -0.978   0.157  0.00  0.00    +2.680 S 
ATOM      9  O   LIG    1       -0.995  -2.339   0.025  0.00  0.00    -0.930 OA
ATOM     10  O   LIG    1       -2.121  -0.280  -0.836  0.00  0.00    -0.920 OA
BRANCH   8  11
ATOM     11  N   LIG    1       -2.261  -0.875   1.555  0.00  0.00    -0.940 N 
BRANCH  11  12
ATOM     12  C   LIG    1       -1.973  -1.724   2.627  0.00  0.00    +0.140 A 
ATOM     13  C   LIG    1       -2.657  -2.924   2.768  0.00  0.00    +0.060 A 
ATOM     14  C   LIG    1       -2.369  -3.761   3.829  0.00  0.00    +0.030 A 
ATOM     15  C   LIG    1       -1.400  -3.406   4.749  0.00  0.00    +0.050 A 
ATOM     16  C   LIG    1       -0.717  -2.212   4.612  0.00  0.00    +0.040 A 
ATOM     17  C   LIG    1       -0.995  -1.372   3.551  0.00  0.00    -0.040 A 
ATOM     18 CL   LIG    1       -0.131   0.123   3.376  0.00  0.00    -0.060 Cl
ENDBRANCH  11  12
BRANCH  11  19
ATOM     19  C   LIG    1       -3.343   0.106   1.669  0.00  0.00    +0.330 C 
BRANCH  19  21
ATOM     20  C   LIG    1       -5.646  -0.503   2.204  0.00  0.00    +0.030 C 
ATOM     21  C   LIG    1       -4.658  -0.555   1.346  0.00  0.00    -0.060 C 
ENDBRANCH  19  21
ENDBRANCH  11  19
ENDBRANCH   8  11
ENDBRANCH   1   8
BRANCH   3  22
ATOM     22  C   LIG    1        3.791  -0.686   0.729  0.00  0.00    +0.510 C 
ATOM     23  O   LIG    1        3.840  -1.895   0.610  0.00  0.00    -0.470 OA
BRANCH  22  24
ATOM     24  O   LIG    1        4.923   0.018   0.920  0.00  0.00    -0.290 OA
BRANCH  24  25
ATOM     25  C   LIG    1        6.095  -0.669   0.862  0.00  0.00    +0.080 A 
ATOM     26  C   LIG    1        6.783  -0.968   2.029  0.00  0.00    +0.010 A 
ATOM     27  C   LIG    1        7.970  -1.671   1.968  0.00  0.00    +0.030 A 
ATOM     28  C   LIG    1        8.479  -2.068   0.745  0.00  0.00    +0.020 A 
ATOM     29  C   LIG    1        7.797  -1.766  -0.420  0.00  0.00    -0.070 A 
ATOM     30  C   LIG    1        8.354  -2.199  -1.752  0.00  0.00    +0.100 C 
ATOM     31  C   LIG    1        6.607  -1.068  -0.364  0.00  0.00    +0.010 A 
ENDBRANCH  24  25
ENDBRANCH  22  24
ENDBRANCH   3  22
TORSDOF 8
