REMARK  Name = ZINCpk00000e9NGx.0
REMARK                            x       y       z     vdW  Elec       q    Type
REMARK                         _______ _______ _______ _____ _____    ______ ____
ROOT
ATOM      1  C   LIG    1        0.156  -2.749   0.189  0.00  0.00    +0.300 C 
ATOM      2  N   LIG    1       -1.125  -2.038   0.205  0.00  0.00    -0.620 N 
ATOM      3  C   LIG    1       -1.150  -0.694   0.111  0.00  0.00    +0.710 C 
ATOM      4  N   LIG    1        0.002  -0.004   0.002  0.00  0.00    -0.660 N 
ATOM      5  H   LIG    1        0.846  -0.477  -0.073  0.00  0.00    +0.410 HD
ATOM      6  O   LIG    1       -2.213  -0.104   0.124  0.00  0.00    -0.580 OA
ENDROOT
BRANCH   4   7
ATOM      7  C   LIG    1       -0.018   1.396  -0.002  0.00  0.00    +0.130 A 
ATOM      8  C   LIG    1       -1.072   2.085  -0.591  0.00  0.00    +0.100 A 
ATOM      9  C   LIG    1       -1.051   3.472  -0.565  0.00  0.00    -0.010 A 
ATOM     10  C   LIG    1        0.013   4.122   0.029  0.00  0.00    +0.280 A 
ATOM     11  N   LIG    1        1.004   3.443   0.576  0.00  0.00    -0.480 NA
ATOM     12  C   LIG    1        1.023   2.121   0.580  0.00  0.00    +0.340 A 
BRANCH  12  13
ATOM     13  N   LIG    1        2.094   1.444   1.171  0.00  0.00    -0.330 N 
ATOM     14  C   LIG    1        3.353   1.927   1.336  0.00  0.00    +0.260 A 
ATOM     15  C   LIG    1        4.083   0.967   1.949  0.00  0.00    -0.100 A 
ATOM     16  C   LIG    1        3.252  -0.140   2.158  0.00  0.00    +0.260 A 
ATOM     17  N   LIG    1        2.062   0.145   1.693  0.00  0.00    -0.300 NA
ENDBRANCH  12  13
ENDBRANCH   4   7
BRANCH   2  18
ATOM     18  C   LIG    1       -2.377  -2.789   0.324  0.00  0.00    +0.450 C 
BRANCH  18  19
ATOM     19  C   LIG    1       -2.881  -3.146  -1.051  0.00  0.00    +0.170 A 
ATOM     20  N   LIG    1       -2.597  -4.230  -1.721  0.00  0.00    -0.280 NA
ATOM     21  N   LIG    1       -3.198  -4.205  -2.858  0.00  0.00    -0.280 NA
ATOM     22  C   LIG    1       -3.891  -3.103  -2.964  0.00  0.00    +0.160 A 
ATOM     23  C   LIG    1       -4.809  -2.342  -3.897  0.00  0.00    +0.160 C 
ATOM     24  C   LIG    1       -4.817  -0.903  -3.333  0.00  0.00    +0.070 C 
ATOM     25  C   LIG    1       -4.465  -1.142  -1.849  0.00  0.00    +0.300 C 
ATOM     26  N   LIG    1       -3.717  -2.405  -1.819  0.00  0.00    -0.480 N 
ENDBRANCH  18  19
ENDBRANCH   2  18
TORSDOF 4
