REMARK  Name = ZINCrD00000eCozL.0
REMARK                            x       y       z     vdW  Elec       q    Type
REMARK                         _______ _______ _______ _____ _____    ______ ____
ROOT
ATOM      1  N   LIG    1        6.045  -0.955   2.235  0.00  0.00    -0.700 N 
ATOM      2  H   LIG    1        6.914  -0.785   2.630  0.00  0.00    +0.420 HD
ENDROOT
BRANCH   1   9
ATOM      3  C   LIG    1        1.317   0.160   2.235  0.00  0.00    +0.240 A 
ATOM      4  N   LIG    1        0.685   1.028   2.985  0.00  0.00    -0.260 NA
ATOM      5  N   LIG    1        1.508   1.596   3.796  0.00  0.00    -0.250 NA
ATOM      6  C   LIG    1        2.724   1.115   3.592  0.00  0.00    +0.110 A 
ATOM      7  C   LIG    1        3.982   1.368   4.171  0.00  0.00    +0.190 A 
ATOM      8  C   LIG    1        5.067   0.685   3.721  0.00  0.00    -0.020 A 
ATOM      9  C   LIG    1        4.927  -0.262   2.687  0.00  0.00    +0.420 A 
ATOM     10  N   LIG    1        3.755  -0.499   2.147  0.00  0.00    -0.340 NA
ATOM     11  N   LIG    1        2.620   0.186   2.586  0.00  0.00    -0.270 N 
BRANCH   3  15
ATOM     12  C   LIG    1       -0.019   1.526   0.010  0.00  0.00    +0.050 C 
ATOM     13  C   LIG    1        0.002  -0.004   0.002  0.00  0.00    -0.020 C 
ATOM     14  C   LIG    1       -0.825  -0.728   1.066  0.00  0.00    +0.070 C 
ATOM     15  C   LIG    1        0.701  -0.708   1.167  0.00  0.00    +0.040 C 
ENDBRANCH   3  15
ENDBRANCH   1   9
BRANCH   1  16
ATOM     16  C   LIG    1        5.909  -1.943   1.161  0.00  0.00    +0.270 C 
BRANCH  16  17
ATOM     17  C   LIG    1        7.278  -2.555   0.856  0.00  0.00    +0.030 C 
BRANCH  17  18
ATOM     18  C   LIG    1        7.136  -3.586  -0.266  0.00  0.00    +0.110 C 
BRANCH  18  19
ATOM     19  C   LIG    1        8.484  -4.190  -0.566  0.00  0.00    +0.180 A 
ATOM     20  C   LIG    1        8.954  -5.262   0.175  0.00  0.00    -0.080 A 
ATOM     21  C   LIG    1       10.200  -5.784  -0.138  0.00  0.00    +0.320 A 
ATOM     22  N   LIG    1       10.894  -5.244  -1.127  0.00  0.00    -0.520 NA
ATOM     23  C   LIG    1       10.414  -4.224  -1.811  0.00  0.00    +0.330 A 
ATOM     24  N   LIG    1        9.232  -3.706  -1.545  0.00  0.00    -0.510 NA
BRANCH  23  25
ATOM     25  C   LIG    1       11.237  -3.639  -2.929  0.00  0.00    -0.000 C 
ATOM     26  C   LIG    1       11.529  -2.167  -2.632  0.00  0.00    +0.050 C 
ATOM     27  C   LIG    1       10.462  -3.750  -4.244  0.00  0.00    +0.050 C 
ATOM     28  C   LIG    1       12.555  -4.407  -3.048  0.00  0.00    +0.050 C 
ENDBRANCH  23  25
ENDBRANCH  18  19
ENDBRANCH  17  18
ENDBRANCH  16  17
ENDBRANCH   1  16
TORSDOF 7
