REMARK  Name = ZINCvU0000000Gcf.0
REMARK                            x       y       z     vdW  Elec       q    Type
REMARK                         _______ _______ _______ _____ _____    ______ ____
ROOT
ATOM      1  C   LIG    1       -3.921   6.509   0.509  0.00  0.00    +0.210 A 
ATOM      2  N   LIG    1       -4.926   5.641   0.489  0.00  0.00    -0.290 NA
ATOM      3  N   LIG    1       -6.151   6.023   0.581  0.00  0.00    -0.160 NA
ATOM      4  C   LIG    1       -6.446   7.314   0.700  0.00  0.00    +0.060 A 
ATOM      5  C   LIG    1       -5.397   8.254   0.724  0.00  0.00    +0.230 A 
ATOM      6  N   LIG    1       -4.145   7.812   0.631  0.00  0.00    -0.440 NA
ENDROOT
BRANCH   5   7
ATOM      7  C   LIG    1       -5.681   9.702   0.855  0.00  0.00    -0.080 A 
ATOM      8  C   LIG    1       -6.814  10.251   0.256  0.00  0.00    +0.070 A 
ATOM      9  C   LIG    1       -7.076  11.599   0.387  0.00  0.00    +0.000 A 
ATOM     10  C   LIG    1       -6.210  12.409   1.100  0.00  0.00    +0.040 A 
ATOM     11  C   LIG    1       -5.081  11.872   1.692  0.00  0.00    +0.000 A 
ATOM     12  C   LIG    1       -4.812  10.524   1.573  0.00  0.00    +0.070 A 
ENDBRANCH   5   7
BRANCH   4  13
ATOM     13  C   LIG    1       -7.856   7.756   0.806  0.00  0.00    -0.060 A 
ATOM     14  C   LIG    1       -8.190   8.846   1.610  0.00  0.00    +0.050 A 
ATOM     15  C   LIG    1       -9.504   9.256   1.701  0.00  0.00    +0.010 A 
ATOM     16  C   LIG    1      -10.491   8.583   1.004  0.00  0.00    +0.030 A 
ATOM     17  C   LIG    1      -10.167   7.498   0.208  0.00  0.00    +0.000 A 
ATOM     18  C   LIG    1       -8.856   7.082   0.106  0.00  0.00    +0.060 A 
ENDBRANCH   4  13
BRANCH   1  19
ATOM     19  S   LIG    1       -2.265   5.922   0.380  0.00  0.00    +0.130 S 
BRANCH  19  20
ATOM     20  C   LIG    1       -2.571   4.143   0.252  0.00  0.00    +0.110 C 
BRANCH  20  22
ATOM     21  O   LIG    1       -0.216   4.038   0.127  0.00  0.00    -0.500 OA
ATOM     22  C   LIG    1       -1.257   3.415   0.128  0.00  0.00    +0.540 C 
ATOM     23  N   LIG    1       -1.239   2.072   0.019  0.00  0.00    -0.660 N 
ATOM     24  H   LIG    1       -2.071   1.580  -0.060  0.00  0.00    +0.420 HD
BRANCH  23  25
ATOM     25  C   LIG    1       -0.017   1.386   0.021  0.00  0.00    +0.120 A 
ATOM     26  C   LIG    1        1.097   1.950   0.626  0.00  0.00    +0.080 A 
ATOM     27  C   LIG    1        2.301   1.274   0.622  0.00  0.00    +0.060 A 
ATOM     28  C   LIG    1        2.400   0.035   0.015  0.00  0.00    -0.030 A 
ATOM     29  C   LIG    1        1.291  -0.532  -0.590  0.00  0.00    +0.030 A 
ATOM     30 CL   LIG    1        3.915  -0.811   0.013  0.00  0.00    -0.050 Cl
ATOM     31  C   LIG    1        0.083   0.140  -0.589  0.00  0.00    +0.080 A 
ATOM     32  F   LIG    1       -0.999  -0.413  -1.179  0.00  0.00    -0.130 F 
ENDBRANCH  23  25
ENDBRANCH  20  22
ENDBRANCH  19  20
ENDBRANCH   1  19
TORSDOF 6
