REMARK  Name = ZINCnE000001LwkH.1
REMARK                            x       y       z     vdW  Elec       q    Type
REMARK                         _______ _______ _______ _____ _____    ______ ____
ROOT
ATOM      1  C   LIG    1       -0.020   7.917   0.048  0.00  0.00    +0.460 C 
ATOM      2  N   LIG    1       -0.430   6.634   0.045  0.00  0.00    -0.660 NA
ATOM      3  O   LIG    1        1.165   8.175   0.038  0.00  0.00    -0.590 OA
ENDROOT
BRANCH   2   4
ATOM      4  C   LIG    1        0.503   5.608   0.029  0.00  0.00    +0.410 A 
ATOM      5  N   LIG    1        0.215   4.353   0.024  0.00  0.00    -0.550 NA
ATOM      6  C   LIG    1        1.236   3.472   0.003  0.00  0.00    +0.130 A 
ATOM      7  C   LIG    1        1.185   2.058   0.002  0.00  0.00    +0.140 A 
ATOM      8  C   LIG    1        2.348   1.321  -0.013  0.00  0.00    -0.090 A 
ATOM      9  C   LIG    1        3.583   1.952  -0.022  0.00  0.00    +0.000 A 
ATOM     10  C   LIG    1        3.654   3.327  -0.015  0.00  0.00    +0.020 A 
ATOM     11  C   LIG    1        2.488   4.091   0.000  0.00  0.00    -0.210 A 
ATOM     12  S   LIG    1        2.246   5.837   0.013  0.00  0.00    -0.020 S 
BRANCH   7  13
ATOM     13  O   LIG    1       -0.017   1.425   0.010  0.00  0.00    -0.300 OA
ATOM     14  C   LIG    1        0.002  -0.004   0.002  0.00  0.00    +0.220 C 
ENDBRANCH   7  13
ENDBRANCH   2   4
BRANCH   1  15
ATOM     15  C   LIG    1       -1.033   9.032   0.066  0.00  0.00    +0.100 C 
BRANCH  15  20
ATOM     16  C   LIG    1        0.651  12.197  -1.128  0.00  0.00    +0.120 A 
ATOM     17  C   LIG    1        0.990  12.798   0.075  0.00  0.00    -0.100 A 
ATOM     18  C   LIG    1        0.673  12.179   1.269  0.00  0.00    +0.040 A 
ATOM     19  C   LIG    1        0.014  10.964   1.265  0.00  0.00    -0.020 A 
ATOM     20  C   LIG    1       -0.320  10.360   0.066  0.00  0.00    -0.010 A 
ATOM     21  C   LIG    1       -0.006  10.975  -1.130  0.00  0.00    -0.010 A 
BRANCH  16  23
ATOM     22  C   LIG    1        1.637  14.061  -2.226  0.00  0.00    +0.230 C 
ATOM     23  O   LIG    1        0.961  12.805  -2.304  0.00  0.00    -0.320 OA
ENDBRANCH  16  23
ENDBRANCH  15  20
ENDBRANCH   1  15
TORSDOF 5
