REMARK  Name = ZINCkj000005iWEo.0
REMARK                            x       y       z     vdW  Elec       q    Type
REMARK                         _______ _______ _______ _____ _____    ______ ____
ROOT
ATOM      1  C   LIG    1        1.190   1.801  -0.001  0.00  0.00    +0.070 A 
ATOM      2  C   LIG    1        1.155   3.159  -0.046  0.00  0.00    +0.260 A 
ATOM      3  N   LIG    1       -0.033   3.821  -0.033  0.00  0.00    -0.490 N 
ATOM      4  C   LIG    1       -1.197   3.148   0.024  0.00  0.00    +0.520 A 
ATOM      5  C   LIG    1       -1.198   1.743   0.066  0.00  0.00    -0.060 A 
ATOM      6  O   LIG    1       -2.254   3.758   0.035  0.00  0.00    -0.540 OA
ATOM      7  C   LIG    1       -0.011   1.072   0.059  0.00  0.00    +0.150 A 
ENDROOT
BRANCH   1   9
ATOM      8  C   LIG    1        2.741   0.287   0.989  0.00  0.00    +0.530 C 
ATOM      9  N   LIG    1        2.421   1.128  -0.015  0.00  0.00    -0.680 N 
ATOM     10  H   LIG    1        3.042   1.268  -0.747  0.00  0.00    +0.410 HD
ATOM     11  O   LIG    1        1.931   0.044   1.857  0.00  0.00    -0.510 OA
BRANCH   8  12
ATOM     12  C   LIG    1        4.106  -0.351   1.031  0.00  0.00    +0.020 C 
ATOM     13  C   LIG    1        5.176   0.740   1.107  0.00  0.00    +0.060 C 
BRANCH  12  14
ATOM     14  C   LIG    1        4.209  -1.253   2.262  0.00  0.00    +0.110 C 
BRANCH  14  16
ATOM     15  C   LIG    1        5.731  -3.135   3.747  0.00  0.00    +0.150 C 
ATOM     16  S   LIG    1        5.794  -2.134   2.235  0.00  0.00    -0.250 S 
ENDBRANCH  14  16
ENDBRANCH  12  14
ENDBRANCH   8  12
ENDBRANCH   1   9
BRANCH   3  17
ATOM     17  C   LIG    1       -0.045   5.285  -0.083  0.00  0.00    +0.300 C 
BRANCH  17  18
ATOM     18  C   LIG    1       -0.092   5.746  -1.541  0.00  0.00    +0.250 C 
BRANCH  18  19
ATOM     19  N   LIG    1       -0.105   7.214  -1.590  0.00  0.00    -0.380 N 
ATOM     20  C   LIG    1       -1.346   7.714  -0.984  0.00  0.00    +0.330 C 
ATOM     21  C   LIG    1       -0.029   7.658  -2.989  0.00  0.00    +0.320 C 
ATOM     22  H   LIG    1        0.687   7.575  -1.080  0.00  0.00    +0.430 HD
ENDBRANCH  18  19
ENDBRANCH  17  18
ENDBRANCH   3  17
TORSDOF 7
