REMARK  Name = ZINCvU00000005s0.0
REMARK                            x       y       z     vdW  Elec       q    Type
REMARK                         _______ _______ _______ _____ _____    ______ ____
ROOT
ATOM      1  C   LIG    1        2.402   4.336   2.994  0.00  0.00    +0.100 C 
ATOM      2  N   LIG    1        1.916   3.394   2.252  0.00  0.00    -0.200 NA
ATOM      3  N   LIG    1        1.139   3.860   1.206  0.00  0.00    -0.540 N 
ATOM      4  C   LIG    1        0.901   5.310   1.399  0.00  0.00    +0.260 C 
ATOM      5  C   LIG    1        1.210   5.971   0.082  0.00  0.00    -0.160 A 
ATOM      6  C   LIG    1        1.427   7.336   0.047  0.00  0.00    +0.100 A 
ATOM      7  C   LIG    1        1.694   7.971  -1.152  0.00  0.00    -0.120 A 
ATOM      8  C   LIG    1        1.742   7.235  -2.322  0.00  0.00    +0.090 A 
ATOM      9  C   LIG    1        1.534   5.872  -2.290  0.00  0.00    +0.000 A 
ATOM     10 BR   LIG    1        1.994   9.838  -1.192  0.00  0.00    -0.040 Br
ATOM     11  C   LIG    1        1.276   5.222  -1.084  0.00  0.00    +0.170 A 
ATOM     12  O   LIG    1        1.118   3.873  -1.125  0.00  0.00    -0.300 OA
ATOM     13  C   LIG    1        0.634   3.175   0.017  0.00  0.00    +0.420 C 
ATOM     14  C   LIG    1        1.098   1.736   0.001  0.00  0.00    +0.560 C 
ATOM     15  N   LIG    1       -0.011   0.966   0.007  0.00  0.00    -0.650 N 
ATOM     16  H   LIG    1        0.002  -0.004   0.002  0.00  0.00    +0.430 HD
ATOM     17  C   LIG    1       -1.169   1.724   0.017  0.00  0.00    +0.170 A 
ATOM     18  C   LIG    1       -2.501   1.308   0.032  0.00  0.00    +0.010 A 
ATOM     19  C   LIG    1       -3.474   2.296   0.046  0.00  0.00    +0.060 A 
ATOM     20  C   LIG    1       -3.153   3.637   0.048  0.00  0.00    -0.110 A 
ATOM     21  C   LIG    1       -1.830   4.066   0.037  0.00  0.00    +0.100 A 
ATOM     22  C   LIG    1       -4.260   4.660   0.062  0.00  0.00    +0.100 C 
ATOM     23  O   LIG    1        2.247   1.348  -0.015  0.00  0.00    -0.440 OA
ATOM     24  C   LIG    1       -0.857   3.090   0.026  0.00  0.00    -0.180 A 
ATOM     25  C   LIG    1        1.919   5.679   2.486  0.00  0.00    +0.090 C 
ENDROOT
BRANCH   1  30
ATOM     26  C   LIG    1        5.867   3.545   7.516  0.00  0.00    +0.090 C 
ATOM     27  C   LIG    1        4.959   3.752   6.331  0.00  0.00    -0.070 A 
ATOM     28  C   LIG    1        4.502   2.660   5.614  0.00  0.00    +0.010 A 
ATOM     29  C   LIG    1        3.671   2.842   4.529  0.00  0.00    +0.050 A 
ATOM     30  C   LIG    1        3.290   4.133   4.154  0.00  0.00    -0.030 A 
ATOM     31  C   LIG    1        3.759   5.231   4.879  0.00  0.00    +0.040 A 
ATOM     32  C   LIG    1        4.586   5.033   5.965  0.00  0.00    +0.010 A 
ENDBRANCH   1  30
TORSDOF 1
