REMARK  Name = ZINCzw00000008fk.2
REMARK                            x       y       z     vdW  Elec       q    Type
REMARK                         _______ _______ _______ _____ _____    ______ ____
ROOT
ATOM      1  C   LIG    1       -0.904  -5.231   4.292  0.00  0.00    +0.220 C 
ENDROOT
BRANCH   1   2
ATOM      2  C   LIG    1       -2.327  -5.387   3.821  0.00  0.00    -0.140 A 
ATOM      3  C   LIG    1       -3.165  -4.288   3.774  0.00  0.00    +0.010 A 
ATOM      4  C   LIG    1       -4.468  -4.431   3.337  0.00  0.00    +0.060 A 
ATOM      5  C   LIG    1       -4.937  -5.674   2.956  0.00  0.00    -0.050 A 
ATOM      6  C   LIG    1       -4.101  -6.773   3.006  0.00  0.00    +0.050 A 
ATOM      7  C   LIG    1       -2.796  -6.630   3.439  0.00  0.00    +0.060 A 
BRANCH   5   8
ATOM      8  C   LIG    1       -6.360  -5.830   2.484  0.00  0.00    +0.230 C 
BRANCH   8   9
ATOM      9  O   LIG    1       -7.203  -6.120   3.600  0.00  0.00    -0.390 OA
ATOM     10  C   LIG    1       -8.581  -6.288   3.260  0.00  0.00    +0.220 C 
ENDBRANCH   8   9
ENDBRANCH   5   8
ENDBRANCH   1   2
BRANCH   1  13
ATOM     11  N   LIG    1       -0.781  -6.330   6.505  0.00  0.00    -0.690 N 
ATOM     12  H   LIG    1       -0.730  -7.182   6.043  0.00  0.00    +0.410 HD
ATOM     13  C   LIG    1       -0.877  -5.186   5.798  0.00  0.00    +0.510 C 
ATOM     14  O   LIG    1       -0.940  -4.121   6.375  0.00  0.00    -0.520 OA
BRANCH  11  15
ATOM     15  C   LIG    1       -0.754  -6.287   7.969  0.00  0.00    +0.310 C 
BRANCH  15  16
ATOM     16  C   LIG    1       -0.642  -7.710   8.519  0.00  0.00    +0.180 C 
BRANCH  16  17
ATOM     17  O   LIG    1        0.614  -8.272   8.134  0.00  0.00    -0.390 OA
BRANCH  17  19
ATOM     18  C   LIG    1        2.190 -10.104   8.131  0.00  0.00    +0.050 C 
ATOM     19  C   LIG    1        0.821  -9.607   8.600  0.00  0.00    +0.160 C 
ENDBRANCH  17  19
ENDBRANCH  16  17
ENDBRANCH  15  16
ENDBRANCH  11  15
ENDBRANCH   1  13
BRANCH   1  20
ATOM     20  N   LIG    1       -0.345  -3.983   3.755  0.00  0.00    -0.370 N 
ATOM     21  C   LIG    1        1.046  -3.837   4.204  0.00  0.00    +0.330 C 
ATOM     22  H   LIG    1       -0.889  -3.200   4.086  0.00  0.00    +0.430 HD
BRANCH  20  23
ATOM     23  C   LIG    1       -0.384  -4.021   2.287  0.00  0.00    +0.270 C 
BRANCH  23  24
ATOM     24  C   LIG    1        0.082  -2.674   1.730  0.00  0.00    +0.010 C 
BRANCH  24  25
ATOM     25  C   LIG    1        0.041  -2.713   0.201  0.00  0.00    +0.310 C 
BRANCH  25  26
ATOM     26  N   LIG    1        0.488  -1.424  -0.333  0.00  0.00    -0.620 N 
ATOM     27  C   LIG    1        1.793  -1.220  -0.598  0.00  0.00    +0.600 C 
ATOM     28  O   LIG    1        2.597  -2.116  -0.421  0.00  0.00    -0.540 OA
ATOM     29  C   LIG    1       -0.485  -0.357  -0.578  0.00  0.00    +0.300 C 
BRANCH  27  30
ATOM     30  C   LIG    1        2.248   0.089  -1.102  0.00  0.00    -0.310 A 
ATOM     31  C   LIG    1        3.552   0.534  -1.165  0.00  0.00    +0.330 A 
ATOM     32  N   LIG    1        3.530   1.772  -1.684  0.00  0.00    -0.330 N 
ATOM     33  N   LIG    1        2.200   2.116  -1.953  0.00  0.00    -0.280 NA
ATOM     34  C   LIG    1        1.429   1.119  -1.616  0.00  0.00    +0.270 A 
BRANCH  32  35
ATOM     35  C   LIG    1        4.699   2.620  -1.927  0.00  0.00    +0.220 C 
ATOM     36  C   LIG    1        6.005   2.240  -1.228  0.00  0.00    +0.060 C 
ATOM     37  C   LIG    1        5.215   3.463  -0.759  0.00  0.00    +0.050 C 
ENDBRANCH  32  35
ENDBRANCH  27  30
ENDBRANCH  25  26
ENDBRANCH  24  25
ENDBRANCH  23  24
ENDBRANCH  20  23
ENDBRANCH   1  20
TORSDOF 15
