REMARK  Name = ZINCzw00000008fk.1
REMARK                            x       y       z     vdW  Elec       q    Type
REMARK                         _______ _______ _______ _____ _____    ______ ____
ROOT
ATOM      1  C   LIG    1       -2.385   0.963   0.529  0.00  0.00    +0.220 C 
ENDROOT
BRANCH   1   2
ATOM      2  C   LIG    1       -2.131   0.268   1.842  0.00  0.00    -0.140 A 
ATOM      3  C   LIG    1       -2.013   1.007   3.004  0.00  0.00    +0.020 A 
ATOM      4  C   LIG    1       -1.785   0.369   4.209  0.00  0.00    +0.060 A 
ATOM      5  C   LIG    1       -1.665  -1.007   4.251  0.00  0.00    -0.050 A 
ATOM      6  C   LIG    1       -1.778  -1.746   3.088  0.00  0.00    +0.060 A 
ATOM      7  C   LIG    1       -2.010  -1.109   1.884  0.00  0.00    +0.050 A 
BRANCH   5   8
ATOM      8  C   LIG    1       -1.411  -1.702   5.564  0.00  0.00    +0.230 C 
BRANCH   8   9
ATOM      9  O   LIG    1       -0.003  -1.812   5.780  0.00  0.00    -0.390 OA
ATOM     10  C   LIG    1        0.348  -2.460   7.004  0.00  0.00    +0.220 C 
ENDBRANCH   8   9
ENDBRANCH   5   8
ENDBRANCH   1   2
BRANCH   1  13
ATOM     11  N   LIG    1       -0.210   0.721  -0.624  0.00  0.00    -0.690 N 
ATOM     12  H   LIG    1       -0.408  -0.222  -0.734  0.00  0.00    +0.410 HD
ATOM     13  C   LIG    1       -1.091   1.527   0.001  0.00  0.00    +0.510 C 
ATOM     14  O   LIG    1       -0.843   2.706   0.139  0.00  0.00    -0.520 OA
BRANCH  11  15
ATOM     15  C   LIG    1        1.045   1.271  -1.142  0.00  0.00    +0.310 C 
BRANCH  15  16
ATOM     16  C   LIG    1        1.855   0.155  -1.806  0.00  0.00    +0.180 C 
BRANCH  16  17
ATOM     17  O   LIG    1        1.151  -0.327  -2.953  0.00  0.00    -0.390 OA
BRANCH  17  19
ATOM     18  C   LIG    1        0.984  -1.812  -4.852  0.00  0.00    +0.050 C 
ATOM     19  C   LIG    1        1.825  -1.377  -3.650  0.00  0.00    +0.160 C 
ENDBRANCH  17  19
ENDBRANCH  16  17
ENDBRANCH  15  16
ENDBRANCH  11  15
ENDBRANCH   1  13
BRANCH   1  20
ATOM     20  N   LIG    1       -3.349   2.053   0.730  0.00  0.00    -0.370 N 
ATOM     21  C   LIG    1       -4.589   1.511   1.300  0.00  0.00    +0.340 C 
ATOM     22  H   LIG    1       -2.958   2.735   1.363  0.00  0.00    +0.430 HD
BRANCH  20  23
ATOM     23  C   LIG    1       -3.641   2.692  -0.559  0.00  0.00    +0.260 C 
BRANCH  23  24
ATOM     24  C   LIG    1       -4.569   3.888  -0.337  0.00  0.00    +0.020 C 
BRANCH  24  25
ATOM     25  C   LIG    1       -4.874   4.554  -1.681  0.00  0.00    +0.300 C 
BRANCH  25  26
ATOM     26  N   LIG    1       -5.763   5.699  -1.468  0.00  0.00    -0.620 N 
ATOM     27  C   LIG    1       -5.244   6.921  -1.235  0.00  0.00    +0.600 C 
ATOM     28  O   LIG    1       -4.039   7.065  -1.158  0.00  0.00    -0.540 OA
ATOM     29  C   LIG    1       -7.216   5.515  -1.507  0.00  0.00    +0.290 C 
BRANCH  27  30
ATOM     30  C   LIG    1       -6.137   8.082  -1.074  0.00  0.00    -0.310 A 
ATOM     31  C   LIG    1       -5.779   9.412  -1.175  0.00  0.00    +0.330 A 
ATOM     32  N   LIG    1       -6.885  10.143  -0.962  0.00  0.00    -0.330 N 
ATOM     33  N   LIG    1       -7.954   9.272  -0.724  0.00  0.00    -0.280 NA
ATOM     34  C   LIG    1       -7.522   8.043  -0.794  0.00  0.00    +0.260 A 
BRANCH  32  35
ATOM     35  C   LIG    1       -6.960  11.606  -0.976  0.00  0.00    +0.220 C 
ATOM     36  C   LIG    1       -5.645  12.381  -0.872  0.00  0.00    +0.060 C 
ATOM     37  C   LIG    1       -6.607  12.344   0.317  0.00  0.00    +0.050 C 
ENDBRANCH  32  35
ENDBRANCH  27  30
ENDBRANCH  25  26
ENDBRANCH  24  25
ENDBRANCH  23  24
ENDBRANCH  20  23
ENDBRANCH   1  20
TORSDOF 15
