REMARK  Name = ZINCkj00000GeSXD.0
REMARK                            x       y       z     vdW  Elec       q    Type
REMARK                         _______ _______ _______ _____ _____    ______ ____
ROOT
ATOM      1  N   LIG    1        2.929   1.132  -1.882  0.00  0.00    -0.750 N 
ATOM      2  H   LIG    1        3.129   0.301  -1.423  0.00  0.00    +0.400 HD
ATOM      3  C   LIG    1        3.713   1.548  -2.896  0.00  0.00    +0.700 C 
ATOM      4  N   LIG    1        4.776   0.809  -3.272  0.00  0.00    -0.740 N 
ATOM      5  H   LIG    1        4.977  -0.021  -2.813  0.00  0.00    +0.400 HD
ATOM      6  O   LIG    1        3.462   2.589  -3.471  0.00  0.00    -0.580 OA
ENDROOT
BRANCH   4   7
ATOM      7  C   LIG    1        5.629   1.262  -4.374  0.00  0.00    +0.250 C 
ATOM      8  C   LIG    1        7.028   0.662  -4.216  0.00  0.00    +0.020 C 
ATOM      9  C   LIG    1        7.919   1.135  -5.367  0.00  0.00    +0.030 C 
ATOM     10  C   LIG    1        7.317   0.679  -6.697  0.00  0.00    -0.010 C 
ATOM     11  C   LIG    1        5.918   1.278  -6.856  0.00  0.00    +0.020 C 
ATOM     12  C   LIG    1        5.027   0.806  -5.705  0.00  0.00    +0.000 C 
BRANCH  10  13
ATOM     13  C   LIG    1        8.207   1.152  -7.848  0.00  0.00    +0.180 C 
BRANCH  13  14
ATOM     14  O   LIG    1        7.710   0.628  -9.081  0.00  0.00    -0.570 OA
ATOM     15  H   LIG    1        8.227   0.888  -9.856  0.00  0.00    +0.380 HD
ENDBRANCH  13  14
ENDBRANCH  10  13
ENDBRANCH   4   7
BRANCH   1  19
ATOM     16  C   LIG    1       -0.013   1.086   0.008  0.00  0.00    +0.170 C 
ATOM     17  C   LIG    1       -0.641   1.627  -1.301  0.00  0.00    +0.050 C 
ATOM     18  C   LIG    1        0.535   1.540  -2.305  0.00  0.00    +0.050 C 
ATOM     19  C   LIG    1        1.773   1.934  -1.473  0.00  0.00    +0.280 C 
ATOM     20  C   LIG    1        1.425   1.645  -0.003  0.00  0.00    +0.050 C 
BRANCH  16  22
ATOM     21  C   LIG    1       -2.126   1.072   1.143  0.00  0.00    +0.320 C 
ATOM     22  N   LIG    1       -0.749   1.582   1.178  0.00  0.00    -0.380 N 
ATOM     23  C   LIG    1       -0.087   1.120   2.405  0.00  0.00    +0.320 C 
ATOM     24  H   LIG    1       -0.763   2.591   1.163  0.00  0.00    +0.430 HD
ENDBRANCH  16  22
ENDBRANCH   1  19
TORSDOF 5
