REMARK  Name = ZINCvU0000000478.0
REMARK                            x       y       z     vdW  Elec       q    Type
REMARK                         _______ _______ _______ _____ _____    ______ ____
ROOT
ATOM      1  N   LIG    1        1.631  -2.456   0.124  0.00  0.00    -0.460 N 
ATOM      2  C   LIG    1        0.712  -1.951  -0.904  0.00  0.00    +0.230 C 
ATOM      3  C   LIG    1        0.697  -0.421  -0.870  0.00  0.00    +0.060 C 
ATOM      4  C   LIG    1        0.249   0.050   0.516  0.00  0.00    +0.120 C 
ATOM      5  C   LIG    1        1.195  -0.529   1.573  0.00  0.00    +0.070 C 
ATOM      6  C   LIG    1        1.196  -2.056   1.468  0.00  0.00    +0.220 C 
ENDROOT
BRANCH   1  11
ATOM      7  C   LIG    1        2.168  -7.992  -0.252  0.00  0.00    +0.120 C 
ATOM      8  C   LIG    1        2.025  -6.495  -0.148  0.00  0.00    -0.210 A 
ATOM      9  C   LIG    1        1.205  -5.801  -1.020  0.00  0.00    +0.350 A 
ATOM     10  N   LIG    1        1.100  -4.487  -0.902  0.00  0.00    -0.550 NA
ATOM     11  C   LIG    1        1.768  -3.830   0.035  0.00  0.00    +0.490 A 
ATOM     12  N   LIG    1        2.568  -4.455   0.886  0.00  0.00    -0.510 NA
ATOM     13  C   LIG    1        2.717  -5.776   0.830  0.00  0.00    +0.240 A 
BRANCH  13  14
ATOM     14  C   LIG    1        3.608  -6.474   1.788  0.00  0.00    -0.090 A 
ATOM     15  C   LIG    1        4.568  -7.371   1.324  0.00  0.00    +0.080 A 
ATOM     16  C   LIG    1        5.395  -8.018   2.220  0.00  0.00    +0.010 A 
ATOM     17  C   LIG    1        5.273  -7.779   3.577  0.00  0.00    +0.070 A 
ATOM     18  C   LIG    1        4.322  -6.891   4.045  0.00  0.00    -0.020 A 
ATOM     19  C   LIG    1        3.492  -6.231   3.158  0.00  0.00    +0.140 A 
ATOM     20  F   LIG    1        2.567  -5.359   3.615  0.00  0.00    -0.130 F 
ENDBRANCH  13  14
ENDBRANCH   1  11
BRANCH   4  21
ATOM     21  C   LIG    1        0.290   1.555   0.575  0.00  0.00    +0.190 A 
ATOM     22  N   LIG    1       -0.723   2.352   0.808  0.00  0.00    -0.470 NA
ATOM     23  C   LIG    1       -0.215   3.605   0.767  0.00  0.00    +0.210 A 
ATOM     24  N   LIG    1        1.061   3.496   0.505  0.00  0.00    -0.370 NA
ATOM     25  O   LIG    1        1.365   2.328   0.392  0.00  0.00    +0.090 OA
BRANCH  23  26
ATOM     26  C   LIG    1       -0.968   4.867   0.974  0.00  0.00    -0.030 A 
ATOM     27  C   LIG    1       -2.335   4.830   1.242  0.00  0.00    +0.060 A 
ATOM     28  C   LIG    1       -3.029   6.007   1.440  0.00  0.00    +0.010 A 
ATOM     29  C   LIG    1       -2.372   7.222   1.361  0.00  0.00    +0.030 A 
ATOM     30  C   LIG    1       -1.016   7.264   1.090  0.00  0.00    +0.010 A 
ATOM     31  C   LIG    1       -0.311   6.093   0.896  0.00  0.00    +0.050 A 
ENDBRANCH  23  26
ENDBRANCH   4  21
TORSDOF 4
