REMARK  Name = ZINCpk000005nBqi.0
REMARK                            x       y       z     vdW  Elec       q    Type
REMARK                         _______ _______ _______ _____ _____    ______ ____
ROOT
ATOM      1  C   LIG    1       -2.508   6.063  -2.313  0.00  0.00    +0.250 C 
ATOM      2  C   LIG    1       -1.508   5.010  -2.785  0.00  0.00    +0.240 C 
ATOM      3  N   LIG    1       -1.799   3.737  -2.111  0.00  0.00    -0.600 N 
ATOM      4  C   LIG    1       -3.163   3.196  -2.182  0.00  0.00    +0.270 C 
ATOM      5  C   LIG    1       -4.146   4.272  -1.713  0.00  0.00    +0.020 C 
ATOM      6  C   LIG    1       -0.834   3.082  -1.435  0.00  0.00    +0.540 C 
ATOM      7  O   LIG    1        0.288   3.540  -1.383  0.00  0.00    -0.520 OA
ATOM      8  C   LIG    1       -1.635   4.829  -4.299  0.00  0.00    +0.060 C 
ATOM      9  C   LIG    1       -3.932   5.546  -2.533  0.00  0.00    -0.010 C 
ATOM     10  C   LIG    1       -4.935   6.613  -2.090  0.00  0.00    +0.030 C 
ENDROOT
BRANCH   6  11
ATOM     11  C   LIG    1       -1.150   1.781  -0.743  0.00  0.00    -0.050 C 
ATOM     12  C   LIG    1       -0.013   1.086   0.008  0.00  0.00    +0.140 C 
ATOM     13  C   LIG    1       -1.136   1.773   0.788  0.00  0.00    +0.220 C 
ATOM     14  F   LIG    1       -0.830   2.974   1.437  0.00  0.00    -0.150 F 
ATOM     15  F   LIG    1       -2.065   0.954   1.439  0.00  0.00    -0.150 F 
ENDBRANCH   6  11
BRANCH   1  17
ATOM     16  C   LIG    1       -2.671   7.511  -0.360  0.00  0.00    +0.590 C 
ATOM     17  N   LIG    1       -2.299   6.328  -0.888  0.00  0.00    -0.720 N 
ATOM     18  H   LIG    1       -1.892   5.652  -0.324  0.00  0.00    +0.400 HD
ATOM     19  O   LIG    1       -3.181   8.359  -1.067  0.00  0.00    -0.500 OA
BRANCH  16  24
ATOM     20  C   LIG    1       -2.419   8.763   3.084  0.00  0.00    +0.260 A 
ATOM     21  N   LIG    1       -1.892   7.570   3.225  0.00  0.00    -0.310 NA
ATOM     22  N   LIG    1       -1.903   6.923   1.983  0.00  0.00    -0.450 N 
ATOM     23  H   LIG    1       -1.573   6.030   1.801  0.00  0.00    +0.440 HD
ATOM     24  C   LIG    1       -2.461   7.776   1.072  0.00  0.00    +0.050 A 
ATOM     25  C   LIG    1       -2.784   8.936   1.747  0.00  0.00    -0.010 A 
BRANCH  20  27
ATOM     26  C   LIG    1       -2.132   9.312   5.380  0.00  0.00    +0.250 C 
ATOM     27  O   LIG    1       -2.578   9.682   4.074  0.00  0.00    -0.290 OA
ENDBRANCH  20  27
ENDBRANCH  16  24
ENDBRANCH   1  17
TORSDOF 4
