REMARK  Name = ZINCrD0000071bOF.0
REMARK                            x       y       z     vdW  Elec       q    Type
REMARK                         _______ _______ _______ _____ _____    ______ ____
ROOT
ATOM      1  C   LIG    1       -0.013   1.086   0.008  0.00  0.00    +0.260 C 
ATOM      2  C   LIG    1       -0.756   1.594   1.262  0.00  0.00    +0.050 C 
ATOM      3  C   LIG    1       -2.185   1.874   0.728  0.00  0.00    +0.040 C 
ATOM      4  C   LIG    1       -1.888   2.391  -0.701  0.00  0.00    +0.250 C 
ATOM      5  N   LIG    1       -0.743   1.582  -1.167  0.00  0.00    -0.610 N 
ATOM      6  C   LIG    1       -0.420   1.339  -2.453  0.00  0.00    +0.520 C 
ATOM      7  O   LIG    1        0.547   0.658  -2.717  0.00  0.00    -0.510 OA
ENDROOT
BRANCH   1  11
ATOM      8  C   LIG    1        3.984   2.592  -0.022  0.00  0.00    -0.070 A 
ATOM      9  C   LIG    1        3.740   1.289   0.369  0.00  0.00    +0.010 A 
ATOM     10  C   LIG    1        2.446   0.802   0.379  0.00  0.00    +0.020 A 
ATOM     11  C   LIG    1        1.397   1.617  -0.003  0.00  0.00    -0.090 A 
ATOM     12  C   LIG    1        1.643   2.919  -0.399  0.00  0.00    +0.010 A 
ATOM     13  C   LIG    1        2.936   3.408  -0.405  0.00  0.00    +0.000 A 
BRANCH   8  15
ATOM     14  C   LIG    1        6.249   2.286  -0.984  0.00  0.00    +0.040 C 
ATOM     15  C   LIG    1        5.394   3.124  -0.032  0.00  0.00    -0.030 C 
ATOM     16  C   LIG    1        5.978   3.047   1.380  0.00  0.00    +0.040 C 
ATOM     17  C   LIG    1        5.387   4.580  -0.502  0.00  0.00    +0.040 C 
ENDBRANCH   8  15
ENDBRANCH   1  11
BRANCH   6  18
ATOM     18  C   LIG    1       -1.262   1.915  -3.563  0.00  0.00    +0.340 C 
BRANCH  18  19
ATOM     19  N   LIG    1       -0.708   1.509  -4.857  0.00  0.00    -0.470 N 
ATOM     20  C   LIG    1       -1.130   0.365  -5.430  0.00  0.00    +0.380 A 
ATOM     21  C   LIG    1       -0.621  -0.035  -6.649  0.00  0.00    -0.130 A 
ATOM     22  C   LIG    1        0.351   0.766  -7.295  0.00  0.00    +0.160 A 
ATOM     23  C   LIG    1        0.762   1.916  -6.698  0.00  0.00    -0.070 A 
ATOM     24  C   LIG    1        0.211   2.288  -5.457  0.00  0.00    +0.520 A 
ATOM     25  O   LIG    1        0.573   3.321  -4.919  0.00  0.00    -0.530 OA
BRANCH  21  26
ATOM     26  C   LIG    1       -1.072  -1.252  -7.254  0.00  0.00    +0.260 C 
ATOM     27  N   LIG    1       -1.430  -2.217  -7.734  0.00  0.00    -0.410 NA
ENDBRANCH  21  26
ENDBRANCH  18  19
ENDBRANCH   6  18
TORSDOF 5
