REMARK  Name = ZINCrH00000tj0ZE.0
REMARK                            x       y       z     vdW  Elec       q    Type
REMARK                         _______ _______ _______ _____ _____    ______ ____
ROOT
ATOM      1  C   LIG    1       -1.644  -1.230  -1.544  0.00  0.00    -0.270 C 
ATOM      2  C   LIG    1       -2.792  -0.736  -2.055  0.00  0.00    +0.250 C 
ATOM      3  N   LIG    1       -3.547   0.161  -1.355  0.00  0.00    -0.540 N 
ATOM      4  C   LIG    1       -3.223   0.615  -0.138  0.00  0.00    +0.710 C 
ATOM      5  N   LIG    1       -2.107   0.214   0.502  0.00  0.00    -0.700 N 
ATOM      6  H   LIG    1       -1.891   0.555   1.384  0.00  0.00    +0.440 HD
ATOM      7  O   LIG    1       -3.958   1.414   0.407  0.00  0.00    -0.540 OA
ATOM      8  C   LIG    1       -3.248  -1.183  -3.420  0.00  0.00    +0.160 C 
ATOM      9  C   LIG    1       -1.223  -0.755  -0.168  0.00  0.00    +0.320 C 
ENDROOT
BRANCH   9  10
ATOM     10  C   LIG    1        0.143  -0.130  -0.290  0.00  0.00    -0.060 A 
ATOM     11  C   LIG    1        0.345   0.924  -1.161  0.00  0.00    +0.030 A 
ATOM     12  C   LIG    1        1.599   1.497  -1.273  0.00  0.00    +0.040 A 
ATOM     13  C   LIG    1        2.649   1.015  -0.515  0.00  0.00    +0.030 A 
ATOM     14  C   LIG    1        2.446  -0.039   0.356  0.00  0.00    +0.070 A 
ATOM     15  C   LIG    1        1.194  -0.612   0.469  0.00  0.00    -0.160 A 
BRANCH  15  16
ATOM     16  C   LIG    1        0.973  -1.760   1.419  0.00  0.00    +0.500 C 
ATOM     17  F   LIG    1        0.629  -2.906   0.693  0.00  0.00    -0.160 F 
ATOM     18  F   LIG    1       -0.063  -1.441   2.303  0.00  0.00    -0.180 F 
ATOM     19  F   LIG    1        2.146  -2.000   2.142  0.00  0.00    -0.180 F 
ENDBRANCH  15  16
ENDBRANCH   9  10
BRANCH   1  20
ATOM     20  C   LIG    1       -0.862  -2.160  -2.268  0.00  0.00    +0.530 C 
ATOM     21  O   LIG    1       -1.166  -2.453  -3.409  0.00  0.00    -0.510 OA
BRANCH  20  23
ATOM     22  C   LIG    1        1.029  -3.566  -2.516  0.00  0.00    +0.260 C 
ATOM     23  O   LIG    1        0.221  -2.723  -1.692  0.00  0.00    -0.340 OA
ENDBRANCH  20  23
ENDBRANCH   1  20
BRANCH   3  24
ATOM     24  C   LIG    1       -4.781   0.656  -1.971  0.00  0.00    +0.360 C 
BRANCH  24  25
ATOM     25  C   LIG    1       -5.933  -0.294  -1.639  0.00  0.00    +0.440 C 
ATOM     26  F   LIG    1       -5.644  -1.569  -2.136  0.00  0.00    -0.180 F 
ATOM     27  F   LIG    1       -7.111   0.179  -2.228  0.00  0.00    -0.170 F 
ATOM     28  F   LIG    1       -6.099  -0.360  -0.252  0.00  0.00    -0.170 F 
ENDBRANCH  24  25
ENDBRANCH   3  24
TORSDOF 6
