REMARK  Name = ZINCkj00000y7O3u.1
REMARK                            x       y       z     vdW  Elec       q    Type
REMARK                         _______ _______ _______ _____ _____    ______ ____
ROOT
ATOM      1  C   LIG    1        1.358   6.039   2.845  0.00  0.00    +0.170 C 
ATOM      2  C   LIG    1        0.096   5.408   3.438  0.00  0.00    +0.070 C 
ATOM      3  C   LIG    1        0.195   3.884   3.321  0.00  0.00    +0.070 C 
ATOM      4  C   LIG    1        0.398   3.503   1.853  0.00  0.00    +0.240 C 
ATOM      5  N   LIG    1        1.634   4.116   1.352  0.00  0.00    -0.380 N 
ATOM      6  H   LIG    1        2.409   3.824   1.928  0.00  0.00    +0.420 HD
ATOM      7  C   LIG    1        1.518   5.578   1.394  0.00  0.00    +0.270 C 
ENDROOT
BRANCH   1   9
ATOM      8  C   LIG    1        3.758   6.038   3.265  0.00  0.00    +0.550 C 
ATOM      9  N   LIG    1        2.527   5.622   3.622  0.00  0.00    -0.730 N 
ATOM     10  H   LIG    1        2.415   5.045   4.394  0.00  0.00    +0.410 HD
ATOM     11  O   LIG    1        3.890   6.836   2.356  0.00  0.00    -0.530 OA
BRANCH   8  13
ATOM     12  C   LIG    1        6.156   5.940   3.621  0.00  0.00    +0.180 C 
ATOM     13  C   LIG    1        4.942   5.529   3.974  0.00  0.00    -0.110 C 
ENDBRANCH   8  13
ENDBRANCH   1   9
BRANCH   5  14
ATOM     14  C   LIG    1        1.865   3.684  -0.034  0.00  0.00    +0.320 C 
BRANCH  14  15
ATOM     15  C   LIG    1        2.107   2.197  -0.063  0.00  0.00    -0.160 A 
ATOM     16  C   LIG    1        1.043   1.327  -0.214  0.00  0.00    +0.030 A 
ATOM     17  C   LIG    1        1.264  -0.037  -0.241  0.00  0.00    +0.030 A 
ATOM     18  C   LIG    1        2.550  -0.531  -0.117  0.00  0.00    +0.060 A 
ATOM     19  C   LIG    1        3.613   0.339   0.033  0.00  0.00    +0.030 A 
ATOM     20  C   LIG    1        3.392   1.703   0.059  0.00  0.00    +0.040 A 
ENDBRANCH  14  15
ENDBRANCH   5  14
BRANCH   1  21
ATOM     21  C   LIG    1        1.235   7.564   2.885  0.00  0.00    +0.210 C 
BRANCH  21  22
ATOM     22  O   LIG    1        1.211   8.003   4.245  0.00  0.00    -0.560 OA
ATOM     23  H   LIG    1        1.135   8.962   4.347  0.00  0.00    +0.400 HD
ENDBRANCH  21  22
ENDBRANCH   1  21
TORSDOF 6
