REMARK  Name = ZINCkj00000y7O3u.0
REMARK                            x       y       z     vdW  Elec       q    Type
REMARK                         _______ _______ _______ _____ _____    ______ ____
ROOT
ATOM      1  C   LIG    1       -0.004  -0.015  -0.001  0.00  0.00    +0.170 C 
ATOM      2  C   LIG    1       -0.015   1.494  -0.264  0.00  0.00    +0.060 C 
ATOM      3  C   LIG    1        1.421   1.972  -0.494  0.00  0.00    +0.070 C 
ATOM      4  C   LIG    1        2.035   1.186  -1.655  0.00  0.00    +0.250 C 
ATOM      5  N   LIG    1        2.040  -0.246  -1.331  0.00  0.00    -0.380 N 
ATOM      6  H   LIG    1        2.543  -0.392  -0.469  0.00  0.00    +0.420 HD
ATOM      7  C   LIG    1        0.662  -0.728  -1.179  0.00  0.00    +0.270 C 
ENDROOT
BRANCH   1   9
ATOM      8  C   LIG    1       -1.617  -1.804   0.363  0.00  0.00    +0.560 C 
ATOM      9  N   LIG    1       -1.380  -0.495   0.149  0.00  0.00    -0.710 N 
ATOM     10  H   LIG    1       -2.121   0.129   0.093  0.00  0.00    +0.420 HD
ATOM     11  O   LIG    1       -0.688  -2.572   0.527  0.00  0.00    -0.550 OA
BRANCH   8  13
ATOM     12  C   LIG    1       -3.234  -3.598   0.609  0.00  0.00    +0.170 C 
ATOM     13  C   LIG    1       -3.000  -2.305   0.398  0.00  0.00    -0.100 C 
ENDBRANCH   8  13
ENDBRANCH   1   9
BRANCH   5  14
ATOM     14  C   LIG    1        2.700  -0.988  -2.413  0.00  0.00    +0.320 C 
BRANCH  14  15
ATOM     15  C   LIG    1        4.149  -0.583  -2.490  0.00  0.00    -0.160 A 
ATOM     16  C   LIG    1        4.530   0.471  -3.300  0.00  0.00    +0.030 A 
ATOM     17  C   LIG    1        5.859   0.846  -3.367  0.00  0.00    +0.030 A 
ATOM     18  C   LIG    1        6.808   0.162  -2.631  0.00  0.00    +0.060 A 
ATOM     19  C   LIG    1        6.428  -0.895  -1.824  0.00  0.00    +0.030 A 
ATOM     20  C   LIG    1        5.099  -1.267  -1.754  0.00  0.00    +0.040 A 
ENDBRANCH  14  15
ENDBRANCH   5  14
BRANCH   1  21
ATOM     21  C   LIG    1        0.779  -0.304   1.281  0.00  0.00    +0.170 C 
BRANCH  21  22
ATOM     22  O   LIG    1        0.091   0.262   2.398  0.00  0.00    -0.550 OA
ATOM     23  H   LIG    1        0.532   0.117   3.247  0.00  0.00    +0.390 HD
ENDBRANCH  21  22
ENDBRANCH   1  21
TORSDOF 6
