REMARK  Name = ZINCnE00000hdcR5.0
REMARK                            x       y       z     vdW  Elec       q    Type
REMARK                         _______ _______ _______ _____ _____    ______ ____
ROOT
ATOM      1  N   LIG    1       -0.541   3.614   1.177  0.00  0.00    -0.600 N 
ATOM      2  C   LIG    1       -1.684   4.216   0.796  0.00  0.00    +0.570 C 
ATOM      3  C   LIG    1       -1.771   5.691   0.829  0.00  0.00    -0.160 A 
ATOM      4  C   LIG    1       -2.997   6.339   0.701  0.00  0.00    +0.060 A 
ATOM      5  C   LIG    1       -3.048   7.718   0.750  0.00  0.00    -0.030 A 
ATOM      6  C   LIG    1       -1.888   8.451   0.926  0.00  0.00    +0.030 A 
ATOM      7  C   LIG    1       -0.666   7.812   1.048  0.00  0.00    +0.030 A 
ATOM      8  C   LIG    1       -0.601   6.436   0.993  0.00  0.00    +0.010 A 
ATOM      9  C   LIG    1        0.723   5.725   1.085  0.00  0.00    -0.050 C 
ATOM     10  O   LIG    1       -2.635   3.553   0.430  0.00  0.00    -0.540 OA
ATOM     11  C   LIG    1        0.546   4.377   1.787  0.00  0.00    +0.320 C 
ENDROOT
BRANCH  11  12
ATOM     12  C   LIG    1        0.233   4.608   3.243  0.00  0.00    -0.080 A 
ATOM     13  C   LIG    1       -0.993   4.910   3.674  0.00  0.00    -0.040 A 
ATOM     14  S   LIG    1       -0.973   5.103   5.422  0.00  0.00    +0.060 S 
ATOM     15  C   LIG    1        0.752   4.762   5.469  0.00  0.00    -0.050 A 
ATOM     16  C   LIG    1        1.196   4.529   4.233  0.00  0.00    +0.040 A 
ENDBRANCH  11  12
BRANCH   9  17
ATOM     17  C   LIG    1        1.690   6.571   1.874  0.00  0.00    +0.510 C 
ATOM     18  O   LIG    1        2.836   6.712   1.482  0.00  0.00    -0.690 OA
ATOM     19  O   LIG    1        1.326   7.113   2.904  0.00  0.00    -0.660 OA
ENDBRANCH   9  17
BRANCH   1  20
ATOM     20  C   LIG    1       -0.387   2.170   0.982  0.00  0.00    +0.320 C 
BRANCH  20  21
ATOM     21  C   LIG    1        0.226   1.904  -0.394  0.00  0.00    +0.070 C 
BRANCH  21  23
ATOM     22  C   LIG    1        1.146   0.003  -2.292  0.00  0.00    +0.140 C 
ATOM     23  S   LIG    1        0.417   0.116  -0.635  0.00  0.00    -0.260 S 
ENDBRANCH  21  23
ENDBRANCH  20  21
ENDBRANCH   1  20
TORSDOF 5
