REMARK  Name = ZINCqH0000007C4y.0
REMARK                            x       y       z     vdW  Elec       q    Type
REMARK                         _______ _______ _______ _____ _____    ______ ____
ROOT
ATOM      1  C   LIG    1        4.696  -1.771  -0.052  0.00  0.00    +0.230 C 
ENDROOT
BRANCH   1   5
ATOM      2  C   LIG    1        2.532   1.098  -0.016  0.00  0.00    +0.220 A 
ATOM      3  N   LIG    1        3.724   1.634  -0.033  0.00  0.00    -0.360 NA
ATOM      4  O   LIG    1        4.571   0.765  -0.046  0.00  0.00    +0.100 OA
ATOM      5  C   LIG    1        3.992  -0.439  -0.040  0.00  0.00    +0.200 A 
ATOM      6  N   LIG    1        2.697  -0.244  -0.015  0.00  0.00    -0.450 NA
BRANCH   2  11
ATOM      7  C   LIG    1        0.012   3.894   0.028  0.00  0.00    +0.130 A 
ATOM      8  C   LIG    1       -1.179   3.182   0.044  0.00  0.00    -0.050 A 
ATOM      9  C   LIG    1       -1.163   1.800   0.036  0.00  0.00    +0.060 A 
ATOM     10  C   LIG    1        0.038   1.120   0.022  0.00  0.00    +0.030 A 
ATOM     11  C   LIG    1        1.239   1.827   0.005  0.00  0.00    +0.010 A 
ATOM     12  C   LIG    1        1.222   3.219   0.008  0.00  0.00    +0.020 A 
BRANCH   7  14
ATOM     13  C   LIG    1       -1.291   5.882   0.051  0.00  0.00    +0.250 C 
ATOM     14  O   LIG    1       -0.008   5.253   0.030  0.00  0.00    -0.310 OA
ENDBRANCH   7  14
ENDBRANCH   2  11
ENDBRANCH   1   5
BRANCH   1  15
ATOM     15  S   LIG    1        4.953  -2.304  -1.767  0.00  0.00    -0.120 S 
BRANCH  15  16
ATOM     16  C   LIG    1        5.798  -3.897  -1.578  0.00  0.00    +0.100 C 
BRANCH  16  17
ATOM     17  C   LIG    1        6.086  -4.478  -2.938  0.00  0.00    +0.540 C 
ATOM     18  N   LIG    1        6.713  -5.667  -3.045  0.00  0.00    -0.670 N 
ATOM     19  H   LIG    1        7.036  -6.117  -2.249  0.00  0.00    +0.420 HD
ATOM     20  O   LIG    1        5.753  -3.876  -3.937  0.00  0.00    -0.490 OA
BRANCH  18  21
ATOM     21  C   LIG    1        6.897  -6.251  -4.304  0.00  0.00    +0.110 A 
ATOM     22  C   LIG    1        7.131  -5.451  -5.414  0.00  0.00    +0.060 A 
ATOM     23  C   LIG    1        7.313  -6.030  -6.655  0.00  0.00    +0.030 A 
ATOM     24  C   LIG    1        7.261  -7.405  -6.793  0.00  0.00    +0.040 A 
ATOM     25  C   LIG    1        7.027  -8.206  -5.691  0.00  0.00    +0.000 A 
ATOM     26  C   LIG    1        6.850  -7.634  -4.444  0.00  0.00    +0.070 A 
ATOM     27  F   LIG    1        6.627  -8.416  -3.366  0.00  0.00    -0.140 F 
ENDBRANCH  18  21
ENDBRANCH  16  17
ENDBRANCH  15  16
ENDBRANCH   1  15
TORSDOF 7
