REMARK  Name = ZINCvU0000000IMM.0
REMARK                            x       y       z     vdW  Elec       q    Type
REMARK                         _______ _______ _______ _____ _____    ______ ____
ROOT
ATOM      1  N   LIG    1       -0.286   1.170  -3.877  0.00  0.00    -0.510 N 
ATOM      2  C   LIG    1        0.586   0.632  -4.751  0.00  0.00    +0.570 A 
ATOM      3  C   LIG    1        1.645  -0.186  -4.251  0.00  0.00    -0.230 A 
ATOM      4  C   LIG    1        1.726  -0.384  -2.879  0.00  0.00    +0.090 A 
ATOM      5  S   LIG    1        3.099  -1.417  -2.513  0.00  0.00    +0.190 S 
ATOM      6  C   LIG    1        3.536  -1.564  -4.207  0.00  0.00    -0.200 A 
ATOM      7  C   LIG    1        4.717  -2.369  -4.721  0.00  0.00    +0.120 C 
ATOM      8  C   LIG    1        4.539  -2.603  -6.223  0.00  0.00    +0.020 C 
ATOM      9  C   LIG    1        4.229  -1.265  -6.901  0.00  0.00    +0.020 C 
ATOM     10  C   LIG    1        2.823  -0.815  -6.502  0.00  0.00    +0.110 C 
ATOM     11  N   LIG    1        0.818   0.193  -2.065  0.00  0.00    -0.510 NA
ATOM     12  C   LIG    1        2.698  -0.877  -4.985  0.00  0.00    -0.030 A 
ATOM     13  O   LIG    1        0.471   0.836  -5.947  0.00  0.00    -0.510 OA
ATOM     14  C   LIG    1       -0.148   0.942  -2.538  0.00  0.00    +0.370 A 
ENDROOT
BRANCH   1  15
ATOM     15  C   LIG    1       -1.384   2.009  -4.365  0.00  0.00    +0.220 C 
ATOM     16  C   LIG    1       -0.812   3.201  -5.134  0.00  0.00    +0.060 C 
BRANCH  15  18
ATOM     17  C   LIG    1       -2.919   0.043  -4.501  0.00  0.00    +0.020 C 
ATOM     18  C   LIG    1       -2.281   1.186  -5.292  0.00  0.00    +0.040 C 
ENDBRANCH  15  18
ENDBRANCH   1  15
BRANCH  14  19
ATOM     19  S   LIG    1       -1.302   1.665  -1.420  0.00  0.00    +0.030 S 
BRANCH  19  20
ATOM     20  C   LIG    1       -0.654   1.037   0.149  0.00  0.00    +0.210 C 
BRANCH  20  21
ATOM     21  C   LIG    1       -1.509   1.542   1.284  0.00  0.00    +0.070 A 
ATOM     22  C   LIG    1       -1.310   2.688   1.969  0.00  0.00    +0.120 A 
ATOM     23  N   LIG    1       -2.304   2.773   2.906  0.00  0.00    -0.400 N 
ATOM     24  C   LIG    1       -2.600   3.703   3.860  0.00  0.00    +0.150 A 
ATOM     25  C   LIG    1       -3.673   3.503   4.664  0.00  0.00    -0.030 A 
ATOM     26  C   LIG    1       -4.452   2.349   4.497  0.00  0.00    +0.210 A 
ATOM     27  N   LIG    1       -4.145   1.470   3.571  0.00  0.00    -0.440 NA
ATOM     28  C   LIG    1       -5.647   2.116   5.385  0.00  0.00    +0.160 C 
ATOM     29  C   LIG    1       -1.746   4.934   4.017  0.00  0.00    +0.160 C 
ATOM     30  C   LIG    1       -3.087   1.655   2.769  0.00  0.00    +0.400 A 
ATOM     31  N   LIG    1       -2.585   0.927   1.782  0.00  0.00    -0.460 NA
ENDBRANCH  20  21
ENDBRANCH  19  20
ENDBRANCH  14  19
TORSDOF 5
