REMARK  Name = ZINCpe000000WsB4.0
REMARK                            x       y       z     vdW  Elec       q    Type
REMARK                         _______ _______ _______ _____ _____    ______ ____
ROOT
ATOM      1  C   LIG    1       -0.054   4.115   0.026  0.00  0.00    +0.090 A 
ATOM      2  C   LIG    1       -1.246   3.409   0.034  0.00  0.00    -0.030 A 
ATOM      3  C   LIG    1       -1.227   2.028   0.019  0.00  0.00    -0.050 A 
ATOM      4  C   LIG    1       -0.016   1.356   0.009  0.00  0.00    +0.120 A 
ATOM      5  C   LIG    1        1.181   2.064   0.002  0.00  0.00    -0.080 A 
ATOM      6  C   LIG    1        2.474   1.290  -0.010  0.00  0.00    +0.200 C 
ATOM      7  C   LIG    1        3.626   2.203  -0.431  0.00  0.00    +0.200 C 
ATOM      8  N   LIG    1        3.576   3.425   0.388  0.00  0.00    -0.520 NA
ATOM      9  C   LIG    1        2.432   4.253  -0.005  0.00  0.00    +0.290 C 
ATOM     10  C   LIG    1        1.163   3.441   0.009  0.00  0.00    -0.100 A 
ENDROOT
BRANCH   1  12
ATOM     11  C   LIG    1       -1.357   6.105   0.054  0.00  0.00    +0.240 C 
ATOM     12  O   LIG    1       -0.074   5.475   0.036  0.00  0.00    -0.310 OA
ENDBRANCH   1  12
BRANCH   6  13
ATOM     13  O   LIG    1        2.369   0.205  -0.935  0.00  0.00    -0.540 OA
ATOM     14  H   LIG    1        3.166  -0.339  -0.996  0.00  0.00    +0.380 HD
ENDBRANCH   6  13
BRANCH   4  15
ATOM     15  O   LIG    1        0.002  -0.004   0.002  0.00  0.00    -0.290 OA
ATOM     16  C   LIG    1       -1.262  -0.670   0.011  0.00  0.00    +0.220 C 
ENDBRANCH   4  15
BRANCH   8  17
ATOM     17  C   LIG    1        3.522   3.097   1.819  0.00  0.00    +0.200 C 
BRANCH  17  18
ATOM     18  C   LIG    1        3.722   4.371   2.642  0.00  0.00    +0.070 C 
BRANCH  18  19
ATOM     19  C   LIG    1        3.666   4.035   4.110  0.00  0.00    +0.520 C 
ATOM     20  N   LIG    1        3.818   5.008   5.030  0.00  0.00    -0.620 N 
ATOM     21  C   LIG    1        4.046   6.405   4.625  0.00  0.00    +0.250 C 
ATOM     22  C   LIG    1        3.042   7.292   5.380  0.00  0.00    +0.220 C 
ATOM     23  O   LIG    1        3.131   7.015   6.779  0.00  0.00    -0.380 OA
ATOM     24  C   LIG    1        2.783   5.674   7.133  0.00  0.00    +0.220 C 
ATOM     25  C   LIG    1        3.767   4.705   6.469  0.00  0.00    +0.260 C 
ATOM     26  O   LIG    1        3.484   2.890   4.463  0.00  0.00    -0.540 OA
ENDBRANCH  18  19
ENDBRANCH  17  18
ENDBRANCH   8  17
TORSDOF 6
