REMARK  Name = ZINCrD00000l95kM.0
REMARK                            x       y       z     vdW  Elec       q    Type
REMARK                         _______ _______ _______ _____ _____    ______ ____
ROOT
ATOM      1  C   LIG    1      -10.728  -3.539   4.953  0.00  0.00    +0.530 C 
ATOM      2  N   LIG    1       -9.512  -2.983   4.785  0.00  0.00    -0.620 N 
ATOM      3  C   LIG    1       -8.884  -2.227   5.875  0.00  0.00    +0.300 C 
ATOM      4  C   LIG    1       -8.582  -0.806   5.382  0.00  0.00    +0.120 C 
ATOM      5  C   LIG    1       -7.865  -0.903   4.053  0.00  0.00    +0.140 C 
ATOM      6  C   LIG    1       -8.501  -1.722   2.951  0.00  0.00    +0.050 C 
ATOM      7  N   LIG    1       -6.751  -0.303   3.865  0.00  0.00    -0.340 NA
ATOM      8  C   LIG    1       -8.801  -3.125   3.508  0.00  0.00    +0.290 C 
ATOM      9  O   LIG    1      -11.268  -3.500   6.038  0.00  0.00    -0.530 OA
ENDROOT
BRANCH   1  10
ATOM     10  C   LIG    1      -11.417  -4.211   3.793  0.00  0.00    -0.020 C 
BRANCH  10  12
ATOM     11  C   LIG    1      -11.703  -6.371   2.571  0.00  0.00    +0.030 C 
ATOM     12  C   LIG    1      -11.108  -5.710   3.816  0.00  0.00    +0.030 C 
ENDBRANCH  10  12
BRANCH  10  13
ATOM     13  C   LIG    1      -12.928  -4.000   3.905  0.00  0.00    +0.040 C 
ATOM     14  C   LIG    1      -13.248  -2.512   3.746  0.00  0.00    +0.000 C 
ENDBRANCH  10  13
ENDBRANCH   1  10
BRANCH   7  15
ATOM     15  O   LIG    1       -6.095  -0.406   2.614  0.00  0.00    -0.220 OA
BRANCH  15  16
ATOM     16  C   LIG    1       -4.862   0.314   2.544  0.00  0.00    +0.240 C 
BRANCH  16  17
ATOM     17  C   LIG    1       -4.253   0.136   1.177  0.00  0.00    +0.520 C 
ATOM     18  N   LIG    1       -3.080   0.729   0.879  0.00  0.00    -0.720 N 
ATOM     19  H   LIG    1       -2.627   1.270   1.545  0.00  0.00    +0.400 HD
ATOM     20  O   LIG    1       -4.819  -0.541   0.345  0.00  0.00    -0.520 OA
BRANCH  18  21
ATOM     21  C   LIG    1       -2.488   0.555  -0.450  0.00  0.00    +0.330 C 
BRANCH  21  22
ATOM     22  C   LIG    1       -1.188   1.314  -0.523  0.00  0.00    -0.100 A 
ATOM     23  C   LIG    1        0.013   0.633  -0.475  0.00  0.00    +0.050 A 
ATOM     24  C   LIG    1        1.206   1.329  -0.549  0.00  0.00    +0.010 A 
ATOM     25  C   LIG    1        1.197   2.706  -0.665  0.00  0.00    +0.040 A 
ATOM     26  C   LIG    1       -0.004   3.389  -0.707  0.00  0.00    +0.030 A 
ATOM     27  C   LIG    1       -1.198   2.693  -0.634  0.00  0.00    -0.020 A 
ATOM     28 CL   LIG    1       -2.707   3.550  -0.687  0.00  0.00    -0.060 Cl
ENDBRANCH  21  22
ENDBRANCH  18  21
ENDBRANCH  16  17
ENDBRANCH  15  16
ENDBRANCH   7  15
TORSDOF 8
