REMARK  Name = ZINCqH00000334FY.0
REMARK                            x       y       z     vdW  Elec       q    Type
REMARK                         _______ _______ _______ _____ _____    ______ ____
ROOT
ATOM      1  C   LIG    1        7.224   0.992   0.221  0.00  0.00    +0.170 A 
ATOM      2  C   LIG    1        7.197  -0.393   0.113  0.00  0.00    -0.030 A 
ATOM      3  C   LIG    1        5.988  -1.057   0.023  0.00  0.00    +0.070 A 
ATOM      4  C   LIG    1        4.803  -0.347   0.041  0.00  0.00    +0.010 A 
ATOM      5  C   LIG    1        4.824   1.039   0.150  0.00  0.00    +0.170 A 
ATOM      6  C   LIG    1        6.035   1.709   0.235  0.00  0.00    -0.140 A 
ATOM      7  C   LIG    1        6.061   3.211   0.347  0.00  0.00    +0.090 C 
ENDROOT
BRANCH   5   8
ATOM      8  N   LIG    1        3.624   1.757   0.167  0.00  0.00    -0.670 N 
ATOM      9  H   LIG    1        3.587   2.630   0.588  0.00  0.00    +0.410 HD
ATOM     10  C   LIG    1        2.518   1.236  -0.400  0.00  0.00    +0.570 C 
ATOM     11  O   LIG    1        2.586   0.188  -1.015  0.00  0.00    -0.510 OA
BRANCH  10  12
ATOM     12  C   LIG    1        1.225   1.935  -0.276  0.00  0.00    -0.180 A 
ATOM     13  C   LIG    1        0.077   1.397  -0.864  0.00  0.00    +0.130 A 
ATOM     14  C   LIG    1       -1.127   2.056  -0.750  0.00  0.00    -0.080 A 
ATOM     15  C   LIG    1       -1.203   3.250  -0.043  0.00  0.00    +0.160 A 
ATOM     16  C   LIG    1       -0.064   3.789   0.543  0.00  0.00    -0.020 A 
ATOM     17  C   LIG    1        1.145   3.139   0.429  0.00  0.00    +0.090 A 
BRANCH  15  18
ATOM     18  O   LIG    1       -2.392   3.895   0.070  0.00  0.00    -0.310 OA
BRANCH  18  19
ATOM     19  C   LIG    1       -3.522   3.285  -0.557  0.00  0.00    +0.190 C 
ATOM     20  C   LIG    1       -4.763   4.150  -0.323  0.00  0.00    +0.070 C 
ENDBRANCH  18  19
ENDBRANCH  15  18
ENDBRANCH  10  12
ENDBRANCH   5   8
BRANCH   1  21
ATOM     21  N   LIG    1        8.446   1.662   0.311  0.00  0.00    -1.050 N 
ATOM     22  H   LIG    1        8.524   2.455   0.864  0.00  0.00    +0.430 HD
BRANCH  21  23
ATOM     23  S   LIG    1        9.760   1.104  -0.527  0.00  0.00    +2.600 S 
ATOM     24  O   LIG    1        9.905  -0.242  -0.094  0.00  0.00    -0.940 OA
ATOM     25  O   LIG    1       10.773   2.068  -0.274  0.00  0.00    -0.950 OA
BRANCH  23  26
ATOM     26  C   LIG    1        9.247   1.162  -2.266  0.00  0.00    -0.340 C 
BRANCH  26  28
ATOM     27  C   LIG    1        9.957   0.713  -4.619  0.00  0.00    +0.040 C 
ATOM     28  C   LIG    1       10.390   0.663  -3.152  0.00  0.00    +0.040 C 
ENDBRANCH  26  28
ENDBRANCH  23  26
ENDBRANCH  21  23
ENDBRANCH   1  21
TORSDOF 8
