REMARK  Name = ZINCpe00000VVGVK.2
REMARK                            x       y       z     vdW  Elec       q    Type
REMARK                         _______ _______ _______ _____ _____    ______ ____
ROOT
ATOM      1  C   LIG    1        0.706  -0.527   1.180  0.00  0.00    +0.140 C 
ATOM      2  C   LIG    1        0.795  -2.053   1.087  0.00  0.00    +0.020 C 
ATOM      3  C   LIG    1        1.583  -2.585   2.287  0.00  0.00    +0.030 C 
ATOM      4  C   LIG    1        2.970  -1.939   2.309  0.00  0.00    +0.160 C 
ATOM      5  N   LIG    1        2.830  -0.480   2.400  0.00  0.00    -0.530 NA
ATOM      6  C   LIG    1        2.119   0.059   1.234  0.00  0.00    +0.190 C 
ENDROOT
BRANCH   1   8
ATOM      7  C   LIG    1       -0.018   1.465   0.010  0.00  0.00    +0.190 C 
ATOM      8  N   LIG    1        0.002  -0.004   0.002  0.00  0.00    -0.520 NA
BRANCH   8   9
ATOM      9  C   LIG    1       -1.360  -0.549  -0.083  0.00  0.00    +0.210 C 
BRANCH   9  10
ATOM     10  C   LIG    1       -1.962  -0.191  -1.417  0.00  0.00    +0.520 C 
ATOM     11  N   LIG    1       -3.214  -0.588  -1.719  0.00  0.00    -0.740 N 
ATOM     12  H   LIG    1       -3.727  -1.104  -1.078  0.00  0.00    +0.400 HD
ATOM     13  O   LIG    1       -1.320   0.454  -2.219  0.00  0.00    -0.510 OA
BRANCH  11  14
ATOM     14  C   LIG    1       -3.799  -0.240  -3.017  0.00  0.00    +0.280 C 
BRANCH  14  15
ATOM     15  C   LIG    1       -5.217  -0.807  -3.104  0.00  0.00    +0.210 C 
BRANCH  15  16
ATOM     16  C   LIG    1       -5.806  -0.458  -4.408  0.00  0.00    +0.200 C 
ATOM     17  N   LIG    1       -6.260  -0.188  -5.414  0.00  0.00    -0.420 NA
ENDBRANCH  15  16
ENDBRANCH  14  15
ENDBRANCH  11  14
ENDBRANCH   9  10
ENDBRANCH   8   9
ENDBRANCH   1   8
BRANCH   5  18
ATOM     18  C   LIG    1        4.140   0.165   2.562  0.00  0.00    +0.330 C 
BRANCH  18  19
ATOM     19  C   LIG    1        4.732  -0.228   3.891  0.00  0.00    +0.180 A 
ATOM     20  N   LIG    1        5.497  -1.253   4.119  0.00  0.00    -0.380 NA
ATOM     21  O   LIG    1        5.808  -1.293   5.291  0.00  0.00    +0.080 OA
ATOM     22  C   LIG    1        5.254  -0.265   5.941  0.00  0.00    +0.210 A 
ATOM     23  N   LIG    1        4.571   0.422   5.057  0.00  0.00    -0.460 NA
BRANCH  22  24
ATOM     24  C   LIG    1        5.392   0.048   7.409  0.00  0.00    +0.070 C 
ATOM     25  C   LIG    1        6.405  -0.770   8.213  0.00  0.00    +0.070 C 
ATOM     26  C   LIG    1        4.905  -1.006   8.405  0.00  0.00    +0.070 C 
ENDBRANCH  22  24
ENDBRANCH  18  19
ENDBRANCH   5  18
TORSDOF 9
