REMARK  Name = ZINCpe00000VVGVk.0
REMARK                            x       y       z     vdW  Elec       q    Type
REMARK                         _______ _______ _______ _____ _____    ______ ____
ROOT
ATOM      1  O   LIG    1       -0.454   1.794  -3.196  0.00  0.00    -0.520 OA
ATOM      2  C   LIG    1       -0.078   2.261  -2.138  0.00  0.00    +0.570 C 
ATOM      3  N   LIG    1       -0.957   2.449  -1.134  0.00  0.00    -0.600 N 
ATOM      4  C   LIG    1       -0.504   2.935   0.176  0.00  0.00    +0.270 C 
ATOM      5  C   LIG    1       -1.324   4.172   0.557  0.00  0.00    +0.020 C 
ATOM      6  C   LIG    1       -2.817   3.826   0.493  0.00  0.00    +0.280 C 
ATOM      7  C   LIG    1       -3.188   3.417  -0.934  0.00  0.00    +0.020 C 
ATOM      8  C   LIG    1       -2.387   2.173  -1.330  0.00  0.00    +0.290 C 
ENDROOT
BRANCH   6   9
ATOM      9  N   LIG    1       -3.605   4.996   0.887  0.00  0.00    -0.630 N 
ATOM     10  C   LIG    1       -4.541   5.050   2.021  0.00  0.00    +0.250 C 
ATOM     11  C   LIG    1       -5.085   6.492   1.981  0.00  0.00    +0.250 C 
ATOM     12  N   LIG    1       -4.405   7.093   0.824  0.00  0.00    -0.740 N 
ATOM     13  H   LIG    1       -4.525   8.004   0.513  0.00  0.00    +0.430 HD
ATOM     14  C   LIG    1       -3.593   6.184   0.269  0.00  0.00    +0.700 C 
ATOM     15  O   LIG    1       -2.907   6.416  -0.707  0.00  0.00    -0.580 OA
ENDBRANCH   6   9
BRANCH   2  16
ATOM     16  C   LIG    1        1.341   2.623  -1.954  0.00  0.00    -0.190 A 
ATOM     17  C   LIG    1        2.001   3.421  -2.900  0.00  0.00    +0.170 A 
ATOM     18  C   LIG    1        3.327   3.736  -2.682  0.00  0.00    -0.030 A 
ATOM     19  C   LIG    1        3.964   3.248  -1.545  0.00  0.00    +0.370 A 
ATOM     20  N   LIG    1        3.314   2.493  -0.672  0.00  0.00    -0.500 NA
ATOM     21  C   LIG    1        2.049   2.172  -0.838  0.00  0.00    +0.340 A 
BRANCH  19  22
ATOM     22  N   LIG    1        5.305   3.558  -1.321  0.00  0.00    -0.420 N 
ATOM     23  C   LIG    1        6.094   3.084  -0.303  0.00  0.00    +0.150 A 
ATOM     24  C   LIG    1        7.312   3.633  -0.467  0.00  0.00    +0.150 A 
ATOM     25  N   LIG    1        7.273   4.429  -1.546  0.00  0.00    -0.470 NA
ATOM     26  C   LIG    1        6.077   4.393  -2.067  0.00  0.00    +0.410 A 
ENDBRANCH  19  22
ENDBRANCH   2  16
TORSDOF 3
