REMARK  Name = ZINCkj000005lR3e.0
REMARK                            x       y       z     vdW  Elec       q    Type
REMARK                         _______ _______ _______ _____ _____    ______ ____
ROOT
ATOM      1  O   LIG    1        2.201   1.557  -0.011  0.00  0.00    -0.580 OA
ATOM      2  C   LIG    1        1.140   2.151   0.003  0.00  0.00    +0.710 C 
ATOM      3  N   LIG    1       -0.018   1.461   0.010  0.00  0.00    -0.750 N 
ATOM      4  H   LIG    1       -0.864   1.934   0.017  0.00  0.00    +0.400 HD
ATOM      5  N   LIG    1        1.122   3.498   0.010  0.00  0.00    -0.740 N 
ATOM      6  H   LIG    1        0.275   3.972   0.021  0.00  0.00    +0.400 HD
ENDROOT
BRANCH   3   7
ATOM      7  C   LIG    1        0.002  -0.004   0.002  0.00  0.00    +0.290 C 
BRANCH   7   8
ATOM      8  C   LIG    1       -1.433  -0.534   0.013  0.00  0.00    +0.000 C 
ATOM      9  C   LIG    1       -2.101  -0.245   1.377  0.00  0.00    +0.070 C 
ATOM     10  C   LIG    1       -2.924  -1.532   1.639  0.00  0.00    +0.270 C 
ATOM     11  N   LIG    1       -2.046  -2.609   1.113  0.00  0.00    -0.370 N 
ATOM     12  H   LIG    1       -1.328  -2.832   1.786  0.00  0.00    +0.420 HD
ATOM     13  C   LIG    1       -1.438  -2.068  -0.121  0.00  0.00    +0.280 C 
BRANCH  11  14
ATOM     14  C   LIG    1       -2.842  -3.805   0.804  0.00  0.00    +0.100 C 
ATOM     15  C   LIG    1       -2.572  -5.066   1.628  0.00  0.00    +0.100 C 
ATOM     16  C   LIG    1       -2.115  -4.992   0.170  0.00  0.00    +0.090 C 
ENDBRANCH  11  14
ENDBRANCH   7   8
ENDBRANCH   3   7
BRANCH   5  17
ATOM     17  C   LIG    1        2.380   4.248   0.002  0.00  0.00    +0.340 C 
BRANCH  17  18
ATOM     18  C   LIG    1        2.085   5.726   0.013  0.00  0.00    -0.070 A 
ATOM     19  C   LIG    1        1.940   6.429  -1.173  0.00  0.00    -0.010 A 
ATOM     20  C   LIG    1        1.665   7.783  -1.124  0.00  0.00    +0.260 A 
ATOM     21  N   LIG    1        1.550   8.406   0.032  0.00  0.00    -0.480 NA
ATOM     22  C   LIG    1        1.687   7.770   1.180  0.00  0.00    +0.260 A 
ATOM     23  C   LIG    1        1.957   6.415   1.209  0.00  0.00    -0.010 A 
ENDBRANCH  17  18
ENDBRANCH   5  17
TORSDOF 5
