REMARK  Name = ZINCkj000005lR3e.1
REMARK                            x       y       z     vdW  Elec       q    Type
REMARK                         _______ _______ _______ _____ _____    ______ ____
ROOT
ATOM      1  O   LIG    1       -3.507  -2.152  -0.678  0.00  0.00    -0.580 OA
ATOM      2  C   LIG    1       -2.843  -1.734  -1.607  0.00  0.00    +0.710 C 
ATOM      3  N   LIG    1       -3.238  -1.962  -2.875  0.00  0.00    -0.750 N 
ATOM      4  H   LIG    1       -2.709  -1.628  -3.615  0.00  0.00    +0.400 HD
ATOM      5  N   LIG    1       -1.712  -1.041  -1.368  0.00  0.00    -0.740 N 
ATOM      6  H   LIG    1       -1.182  -0.707  -2.109  0.00  0.00    +0.400 HD
ENDROOT
BRANCH   3   7
ATOM      7  C   LIG    1       -4.468  -2.715  -3.134  0.00  0.00    +0.310 C 
BRANCH   7   8
ATOM      8  C   LIG    1       -4.686  -2.831  -4.644  0.00  0.00    -0.010 C 
ATOM      9  C   LIG    1       -5.050  -1.455  -5.261  0.00  0.00    +0.070 C 
ATOM     10  C   LIG    1       -5.862  -1.841  -6.516  0.00  0.00    +0.250 C 
ATOM     11  N   LIG    1       -6.384  -3.202  -6.297  0.00  0.00    -0.360 N 
ATOM     12  H   LIG    1       -6.019  -3.823  -7.003  0.00  0.00    +0.420 HD
ATOM     13  C   LIG    1       -5.955  -3.662  -4.960  0.00  0.00    +0.280 C 
BRANCH  11  14
ATOM     14  C   LIG    1       -7.852  -3.182  -6.365  0.00  0.00    +0.100 C 
ATOM     15  C   LIG    1       -8.530  -4.206  -7.277  0.00  0.00    +0.100 C 
ATOM     16  C   LIG    1       -8.492  -2.731  -7.680  0.00  0.00    +0.090 C 
ENDBRANCH  11  14
ENDBRANCH   7   8
ENDBRANCH   3   7
BRANCH   5  17
ATOM     17  C   LIG    1       -1.282  -0.793   0.011  0.00  0.00    +0.340 C 
BRANCH  17  18
ATOM     18  C   LIG    1        0.002  -0.004   0.002  0.00  0.00    -0.070 A 
ATOM     19  C   LIG    1       -0.017   1.382   0.010  0.00  0.00    -0.010 A 
ATOM     20  C   LIG    1        1.181   2.072   0.002  0.00  0.00    +0.260 A 
ATOM     21  N   LIG    1        2.331   1.427  -0.013  0.00  0.00    -0.480 NA
ATOM     22  C   LIG    1        2.387   0.109  -0.020  0.00  0.00    +0.260 A 
ATOM     23  C   LIG    1        1.230  -0.647  -0.013  0.00  0.00    -0.010 A 
ENDBRANCH  17  18
ENDBRANCH   5  17
TORSDOF 5
