REMARK  Name = ZINCnE000001Lxar.2
REMARK                            x       y       z     vdW  Elec       q    Type
REMARK                         _______ _______ _______ _____ _____    ______ ____
ROOT
ATOM      1  N   LIG    1        1.421  -0.418  -0.044  0.00  0.00    -0.470 NA
ATOM      2  C   LIG    1        0.002  -0.004   0.002  0.00  0.00    +0.150 C 
ATOM      3  C   LIG    1       -0.019   1.536   0.011  0.00  0.00    +0.010 C 
ATOM      4  C   LIG    1        1.468   1.960  -0.001  0.00  0.00    +0.030 C 
ATOM      5  C   LIG    1        2.191   0.705   0.550  0.00  0.00    +0.040 C 
ENDROOT
BRANCH   2   6
ATOM      6  C   LIG    1       -0.723  -0.521  -1.214  0.00  0.00    -0.060 A 
ATOM      7  C   LIG    1       -0.099  -0.512  -2.447  0.00  0.00    +0.060 A 
ATOM      8  C   LIG    1       -0.762  -0.991  -3.561  0.00  0.00    -0.010 A 
ATOM      9  C   LIG    1       -2.054  -1.468  -3.444  0.00  0.00    -0.020 A 
ATOM     10  C   LIG    1       -2.681  -1.471  -2.212  0.00  0.00    -0.020 A 
ATOM     11  C   LIG    1       -2.015  -0.998  -1.097  0.00  0.00    -0.010 A 
ENDBRANCH   2   6
BRANCH   5  12
ATOM     12  C   LIG    1        3.624   0.671   0.087  0.00  0.00    +0.520 C 
ATOM     13  O   LIG    1        4.508   1.099   0.809  0.00  0.00    -0.700 OA
ATOM     14  O   LIG    1        3.900   0.214  -1.009  0.00  0.00    -0.670 OA
ENDBRANCH   5  12
BRANCH   1  15
ATOM     15  C   LIG    1        1.632  -1.659   0.714  0.00  0.00    +0.200 C 
BRANCH  15  20
ATOM     16  C   LIG    1        5.134  -2.900   0.025  0.00  0.00    +0.120 A 
ATOM     17  C   LIG    1        5.825  -2.391   1.115  0.00  0.00    -0.090 A 
ATOM     18  C   LIG    1        5.157  -1.647   2.068  0.00  0.00    +0.050 A 
ATOM     19  C   LIG    1        3.801  -1.411   1.938  0.00  0.00    -0.010 A 
ATOM     20  C   LIG    1        3.110  -1.918   0.853  0.00  0.00    -0.040 A 
ATOM     21  C   LIG    1        3.772  -2.666  -0.101  0.00  0.00    +0.020 A 
BRANCH  16  23
ATOM     22  C   LIG    1        7.189  -3.839  -0.716  0.00  0.00    +0.220 C 
ATOM     23  O   LIG    1        5.789  -3.633  -0.914  0.00  0.00    -0.320 OA
ENDBRANCH  16  23
ENDBRANCH  15  20
ENDBRANCH   1  15
TORSDOF 5
