REMARK  Name = ZINCrH000004uLpD.0
REMARK                            x       y       z     vdW  Elec       q    Type
REMARK                         _______ _______ _______ _____ _____    ______ ____
ROOT
ATOM      1  O   LIG    1       -5.345  -0.172  -3.838  0.00  0.00    -0.520 OA
ATOM      2  C   LIG    1       -5.183   0.800  -4.544  0.00  0.00    +0.520 C 
ATOM      3  N   LIG    1       -6.248   1.431  -5.077  0.00  0.00    -0.520 N 
ATOM      4  H   LIG    1       -6.118   2.208  -5.643  0.00  0.00    +0.420 HD
ENDROOT
BRANCH   2   5
ATOM      5  C   LIG    1       -3.790   1.303  -4.826  0.00  0.00    +0.010 C 
ATOM      6  C   LIG    1       -3.606   2.745  -4.300  0.00  0.00    +0.070 C 
ATOM      7  C   LIG    1       -3.029   2.563  -2.913  0.00  0.00    +0.520 C 
ATOM      8  N   LIG    1       -2.558   1.312  -2.769  0.00  0.00    -0.610 N 
ATOM      9  O   LIG    1       -2.995   3.421  -2.057  0.00  0.00    -0.520 OA
ATOM     10  C   LIG    1       -2.737   0.530  -3.998  0.00  0.00    +0.310 C 
BRANCH   8  11
ATOM     11  C   LIG    1       -1.940   0.798  -1.544  0.00  0.00    +0.250 C 
ATOM     12  C   LIG    1       -0.766   1.601  -1.235  0.00  0.00    -0.000 C 
ATOM     13  C   LIG    1       -0.013   1.086   0.008  0.00  0.00    +0.030 C 
ATOM     14  C   LIG    1       -0.725   1.575   1.240  0.00  0.00    +0.000 C 
ATOM     15  C   LIG    1       -1.741   0.547   1.779  0.00  0.00    +0.000 C 
ATOM     16  C   LIG    1       -2.550  -0.140   0.662  0.00  0.00    +0.000 C 
ATOM     17  C   LIG    1       -2.985   0.823  -0.409  0.00  0.00    +0.020 C 
ENDBRANCH   8  11
ENDBRANCH   2   5
BRANCH   3  18
ATOM     18  N   LIG    1       -7.542   0.963  -4.815  0.00  0.00    -0.540 N 
ATOM     19  H   LIG    1       -7.672   0.186  -4.250  0.00  0.00    +0.440 HD
BRANCH  18  20
ATOM     20  C   LIG    1       -8.646   1.617  -5.368  0.00  0.00    +0.220 A 
ATOM     21  C   LIG    1       -8.462   2.731  -6.177  0.00  0.00    -0.040 A 
ATOM     22  C   LIG    1       -9.556   3.375  -6.722  0.00  0.00    +0.080 A 
ATOM     23  C   LIG    1      -10.833   2.912  -6.462  0.00  0.00    +0.010 A 
ATOM     24  C   LIG    1      -11.019   1.803  -5.657  0.00  0.00    -0.130 A 
ATOM     25  C   LIG    1       -9.930   1.151  -5.114  0.00  0.00    +0.000 A 
BRANCH  24  26
ATOM     26  C   LIG    1      -12.413   1.302  -5.377  0.00  0.00    +0.510 C 
ATOM     27  F   LIG    1      -12.654   1.340  -3.999  0.00  0.00    -0.170 F 
ATOM     28  F   LIG    1      -12.536  -0.014  -5.836  0.00  0.00    -0.180 F 
ATOM     29  F   LIG    1      -13.342   2.115  -6.036  0.00  0.00    -0.170 F 
ENDBRANCH  24  26
ENDBRANCH  18  20
ENDBRANCH   3  18
TORSDOF 5
