REMARK  Name = ZINCrD00000hQ7a9.0
REMARK                            x       y       z     vdW  Elec       q    Type
REMARK                         _______ _______ _______ _____ _____    ______ ____
ROOT
ATOM      1  O   LIG    1       -1.986   5.052  -1.080  0.00  0.00    -0.570 OA
ATOM      2  C   LIG    1       -1.628   3.991  -1.554  0.00  0.00    +0.730 C 
ATOM      3  N   LIG    1       -1.289   2.970  -0.743  0.00  0.00    -0.620 N 
ATOM      4  C   LIG    1       -0.838   1.637  -1.182  0.00  0.00    +0.220 C 
ATOM      5  C   LIG    1       -0.013   1.086   0.008  0.00  0.00    +0.180 C 
ATOM      6  C   LIG    1       -0.816   1.624   1.221  0.00  0.00    +0.080 C 
ATOM      7  C   LIG    1       -1.306   3.002   0.727  0.00  0.00    +0.290 C 
ATOM      8  N   LIG    1       -1.570   3.836  -2.892  0.00  0.00    -0.710 N 
ATOM      9  H   LIG    1       -1.285   2.990  -3.270  0.00  0.00    +0.400 HD
ENDROOT
BRANCH   8  10
ATOM     10  C   LIG    1       -1.939   4.946  -3.775  0.00  0.00    +0.260 C 
ATOM     11  C   LIG    1       -2.429   4.596  -5.182  0.00  0.00    -0.030 C 
ATOM     12  C   LIG    1       -2.446   3.108  -5.564  0.00  0.00    +0.050 C 
ATOM     13  C   LIG    1       -1.346   2.870  -6.609  0.00  0.00    +0.070 C 
ATOM     14  C   LIG    1       -0.009   3.167  -5.976  0.00  0.00    -0.080 A 
ATOM     15  C   LIG    1        1.062   2.319  -6.176  0.00  0.00    +0.000 A 
ATOM     16  C   LIG    1        2.283   2.600  -5.591  0.00  0.00    +0.000 A 
ATOM     17  C   LIG    1        2.431   3.729  -4.806  0.00  0.00    +0.000 A 
ATOM     18  C   LIG    1        1.359   4.579  -4.606  0.00  0.00    +0.020 A 
ATOM     19  C   LIG    1        0.140   4.298  -5.191  0.00  0.00    -0.050 A 
ATOM     20  C   LIG    1       -1.038   5.218  -4.980  0.00  0.00    -0.010 C 
ENDBRANCH   8  10
BRANCH   7  21
ATOM     21  C   LIG    1       -2.708   3.253   1.218  0.00  0.00    -0.100 A 
ATOM     22  C   LIG    1       -3.783   2.685   0.560  0.00  0.00    +0.050 A 
ATOM     23  C   LIG    1       -5.069   2.911   1.012  0.00  0.00    -0.020 A 
ATOM     24  C   LIG    1       -5.282   3.716   2.119  0.00  0.00    +0.100 A 
ATOM     25  C   LIG    1       -4.205   4.288   2.774  0.00  0.00    -0.010 A 
ATOM     26  F   LIG    1       -6.539   3.941   2.559  0.00  0.00    -0.140 F 
ATOM     27  C   LIG    1       -2.920   4.057   2.323  0.00  0.00    +0.060 A 
ENDBRANCH   7  21
BRANCH   5  28
ATOM     28  O   LIG    1        1.315   1.613  -0.002  0.00  0.00    -0.550 OA
ATOM     29  H   LIG    1        1.840   1.343  -0.768  0.00  0.00    +0.380 HD
ENDBRANCH   5  28
TORSDOF 3
