REMARK  Name = ZINCvU0000000CMQ.0
REMARK                            x       y       z     vdW  Elec       q    Type
REMARK                         _______ _______ _______ _____ _____    ______ ____
ROOT
ATOM      1  C   LIG    1       -0.014  -0.001  -0.024  0.00  0.00    +0.310 C 
ATOM      2  C   LIG    1        0.972  -0.675  -0.718  0.00  0.00    -0.170 C 
ENDROOT
BRANCH   1   6
ATOM      3  C   LIG    1        1.438   4.837  -0.081  0.00  0.00    +0.150 C 
ATOM      4  C   LIG    1        0.620   3.572  -0.054  0.00  0.00    +0.030 A 
ATOM      5  C   LIG    1        1.116   2.324  -0.063  0.00  0.00    +0.000 A 
ATOM      6  C   LIG    1       -0.040   1.417  -0.028  0.00  0.00    -0.220 A 
ATOM      7  C   LIG    1       -1.161   2.231  -0.005  0.00  0.00    +0.110 A 
ATOM      8  C   LIG    1       -2.593   1.764   0.028  0.00  0.00    +0.160 C 
ATOM      9  N   LIG    1       -0.746   3.513  -0.015  0.00  0.00    -0.390 N 
BRANCH   9  10
ATOM     10  C   LIG    1       -1.595   4.628   0.004  0.00  0.00    +0.110 A 
ATOM     11  C   LIG    1       -1.642   5.485  -1.087  0.00  0.00    +0.040 A 
ATOM     12  C   LIG    1       -2.480   6.584  -1.065  0.00  0.00    +0.060 A 
ATOM     13  C   LIG    1       -3.271   6.830   0.041  0.00  0.00    +0.040 A 
ATOM     14  C   LIG    1       -3.227   5.978   1.131  0.00  0.00    -0.020 A 
ATOM     15 CL   LIG    1       -4.222   6.291   2.518  0.00  0.00    -0.050 Cl
ATOM     16  C   LIG    1       -2.394   4.875   1.113  0.00  0.00    +0.040 A 
ENDBRANCH   9  10
ENDBRANCH   1   6
BRANCH   2  17
ATOM     17  C   LIG    1        0.939  -2.142  -0.801  0.00  0.00    +0.590 C 
ATOM     18  N   LIG    1        1.901  -2.800  -1.479  0.00  0.00    -0.670 N 
ATOM     19  H   LIG    1        2.659  -2.314  -1.839  0.00  0.00    +0.420 HD
ATOM     20  O   LIG    1        0.045  -2.763  -0.258  0.00  0.00    -0.500 OA
BRANCH  18  21
ATOM     21  C   LIG    1        1.805  -4.183  -1.663  0.00  0.00    +0.240 A 
ATOM     22  C   LIG    1        0.563  -4.805  -1.633  0.00  0.00    +0.050 A 
ATOM     23  C   LIG    1        0.471  -6.170  -1.821  0.00  0.00    +0.160 A 
ATOM     24  C   LIG    1        1.614  -6.920  -2.027  0.00  0.00    -0.060 A 
ATOM     25  C   LIG    1        2.853  -6.306  -2.052  0.00  0.00    +0.170 A 
ATOM     26  C   LIG    1        2.952  -4.940  -1.871  0.00  0.00    -0.140 A 
ATOM     27 BR   LIG    1        4.646  -4.100  -1.904  0.00  0.00    -0.010 Br
BRANCH  24  28
ATOM     28  N   LIG    1        1.512  -8.384  -2.222  0.00  0.00    +0.030 N 
ATOM     29  O   LIG    1        0.422  -8.926  -2.201  0.00  0.00    -0.150 OA
ATOM     30  O   LIG    1        2.518  -9.046  -2.404  0.00  0.00    -0.160 OA
ENDBRANCH  24  28
ENDBRANCH  18  21
ENDBRANCH   2  17
BRANCH   2  31
ATOM     31  C   LIG    1        2.025   0.055  -1.358  0.00  0.00    +0.250 C 
ATOM     32  N   LIG    1        2.860   0.634  -1.865  0.00  0.00    -0.410 NA
ENDBRANCH   2  31
TORSDOF 6
