REMARK  Name = ZINCpk00000eb7F6.0
REMARK                            x       y       z     vdW  Elec       q    Type
REMARK                         _______ _______ _______ _____ _____    ______ ____
ROOT
ATOM      1  N   LIG    1       -0.724   1.573  -1.181  0.00  0.00    -0.540 NA
ATOM      2  C   LIG    1       -0.013   1.086   0.008  0.00  0.00    +0.180 C 
ATOM      3  C   LIG    1       -0.731   1.581   1.268  0.00  0.00    +0.290 C 
ATOM      4  N   LIG    1       -0.872   3.042   1.182  0.00  0.00    -0.610 N 
ATOM      5  C   LIG    1       -1.452   3.615  -0.042  0.00  0.00    +0.290 C 
ATOM      6  C   LIG    1       -0.480   3.835   2.199  0.00  0.00    +0.550 C 
ATOM      7  O   LIG    1       -0.603   5.039   2.111  0.00  0.00    -0.540 OA
ATOM      8  C   LIG    1       -0.705   3.040  -1.250  0.00  0.00    +0.190 C 
ENDROOT
BRANCH   6   9
ATOM      9  C   LIG    1        0.112   3.227   3.444  0.00  0.00    -0.070 C 
ATOM     10  C   LIG    1       -0.712   3.309   4.731  0.00  0.00    +0.070 C 
ATOM     11  C   LIG    1        0.536   4.181   4.563  0.00  0.00    +0.090 C 
BRANCH  11  12
ATOM     12  C   LIG    1        1.756   3.811   5.367  0.00  0.00    -0.210 A 
ATOM     13  C   LIG    1        2.889   4.542   5.476  0.00  0.00    +0.250 A 
ATOM     14  N   LIG    1        3.736   3.871   6.284  0.00  0.00    -0.380 N 
ATOM     15  N   LIG    1        3.105   2.684   6.679  0.00  0.00    -0.290 NA
ATOM     16  C   LIG    1        5.079   4.304   6.676  0.00  0.00    +0.360 C 
ATOM     17  C   LIG    1        1.918   2.649   6.129  0.00  0.00    +0.230 A 
ENDBRANCH  11  12
ENDBRANCH   6   9
BRANCH   1  18
ATOM     18  C   LIG    1       -0.170   0.981  -2.406  0.00  0.00    +0.340 C 
BRANCH  18  23
ATOM     19  C   LIG    1       -2.186   3.318  -6.352  0.00  0.00    +0.150 C 
ATOM     20  C   LIG    1       -1.939   2.302  -5.267  0.00  0.00    -0.020 A 
ATOM     21  C   LIG    1       -2.648   1.181  -5.054  0.00  0.00    -0.050 A 
ATOM     22  O   LIG    1       -2.096   0.557  -3.995  0.00  0.00    -0.190 OA
ATOM     23  C   LIG    1       -1.068   1.304  -3.572  0.00  0.00    +0.200 A 
ATOM     24  C   LIG    1       -3.835   0.707  -5.854  0.00  0.00    +0.180 C 
ATOM     25  N   LIG    1       -0.969   2.354  -4.338  0.00  0.00    -0.470 NA
ENDBRANCH  18  23
ENDBRANCH   1  18
TORSDOF 4
