REMARK  Name = ZINCnE000001PBxv.0
REMARK                            x       y       z     vdW  Elec       q    Type
REMARK                         _______ _______ _______ _____ _____    ______ ____
ROOT
ATOM      1  CA  LIG    1        0.621   3.957   4.821  0.00  0.00    +0.080 C 
ENDROOT
BRANCH   1   2
ATOM      2  C   LIG    1        1.506   4.177   6.021  0.00  0.00    +0.490 C 
ATOM      3  OXT LIG    1        1.020   4.542   7.078  0.00  0.00    -0.640 OA
ATOM      4  O   LIG    1        2.708   3.992   5.934  0.00  0.00    -0.660 OA
ENDBRANCH   1   2
BRANCH   1   5
ATOM      5  N   LIG    1       -0.537   4.858   4.894  0.00  0.00    -0.480 N 
ATOM      6  H1  LIG    1       -1.011   4.725   5.775  0.00  0.00    +0.430 HD
ATOM      7  H2  LIG    1       -1.170   4.654   4.136  0.00  0.00    +0.390 HD
BRANCH   5   8
ATOM      8  C   LIG    1       -0.080   6.250   4.790  0.00  0.00    +0.320 C 
BRANCH   8   9
ATOM      9  C   LIG    1       -1.268   7.175   4.865  0.00  0.00    -0.310 A 
ATOM     10  C   LIG    1       -1.796   7.717   3.709  0.00  0.00    +0.070 A 
ATOM     11  C   LIG    1       -2.889   8.561   3.776  0.00  0.00    -0.150 A 
ATOM     12  C   LIG    1       -3.450   8.874   5.000  0.00  0.00    +0.060 A 
ATOM     13  C   LIG    1       -2.921   8.340   6.161  0.00  0.00    -0.170 A 
ATOM     14 CL   LIG    1       -3.624   8.734   7.698  0.00  0.00    -0.100 Cl
ATOM     15  C   LIG    1       -1.827   7.488   6.095  0.00  0.00    +0.290 A 
ATOM     16  O   LIG    1       -1.305   6.961   7.234  0.00  0.00    -0.660 OA
ENDBRANCH   8   9
ENDBRANCH   5   8
ENDBRANCH   1   5
BRANCH   1  17
ATOM     17  C   LIG    1        0.137   2.505   4.805  0.00  0.00    +0.120 C 
BRANCH  17  22
ATOM     18  C   LIG    1       -2.866   1.540  -0.037  0.00  0.00    +0.090 C 
ATOM     19  C   LIG    1       -2.083   1.789   1.226  0.00  0.00    -0.090 A 
ATOM     20  C   LIG    1       -2.731   2.231   2.365  0.00  0.00    +0.020 A 
ATOM     21  C   LIG    1       -2.012   2.464   3.522  0.00  0.00    -0.020 A 
ATOM     22  C   LIG    1       -0.646   2.251   3.543  0.00  0.00    -0.100 A 
ATOM     23  C   LIG    1        0.001   1.806   2.405  0.00  0.00    +0.020 A 
ATOM     24  C   LIG    1       -0.718   1.572   1.248  0.00  0.00    -0.080 A 
ATOM     25  C   LIG    1       -0.013   1.086   0.008  0.00  0.00    +0.090 C 
ENDBRANCH  17  22
ENDBRANCH   1  17
TORSDOF 6
