REMARK  Name = ZINCpe000000ZmEA.0
REMARK                            x       y       z     vdW  Elec       q    Type
REMARK                         _______ _______ _______ _____ _____    ______ ____
ROOT
ATOM      1  O   LIG    1       -0.803   1.937  -2.155  0.00  0.00    -0.500 OA
ATOM      2  C   LIG    1       -0.955   1.401  -1.077  0.00  0.00    +0.510 C 
ATOM      3  N   LIG    1       -1.194   2.147   0.019  0.00  0.00    -0.650 N 
ATOM      4  H   LIG    1       -1.391   1.716   0.866  0.00  0.00    +0.420 HD
ENDROOT
BRANCH   3   5
ATOM      5  C   LIG    1       -1.159   3.542  -0.063  0.00  0.00    +0.150 A 
ATOM      6  C   LIG    1        0.036   4.218   0.158  0.00  0.00    -0.090 A 
ATOM      7  C   LIG    1        1.417   3.692   0.483  0.00  0.00    +0.070 C 
ATOM      8  C   LIG    1        2.380   4.856   0.165  0.00  0.00    +0.030 C 
ATOM      9  C   LIG    1        1.472   6.093   0.342  0.00  0.00    +0.080 C 
ATOM     10  C   LIG    1        0.069   5.596   0.070  0.00  0.00    -0.090 A 
ATOM     11  C   LIG    1       -1.089   6.295  -0.226  0.00  0.00    +0.030 A 
ATOM     12  C   LIG    1       -2.281   5.625  -0.442  0.00  0.00    -0.090 A 
ATOM     13  C   LIG    1       -3.659   6.157  -0.775  0.00  0.00    +0.080 C 
ATOM     14  C   LIG    1       -4.627   4.997  -0.458  0.00  0.00    +0.030 C 
ATOM     15  C   LIG    1       -3.725   3.757  -0.633  0.00  0.00    +0.070 C 
ATOM     16  C   LIG    1       -2.320   4.247  -0.361  0.00  0.00    -0.080 A 
ENDBRANCH   3   5
BRANCH   2  17
ATOM     17  C   LIG    1       -0.882  -0.087  -0.966  0.00  0.00    +0.510 C 
ATOM     18  N   LIG    1       -0.648  -0.834  -2.063  0.00  0.00    -0.690 N 
ATOM     19  H   LIG    1       -0.526  -0.405  -2.925  0.00  0.00    +0.410 HD
ATOM     20  O   LIG    1       -1.034  -0.623   0.112  0.00  0.00    -0.520 OA
BRANCH  18  21
ATOM     21  C   LIG    1       -0.577  -2.293  -1.955  0.00  0.00    +0.250 C 
ATOM     22  C   LIG    1        0.844  -2.709  -1.561  0.00  0.00    -0.000 C 
ATOM     23  C   LIG    1        0.929  -4.237  -1.527  0.00  0.00    +0.230 C 
ATOM     24  O   LIG    1        0.562  -4.762  -2.804  0.00  0.00    -0.370 OA
ATOM     25  C   LIG    1       -0.773  -4.445  -3.204  0.00  0.00    +0.200 C 
ATOM     26  C   LIG    1       -0.926  -2.925  -3.306  0.00  0.00    +0.130 C 
BRANCH  26  27
ATOM     27  O   LIG    1       -2.275  -2.603  -3.649  0.00  0.00    -0.550 OA
ATOM     28  H   LIG    1       -2.565  -2.972  -4.495  0.00  0.00    +0.390 HD
ENDBRANCH  26  27
ENDBRANCH  18  21
ENDBRANCH   2  17
TORSDOF 4
