REMARK  Name = ZINCtV00001bB3rS.0
REMARK                            x       y       z     vdW  Elec       q    Type
REMARK                         _______ _______ _______ _____ _____    ______ ____
ROOT
ATOM      1  C   LIG    1        0.345   3.519   0.018  0.00  0.00    +0.280 A 
ATOM      2  N   LIG    1       -0.900   3.168   0.028  0.00  0.00    -0.450 NA
ATOM      3  C   LIG    1       -1.134   1.852   0.017  0.00  0.00    +0.090 A 
ATOM      4  C   LIG    1       -0.013   1.076   0.008  0.00  0.00    -0.080 A 
ATOM      5  S   LIG    1        1.366   2.087   0.000  0.00  0.00    +0.170 S 
ENDROOT
BRANCH   1   8
ATOM      6  C   LIG    1        0.431   7.275   0.039  0.00  0.00    +0.110 C 
ATOM      7  C   LIG    1       -0.070   5.854   0.035  0.00  0.00    +0.510 C 
ATOM      8  N   LIG    1        0.807   4.830   0.021  0.00  0.00    -0.480 N 
ATOM      9  O   LIG    1       -1.262   5.630   0.045  0.00  0.00    -0.470 OA
BRANCH   8  10
ATOM     10  C   LIG    1        2.184   5.088   0.009  0.00  0.00    +0.100 A 
ATOM     11  C   LIG    1        2.857   5.217  -1.198  0.00  0.00    +0.030 A 
ATOM     12  C   LIG    1        4.214   5.476  -1.206  0.00  0.00    +0.030 A 
ATOM     13  C   LIG    1        4.904   5.596  -0.013  0.00  0.00    +0.040 A 
ATOM     14  C   LIG    1        4.237   5.462   1.191  0.00  0.00    -0.080 A 
ATOM     15  C   LIG    1        4.992   5.594   2.488  0.00  0.00    +0.100 C 
ATOM     16  C   LIG    1        2.879   5.209   1.206  0.00  0.00    -0.060 A 
ATOM     17  C   LIG    1        2.153   5.064   2.518  0.00  0.00    +0.100 C 
ENDBRANCH   8  10
ENDBRANCH   1   8
BRANCH   3  18
ATOM     18  C   LIG    1       -2.486   1.289   0.019  0.00  0.00    +0.170 C 
ATOM     19  C   LIG    1       -3.564   2.112   0.028  0.00  0.00    -0.060 C 
BRANCH  19  20
ATOM     20  C   LIG    1       -4.869   1.568   0.030  0.00  0.00    +0.420 C 
ATOM     21  O   LIG    1       -5.026   0.360   0.024  0.00  0.00    -0.440 OA
BRANCH  20  22
ATOM     22  C   LIG    1       -6.044   2.466   0.040  0.00  0.00    -0.150 A 
ATOM     23  C   LIG    1       -5.868   3.851   0.047  0.00  0.00    +0.110 A 
ATOM     24  C   LIG    1       -6.967   4.683   0.056  0.00  0.00    +0.030 A 
ATOM     25  C   LIG    1       -8.245   4.148   0.057  0.00  0.00    +0.000 A 
ATOM     26  C   LIG    1       -8.428   2.775   0.050  0.00  0.00    +0.030 A 
ATOM     27 CL   LIG    1       -9.624   5.203   0.068  0.00  0.00    -0.050 Cl
ATOM     28  C   LIG    1       -7.335   1.931   0.036  0.00  0.00    +0.020 A 
ATOM     29 CL   LIG    1       -7.565   0.211   0.021  0.00  0.00    -0.020 Cl
ENDBRANCH  20  22
ENDBRANCH  19  20
ENDBRANCH   3  18
TORSDOF 5
