REMARK  Name = ZINCrg000000nvpM.0
REMARK                            x       y       z     vdW  Elec       q    Type
REMARK                         _______ _______ _______ _____ _____    ______ ____
ROOT
ATOM      1  N   LIG    1        5.077  -1.610   4.035  0.00  0.00    -0.740 N 
ATOM      2  H   LIG    1        5.620  -1.748   4.827  0.00  0.00    +0.400 HD
ATOM      3  C   LIG    1        5.529  -0.828   3.035  0.00  0.00    +0.710 C 
ATOM      4  N   LIG    1        6.694  -0.164   3.174  0.00  0.00    -0.630 N 
ATOM      5  C   LIG    1        7.151   0.769   2.134  0.00  0.00    +0.300 C 
ATOM      6  C   LIG    1        7.407   2.137   2.788  0.00  0.00    +0.270 C 
ATOM      7  N   LIG    1        8.244   1.938   3.979  0.00  0.00    -0.610 N 
ATOM      8  C   LIG    1        7.789   1.002   5.016  0.00  0.00    +0.290 C 
ATOM      9  C   LIG    1        9.409   2.603   4.117  0.00  0.00    +0.560 C 
ATOM     10  O   LIG    1       10.141   2.357   5.056  0.00  0.00    -0.530 OA
ATOM     11  C   LIG    1        7.531  -0.362   4.365  0.00  0.00    +0.270 C 
ATOM     12  O   LIG    1        4.888  -0.723   2.008  0.00  0.00    -0.590 OA
ENDROOT
BRANCH   9  13
ATOM     13  C   LIG    1        9.796   3.631   3.128  0.00  0.00    -0.120 A 
ATOM     14  C   LIG    1        8.818   4.410   2.509  0.00  0.00    +0.030 A 
ATOM     15  C   LIG    1        9.183   5.373   1.590  0.00  0.00    +0.030 A 
ATOM     16  C   LIG    1       10.515   5.560   1.271  0.00  0.00    +0.020 A 
ATOM     17  C   LIG    1       11.495   4.785   1.877  0.00  0.00    +0.100 A 
ATOM     18  C   LIG    1       11.140   3.821   2.805  0.00  0.00    +0.050 A 
BRANCH  17  19
ATOM     19  O   LIG    1       12.803   4.973   1.560  0.00  0.00    -0.490 OA
ATOM     20  H   LIG    1       13.110   4.431   0.820  0.00  0.00    +0.390 HD
ENDBRANCH  17  19
ENDBRANCH   9  13
BRANCH   1  21
ATOM     21  C   LIG    1        3.764  -2.251   3.926  0.00  0.00    +0.320 C 
BRANCH  21  26
ATOM     22  C   LIG    1        2.659  -6.438   7.598  0.00  0.00    +0.080 C 
ATOM     23  C   LIG    1        2.929  -5.613   6.338  0.00  0.00    +0.070 C 
ATOM     24  C   LIG    1        4.302  -4.942   6.451  0.00  0.00    +0.210 C 
ATOM     25  O   LIG    1        4.499  -4.085   5.322  0.00  0.00    -0.370 OA
ATOM     26  C   LIG    1        3.493  -3.076   5.186  0.00  0.00    +0.120 C 
ATOM     27  C   LIG    1        2.121  -3.747   5.074  0.00  0.00    +0.210 C 
ATOM     28  C   LIG    1        2.906  -6.527   5.112  0.00  0.00    +0.040 C 
ATOM     29  O   LIG    1        1.924  -4.604   6.202  0.00  0.00    -0.370 OA
ENDBRANCH  21  26
ENDBRANCH   1  21
TORSDOF 4
