REMARK  Name = ZINCqH0000007Wyt.0
REMARK                            x       y       z     vdW  Elec       q    Type
REMARK                         _______ _______ _______ _____ _____    ______ ____
ROOT
ATOM      1  N   LIG    1        1.004   0.073   0.976  0.00  0.00    -0.670 N 
ATOM      2  H   LIG    1        0.965  -0.871   1.199  0.00  0.00    +0.410 HD
ATOM      3  C   LIG    1       -0.080   0.690   0.465  0.00  0.00    +0.710 C 
ATOM      4  N   LIG    1       -1.261   0.044   0.412  0.00  0.00    -0.620 N 
ATOM      5  C   LIG    1       -1.412  -1.290   1.009  0.00  0.00    +0.270 C 
ATOM      6  C   LIG    1       -2.603  -1.260   1.978  0.00  0.00    +0.010 C 
ATOM      7  C   LIG    1       -3.845  -0.761   1.236  0.00  0.00    +0.170 C 
ATOM      8  C   LIG    1       -3.600   0.663   0.730  0.00  0.00    +0.040 C 
ATOM      9  C   LIG    1       -2.421   0.657  -0.249  0.00  0.00    +0.310 C 
ATOM     10  O   LIG    1        0.009   1.830   0.052  0.00  0.00    -0.570 OA
ENDROOT
BRANCH   1  16
ATOM     11  C   LIG    1        3.413   0.129   1.277  0.00  0.00    +0.290 A 
ATOM     12  N   LIG    1        4.531   0.807   1.470  0.00  0.00    -0.520 NA
ATOM     13  C   LIG    1        4.535   2.123   1.577  0.00  0.00    +0.270 A 
ATOM     14  C   LIG    1        3.362   2.846   1.491  0.00  0.00    -0.040 A 
ATOM     15  C   LIG    1        2.164   2.178   1.284  0.00  0.00    +0.110 A 
ATOM     16  C   LIG    1        2.189   0.793   1.180  0.00  0.00    +0.100 A 
BRANCH  11  18
ATOM     17  C   LIG    1        4.739  -1.843   1.280  0.00  0.00    +0.260 C 
ATOM     18  O   LIG    1        3.455  -1.224   1.172  0.00  0.00    -0.320 OA
ENDBRANCH  11  18
ENDBRANCH   1  16
BRANCH   7  19
ATOM     19  O   LIG    1       -4.964  -0.764   2.124  0.00  0.00    -0.320 OA
BRANCH  19  20
ATOM     20  C   LIG    1       -5.775  -1.855   2.091  0.00  0.00    +0.090 A 
ATOM     21  C   LIG    1       -6.780  -1.944   1.139  0.00  0.00    -0.100 A 
ATOM     22  C   LIG    1       -7.599  -3.057   1.103  0.00  0.00    +0.020 A 
ATOM     23  C   LIG    1       -7.424  -4.074   2.023  0.00  0.00    +0.010 A 
ATOM     24  C   LIG    1       -6.426  -3.985   2.976  0.00  0.00    +0.010 A 
ATOM     25  C   LIG    1       -6.975  -0.832   0.141  0.00  0.00    +0.090 C 
ATOM     26  C   LIG    1       -5.601  -2.877   3.012  0.00  0.00    -0.100 A 
ATOM     27  C   LIG    1       -4.514  -2.780   4.051  0.00  0.00    +0.090 C 
ENDBRANCH  19  20
ENDBRANCH   7  19
TORSDOF 4
