REMARK  Name = ZINCrH00000No565.0
REMARK                            x       y       z     vdW  Elec       q    Type
REMARK                         _______ _______ _______ _____ _____    ______ ____
ROOT
ATOM      1  C   LIG    1        1.274  -2.534  -2.354  0.00  0.00    +0.200 A 
ATOM      2  C   LIG    1        1.825  -1.783  -3.351  0.00  0.00    -0.080 A 
ATOM      3  C   LIG    1        2.468  -2.418  -4.428  0.00  0.00    +0.060 A 
ATOM      4  C   LIG    1        2.535  -3.762  -4.486  0.00  0.00    +0.150 A 
ATOM      5  N   LIG    1        1.983  -4.534  -3.496  0.00  0.00    -0.360 N 
ATOM      6  C   LIG    1        1.913  -5.887  -3.317  0.00  0.00    +0.170 A 
ATOM      7  C   LIG    1        1.234  -6.098  -2.131  0.00  0.00    +0.110 A 
ATOM      8  N   LIG    1        0.909  -4.896  -1.620  0.00  0.00    -0.420 NA
ATOM      9  C   LIG    1        1.351  -3.945  -2.426  0.00  0.00    +0.210 A 
ENDROOT
BRANCH   7  10
ATOM     10  C   LIG    1        0.921  -7.410  -1.532  0.00  0.00    +0.060 A 
ATOM     11  C   LIG    1        0.895  -7.695  -0.202  0.00  0.00    -0.020 A 
ATOM     12  C   LIG    1        0.549  -9.057  -0.084  0.00  0.00    -0.060 A 
ATOM     13  C   LIG    1        0.392  -9.533  -1.333  0.00  0.00    +0.180 A 
ATOM     14  O   LIG    1        0.617  -8.536  -2.207  0.00  0.00    -0.160 OA
ENDBRANCH   7  10
BRANCH   6  15
ATOM     15  N   LIG    1        2.428  -6.867  -4.166  0.00  0.00    -0.570 N 
ATOM     16  H   LIG    1        3.123  -7.425  -3.694  0.00  0.00    +0.370 HD
BRANCH  15  17
ATOM     17  C   LIG    1        2.975  -6.267  -5.390  0.00  0.00    +0.190 C 
BRANCH  17  18
ATOM     18  C   LIG    1        3.394  -7.376  -6.358  0.00  0.00    -0.030 C 
ATOM     19  C   LIG    1        4.003  -6.769  -7.646  0.00  0.00    +0.010 C 
ATOM     20  C   LIG    1        3.406  -7.680  -8.748  0.00  0.00    +0.200 C 
ATOM     21  O   LIG    1        2.068  -7.949  -8.274  0.00  0.00    -0.380 OA
ATOM     22  C   LIG    1        2.159  -8.152  -6.854  0.00  0.00    +0.210 C 
ENDBRANCH  17  18
ENDBRANCH  15  17
ENDBRANCH   6  15
BRANCH   1  23
ATOM     23  O   LIG    1        0.653  -1.932  -1.305  0.00  0.00    -0.290 OA
BRANCH  23  24
ATOM     24  C   LIG    1        0.617  -0.504  -1.304  0.00  0.00    +0.200 C 
BRANCH  24  25
ATOM     25  C   LIG    1       -0.117  -0.013  -0.055  0.00  0.00    +0.060 C 
BRANCH  25  26
ATOM     26  C   LIG    1       -0.155   1.517  -0.054  0.00  0.00    +0.200 C 
BRANCH  26  28
ATOM     27  N   LIG    1       -1.406   2.354   2.076  0.00  0.00    -0.430 NA
ATOM     28  C   LIG    1       -0.861   1.989   1.148  0.00  0.00    +0.200 C 
ENDBRANCH  26  28
ENDBRANCH  25  26
ENDBRANCH  24  25
ENDBRANCH  23  24
ENDBRANCH   1  23
TORSDOF 9
