REMARK  Name = ZINCAx0000000afb.0
REMARK                            x       y       z     vdW  Elec       q    Type
REMARK                         _______ _______ _______ _____ _____    ______ ____
ROOT
ATOM      1  C   LIG    1       -6.482   2.959  -1.835  0.00  0.00    +0.100 C 
ATOM      2  C   LIG    1       -5.149   3.421  -1.243  0.00  0.00    +0.170 C 
ATOM      3  N   LIG    1       -5.188   3.362   0.229  0.00  0.00    -0.720 N 
ATOM      4  H   LIG    1       -5.784   3.857   0.813  0.00  0.00    +0.440 HD
ATOM      5  C   LIG    1       -4.239   2.486   0.604  0.00  0.00    +0.710 C 
ATOM      6  N   LIG    1       -3.578   1.971  -0.439  0.00  0.00    -0.560 N 
ATOM      7  O   LIG    1       -4.005   2.197   1.761  0.00  0.00    -0.530 OA
ATOM      8  C   LIG    1       -4.039   2.456  -1.609  0.00  0.00    +0.540 C 
ATOM      9  O   LIG    1       -3.647   2.179  -2.722  0.00  0.00    -0.450 OA
ENDROOT
BRANCH   2  10
ATOM     10  C   LIG    1       -4.815   4.815  -1.709  0.00  0.00    -0.090 A 
ATOM     11  C   LIG    1       -5.288   5.886  -1.014  0.00  0.00    +0.050 A 
ATOM     12  C   LIG    1       -4.978   7.187  -1.446  0.00  0.00    -0.050 A 
ATOM     13  C   LIG    1       -5.448   8.316  -0.755  0.00  0.00    +0.030 A 
ATOM     14  C   LIG    1       -5.128   9.561  -1.203  0.00  0.00    +0.000 A 
ATOM     15  C   LIG    1       -4.338   9.734  -2.338  0.00  0.00    +0.010 A 
ATOM     16  C   LIG    1       -3.865   8.663  -3.032  0.00  0.00    +0.020 A 
ATOM     17  C   LIG    1       -4.176   7.363  -2.601  0.00  0.00    -0.050 A 
ATOM     18  C   LIG    1       -3.705   6.233  -3.292  0.00  0.00    +0.030 A 
ATOM     19  C   LIG    1       -4.021   4.988  -2.841  0.00  0.00    +0.030 A 
ENDBRANCH   2  10
BRANCH   6  20
ATOM     20  C   LIG    1       -2.492   0.995  -0.324  0.00  0.00    +0.360 C 
BRANCH  20  21
ATOM     21  C   LIG    1       -1.175   1.719  -0.218  0.00  0.00    +0.510 C 
ATOM     22  N   LIG    1       -0.028   1.020  -0.102  0.00  0.00    -0.700 N 
ATOM     23  H   LIG    1       -0.051   0.050  -0.088  0.00  0.00    +0.400 HD
ATOM     24  O   LIG    1       -1.146   2.932  -0.236  0.00  0.00    -0.520 OA
BRANCH  22  25
ATOM     25  C   LIG    1        1.253   1.724  -0.005  0.00  0.00    +0.300 C 
BRANCH  25  26
ATOM     26  C   LIG    1        1.514   2.094   1.433  0.00  0.00    -0.100 A 
ATOM     27  C   LIG    1        1.196   1.207   2.444  0.00  0.00    +0.020 A 
ATOM     28  C   LIG    1        1.441   1.544   3.762  0.00  0.00    +0.000 A 
ATOM     29  C   LIG    1        1.994   2.773   4.069  0.00  0.00    +0.000 A 
ATOM     30  C   LIG    1        2.308   3.663   3.059  0.00  0.00    +0.000 A 
ATOM     31  C   LIG    1        2.068   3.323   1.740  0.00  0.00    +0.020 A 
ENDBRANCH  25  26
BRANCH  25  32
ATOM     32  C   LIG    1        2.375   0.815  -0.510  0.00  0.00    +0.200 C 
BRANCH  32  33
ATOM     33  N   LIG    1        2.064   0.365  -1.873  0.00  0.00    -0.530 NA
ATOM     34  C   LIG    1        2.859  -0.819  -2.231  0.00  0.00    +0.150 C 
ATOM     35  C   LIG    1        2.462  -1.288  -3.633  0.00  0.00    +0.220 C 
ATOM     36  O   LIG    1        2.643  -0.214  -4.560  0.00  0.00    -0.380 OA
ATOM     37  C   LIG    1        1.882   0.955  -4.241  0.00  0.00    +0.220 C 
ATOM     38  C   LIG    1        2.274   1.447  -2.846  0.00  0.00    +0.160 C 
ENDBRANCH  32  33
ENDBRANCH  25  32
ENDBRANCH  22  25
ENDBRANCH  20  21
ENDBRANCH   6  20
TORSDOF 7
