REMARK  Name = ZINCrH000004q3lJ.0
REMARK                            x       y       z     vdW  Elec       q    Type
REMARK                         _______ _______ _______ _____ _____    ______ ____
ROOT
ATOM      1  N   LIG    1       -2.699   3.561   0.329  0.00  0.00    -0.690 N 
ATOM      2  H   LIG    1       -2.589   4.525   0.317  0.00  0.00    +0.410 HD
ATOM      3  C   LIG    1       -3.913   3.019   0.107  0.00  0.00    +0.710 C 
ATOM      4  N   LIG    1       -4.969   3.814  -0.154  0.00  0.00    -0.620 N 
ATOM      5  O   LIG    1       -4.055   1.812   0.142  0.00  0.00    -0.560 OA
ENDROOT
BRANCH   1  10
ATOM      6  C   LIG    1        0.744   2.271   0.355  0.00  0.00    -0.440 A 
ATOM      7  C   LIG    1        0.579   1.099   1.070  0.00  0.00    +0.060 A 
ATOM      8  C   LIG    1       -0.672   0.743   1.540  0.00  0.00    +0.020 A 
ATOM      9  C   LIG    1       -1.761   1.554   1.291  0.00  0.00    +0.060 A 
ATOM     10  C   LIG    1       -1.598   2.734   0.578  0.00  0.00    +0.150 A 
ATOM     11  C   LIG    1       -0.341   3.090   0.108  0.00  0.00    +0.070 A 
BRANCH   6  13
ATOM     12  C   LIG    1        2.393   1.952  -1.884  0.00  0.00    -0.200 C 
ATOM     13  S   LIG    1        2.340   2.721  -0.241  0.00  0.00    +1.330 S 
ATOM     14  O   LIG    1        3.216   2.026   0.635  0.00  0.00    -0.850 OA
ENDBRANCH   6  13
ENDBRANCH   1  10
BRANCH   4  15
ATOM     15  C   LIG    1       -4.790   5.266  -0.237  0.00  0.00    +0.250 C 
BRANCH  15  16
ATOM     16  C   LIG    1       -4.617   5.676  -1.701  0.00  0.00    +0.110 C 
ATOM     17  C   LIG    1       -3.382   4.974  -2.304  0.00  0.00    -0.010 C 
ATOM     18  C   LIG    1       -2.763   6.038  -3.245  0.00  0.00    +0.020 C 
ATOM     19  C   LIG    1       -2.968   7.354  -2.456  0.00  0.00    +0.020 C 
ATOM     20  C   LIG    1       -4.354   7.189  -1.798  0.00  0.00    +0.050 C 
BRANCH  16  21
ATOM     21  O   LIG    1       -5.787   5.333  -2.446  0.00  0.00    -0.550 OA
ATOM     22  H   LIG    1       -6.000   4.390  -2.433  0.00  0.00    +0.370 HD
ENDBRANCH  16  21
ENDBRANCH  15  16
ENDBRANCH   4  15
BRANCH   4  23
ATOM     23  C   LIG    1       -6.296   3.228  -0.355  0.00  0.00    +0.350 C 
BRANCH  23  24
ATOM     24  C   LIG    1       -7.011   3.138   0.968  0.00  0.00    -0.110 A 
ATOM     25  C   LIG    1       -6.887   2.002   1.746  0.00  0.00    +0.040 A 
ATOM     26  C   LIG    1       -7.539   1.922   2.962  0.00  0.00    +0.000 A 
ATOM     27  C   LIG    1       -8.324   2.974   3.396  0.00  0.00    +0.010 A 
ATOM     28  C   LIG    1       -8.453   4.108   2.616  0.00  0.00    +0.000 A 
ATOM     29  C   LIG    1       -7.796   4.190   1.402  0.00  0.00    +0.010 A 
ENDBRANCH  23  24
ENDBRANCH   4  23
TORSDOF 7
