REMARK  Name = ZINCrg00000bNTru.0
REMARK                            x       y       z     vdW  Elec       q    Type
REMARK                         _______ _______ _______ _____ _____    ______ ____
ROOT
ATOM      1  C   LIG    1       -0.738  -0.730   1.424  0.00  0.00    +0.600 C 
ATOM      2  N   LIG    1       -1.379  -0.171   0.379  0.00  0.00    -0.610 N 
ATOM      3  C   LIG    1       -0.694   0.011  -0.908  0.00  0.00    +0.260 C 
ATOM      4  C   LIG    1       -0.779   1.490  -1.308  0.00  0.00    +0.260 C 
ATOM      5  N   LIG    1       -2.176   1.929  -1.185  0.00  0.00    -0.600 N 
ATOM      6  C   LIG    1       -2.864   1.750   0.101  0.00  0.00    +0.290 C 
ATOM      7  C   LIG    1       -2.814   2.488  -2.232  0.00  0.00    +0.570 C 
ATOM      8  O   LIG    1       -3.992   2.776  -2.143  0.00  0.00    -0.520 OA
ATOM      9  C   LIG    1       -2.779   0.272   0.501  0.00  0.00    +0.220 C 
ATOM     10  C   LIG    1       -3.248   0.103   1.947  0.00  0.00    +0.060 C 
ATOM     11  O   LIG    1       -1.343  -0.967   2.452  0.00  0.00    -0.520 OA
ENDROOT
BRANCH   7  12
ATOM     12  C   LIG    1       -2.083   2.749  -3.488  0.00  0.00    -0.150 A 
ATOM     13  C   LIG    1       -2.659   2.446  -4.688  0.00  0.00    +0.320 A 
ATOM     14  N   LIG    1       -1.996   2.688  -5.849  0.00  0.00    -0.400 N 
ATOM     15  C   LIG    1       -2.305   2.501  -7.162  0.00  0.00    +0.160 A 
ATOM     16  N   LIG    1       -1.283   2.910  -7.867  0.00  0.00    -0.240 NA
ATOM     17  N   LIG    1       -0.350   3.342  -7.094  0.00  0.00    -0.280 NA
ATOM     18  C   LIG    1       -3.589   1.927  -7.703  0.00  0.00    +0.200 C 
ATOM     19  C   LIG    1       -0.733   3.230  -5.834  0.00  0.00    +0.190 A 
ATOM     20  C   LIG    1       -0.117   3.546  -4.605  0.00  0.00    +0.100 A 
ATOM     21  C   LIG    1       -0.781   3.309  -3.446  0.00  0.00    +0.070 A 
ENDBRANCH   7  12
BRANCH   1  28
ATOM     22  C   LIG    1        1.354  -0.665   3.810  0.00  0.00    +0.170 C 
ATOM     23  C   LIG    1        1.639  -1.028   2.375  0.00  0.00    +0.130 A 
ATOM     24  N   LIG    1        2.798  -1.374   1.887  0.00  0.00    -0.290 NA
ATOM     25  N   LIG    1        2.655  -1.633   0.519  0.00  0.00    -0.460 N 
ATOM     26  H   LIG    1        3.364  -1.909  -0.082  0.00  0.00    +0.450 HD
ATOM     27  C   LIG    1        1.370  -1.440   0.181  0.00  0.00    +0.290 A 
ATOM     28  C   LIG    1        0.697  -1.052   1.322  0.00  0.00    -0.290 A 
ENDBRANCH   1  28
TORSDOF 2
