REMARK  Name = ZINCvU0000000C2J.0
REMARK                            x       y       z     vdW  Elec       q    Type
REMARK                         _______ _______ _______ _____ _____    ______ ____
ROOT
ATOM      1  O   LIG    1        0.637   3.582   0.076  0.00  0.00    -0.510 OA
ATOM      2  C   LIG    1        1.547   2.793   0.221  0.00  0.00    +0.540 C 
ATOM      3  N   LIG    1        1.298   1.469   0.211  0.00  0.00    -0.600 N 
ENDROOT
BRANCH   3   4
ATOM      4  C   LIG    1       -0.051   0.979  -0.080  0.00  0.00    +0.250 C 
ATOM      5  C   LIG    1       -1.023   1.501   0.980  0.00  0.00    +0.010 C 
ATOM      6  C   LIG    1       -2.432   0.989   0.677  0.00  0.00    +0.020 C 
ATOM      7  C   LIG    1       -2.869   1.486  -0.703  0.00  0.00    +0.010 C 
ATOM      8  C   LIG    1       -1.897   0.964  -1.764  0.00  0.00    +0.010 C 
ATOM      9  C   LIG    1       -0.488   1.476  -1.460  0.00  0.00    -0.000 C 
ENDBRANCH   3   4
BRANCH   3  10
ATOM     10  C   LIG    1        2.378   0.519   0.491  0.00  0.00    +0.340 C 
BRANCH  10  11
ATOM     11  C   LIG    1        2.975   0.040  -0.807  0.00  0.00    -0.120 A 
ATOM     12  C   LIG    1        2.410  -1.032  -1.474  0.00  0.00    +0.060 A 
ATOM     13  C   LIG    1        2.953  -1.468  -2.667  0.00  0.00    -0.010 A 
ATOM     14  C   LIG    1        4.071  -0.840  -3.189  0.00  0.00    +0.110 A 
ATOM     15  C   LIG    1        4.639   0.230  -2.518  0.00  0.00    -0.010 A 
ATOM     16  F   LIG    1        4.606  -1.270  -4.353  0.00  0.00    -0.140 F 
ATOM     17  C   LIG    1        4.091   0.668  -1.328  0.00  0.00    +0.050 A 
ENDBRANCH  10  11
ENDBRANCH   3  10
BRANCH   2  18
ATOM     18  C   LIG    1        2.956   3.294   0.412  0.00  0.00    +0.090 C 
BRANCH  18  19
ATOM     19  S   LIG    1        2.948   5.103   0.482  0.00  0.00    +0.160 S 
BRANCH  19  20
ATOM     20  C   LIG    1        4.670   5.407   0.704  0.00  0.00    +0.120 A 
ATOM     21  N   LIG    1        5.615   4.500   0.789  0.00  0.00    -0.290 NA
ATOM     22  N   LIG    1        6.752   5.079   0.946  0.00  0.00    -0.260 NA
ATOM     23  C   LIG    1        6.579   6.378   0.975  0.00  0.00    +0.210 A 
ATOM     24  O   LIG    1        5.257   6.613   0.823  0.00  0.00    -0.180 OA
BRANCH  23  25
ATOM     25  C   LIG    1        7.635   7.398   1.144  0.00  0.00    -0.020 A 
ATOM     26  C   LIG    1        8.967   7.009   1.292  0.00  0.00    +0.090 A 
ATOM     27  C   LIG    1        9.949   7.967   1.449  0.00  0.00    +0.030 A 
ATOM     28  C   LIG    1        9.615   9.309   1.461  0.00  0.00    +0.060 A 
ATOM     29  C   LIG    1        8.296   9.702   1.315  0.00  0.00    +0.040 A 
ATOM     30  C   LIG    1        7.305   8.755   1.151  0.00  0.00    -0.010 A 
ATOM     31 CL   LIG    1        5.652   9.250   0.962  0.00  0.00    -0.040 Cl
ENDBRANCH  23  25
ENDBRANCH  19  20
ENDBRANCH  18  19
ENDBRANCH   2  18
TORSDOF 7
