REMARK  Name = ZINCrH00000No4Ph.0
REMARK                            x       y       z     vdW  Elec       q    Type
REMARK                         _______ _______ _______ _____ _____    ______ ____
ROOT
ATOM      1  N   LIG    1        2.412   1.761  -0.012  0.00  0.00    -0.640 N 
ATOM      2  H   LIG    1        2.575   0.805  -0.019  0.00  0.00    +0.410 HD
ATOM      3  C   LIG    1        3.449   2.622  -0.017  0.00  0.00    +0.720 C 
ATOM      4  N   LIG    1        4.713   2.155  -0.032  0.00  0.00    -0.630 N 
ATOM      5  C   LIG    1        5.102   0.737  -0.038  0.00  0.00    +0.240 C 
ATOM      6  C   LIG    1        6.644   0.685  -0.031  0.00  0.00    +0.070 C 
ATOM      7  C   LIG    1        7.034   2.067   0.558  0.00  0.00    +0.090 C 
ATOM      8  C   LIG    1        5.934   2.980  -0.039  0.00  0.00    +0.320 C 
ATOM      9  O   LIG    1        3.244   3.821  -0.008  0.00  0.00    -0.560 OA
ENDROOT
BRANCH   7  10
ATOM     10  C   LIG    1        8.401   2.488   0.086  0.00  0.00    +0.160 A 
ATOM     11  N   LIG    1        8.803   2.554  -1.152  0.00  0.00    -0.280 NA
ATOM     12  N   LIG    1       10.012   2.989  -1.190  0.00  0.00    -0.290 NA
ATOM     13  C   LIG    1       10.421   3.233   0.026  0.00  0.00    +0.200 A 
ATOM     14  C   LIG    1       11.741   3.873   0.390  0.00  0.00    +0.150 C 
ATOM     15  C   LIG    1       11.455   5.342   0.754  0.00  0.00    +0.030 C 
ATOM     16  C   LIG    1       10.359   5.362   1.824  0.00  0.00    +0.000 C 
ATOM     17  C   LIG    1       10.912   4.649   3.043  0.00  0.00    +0.010 C 
ATOM     18  C   LIG    1       10.746   3.139   2.975  0.00  0.00    +0.030 C 
ATOM     19  C   LIG    1        9.408   2.762   2.340  0.00  0.00    +0.280 C 
ATOM     20  N   LIG    1        9.447   2.865   0.878  0.00  0.00    -0.460 N 
ENDBRANCH   7  10
BRANCH   1  24
ATOM     21  C   LIG    1       -1.026   3.487   0.031  0.00  0.00    -0.010 A 
ATOM     22  N   LIG    1       -1.136   2.203   0.019  0.00  0.00    -0.450 NA
ATOM     23  C   LIG    1       -0.018   1.503   0.010  0.00  0.00    +0.010 A 
ATOM     24  C   LIG    1        1.100   2.247   0.004  0.00  0.00    +0.010 A 
ATOM     25  C   LIG    1        0.002  -0.004   0.002  0.00  0.00    +0.140 C 
ATOM     26  S   LIG    1        0.622   3.942   0.017  0.00  0.00    +0.240 S 
BRANCH  21  28
ATOM     27  C   LIG    1       -2.563   4.769   1.495  0.00  0.00    +0.040 C 
ATOM     28  C   LIG    1       -2.185   4.450   0.047  0.00  0.00    +0.130 C 
ENDBRANCH  21  28
ENDBRANCH   1  24
TORSDOF 3
