REMARK  Name = ZINCrH000004q5hc.0
REMARK                            x       y       z     vdW  Elec       q    Type
REMARK                         _______ _______ _______ _____ _____    ______ ____
ROOT
ATOM      1  N   LIG    1        5.283   3.362   1.397  0.00  0.00    -0.530 NA
ATOM      2  C   LIG    1        5.079   4.585   0.607  0.00  0.00    +0.150 C 
ATOM      3  C   LIG    1        4.681   4.204  -0.821  0.00  0.00    +0.230 C 
ATOM      4  O   LIG    1        3.510   3.384  -0.781  0.00  0.00    -0.380 OA
ATOM      5  C   LIG    1        3.673   2.184  -0.020  0.00  0.00    +0.230 C 
ATOM      6  C   LIG    1        4.061   2.545   1.416  0.00  0.00    +0.180 C 
ENDROOT
BRANCH   5   7
ATOM      7  C   LIG    1        2.378   1.413  -0.013  0.00  0.00    -0.090 A 
ATOM      8  C   LIG    1        2.397   0.030  -0.021  0.00  0.00    +0.070 A 
ATOM      9  C   LIG    1        1.211  -0.678  -0.013  0.00  0.00    +0.010 A 
ATOM     10  C   LIG    1        0.002  -0.004   0.002  0.00  0.00    +0.110 A 
ATOM     11  C   LIG    1       -0.017   1.382   0.010  0.00  0.00    -0.080 A 
ATOM     12 CL   LIG    1       -1.531   2.230   0.021  0.00  0.00    -0.050 Cl
ATOM     13  F   LIG    1       -1.158  -0.696   0.009  0.00  0.00    -0.120 F 
ATOM     14  C   LIG    1        1.172   2.088   0.002  0.00  0.00    +0.100 A 
ENDBRANCH   5   7
BRANCH   1  15
ATOM     15  C   LIG    1        5.723   3.684   2.761  0.00  0.00    +0.310 C 
BRANCH  15  19
ATOM     16  C   LIG    1        8.000   6.555   2.652  0.00  0.00    +0.110 A 
ATOM     17  N   LIG    1        8.778   5.503   2.595  0.00  0.00    -0.370 NA
ATOM     18  O   LIG    1        8.138   4.478   2.623  0.00  0.00    +0.110 OA
ATOM     19  C   LIG    1        6.821   4.715   2.705  0.00  0.00    -0.020 A 
ATOM     20  C   LIG    1        6.668   6.058   2.721  0.00  0.00    -0.050 A 
BRANCH  16  23
ATOM     21  C   LIG    1       10.950   7.595   2.485  0.00  0.00    +0.160 C 
ATOM     22  C   LIG    1        9.704   8.439   2.568  0.00  0.00    +0.130 A 
ATOM     23  C   LIG    1        8.421   7.978   2.641  0.00  0.00    -0.190 A 
ATOM     24  C   LIG    1        7.570   9.099   2.696  0.00  0.00    +0.270 A 
ATOM     25  N   LIG    1        8.313  10.174   2.668  0.00  0.00    -0.290 NA
ATOM     26  N   LIG    1        9.655   9.785   2.584  0.00  0.00    -0.370 N 
ATOM     27  C   LIG    1       10.808  10.687   2.523  0.00  0.00    +0.360 C 
ENDBRANCH  16  23
ENDBRANCH  15  19
ENDBRANCH   1  15
TORSDOF 4
