REMARK  Name = ZINCnE000001KM4T.0
REMARK                            x       y       z     vdW  Elec       q    Type
REMARK                         _______ _______ _______ _____ _____    ______ ____
ROOT
ATOM      1  C   LIG    1        1.221  -0.687  -0.013  0.00  0.00    +0.080 A 
ATOM      2  C   LIG    1        2.415   0.017  -0.020  0.00  0.00    -0.090 A 
ATOM      3  C   LIG    1        2.407   1.398  -0.013  0.00  0.00    +0.120 A 
ATOM      4  C   LIG    1        1.189   2.090   0.002  0.00  0.00    -0.160 A 
ATOM      5  C   LIG    1       -0.017   1.376   0.010  0.00  0.00    +0.040 A 
ATOM      6  F   LIG    1        3.572   2.082  -0.019  0.00  0.00    -0.120 F 
ATOM      7  C   LIG    1        0.002  -0.004   0.002  0.00  0.00    +0.160 A 
ENDROOT
BRANCH   4   8
ATOM      8  C   LIG    1        1.175   3.560   0.009  0.00  0.00    +0.520 C 
ATOM      9  O   LIG    1        2.230   4.182   0.003  0.00  0.00    -0.670 OA
ATOM     10  O   LIG    1        0.110   4.162   0.022  0.00  0.00    -0.690 OA
ENDBRANCH   4   8
BRANCH   1  12
ATOM     11  C   LIG    1        2.516  -2.679  -0.035  0.00  0.00    +0.220 C 
ATOM     12  O   LIG    1        1.236  -2.045  -0.020  0.00  0.00    -0.320 OA
ENDBRANCH   1  12
BRANCH   7  13
ATOM     13  N   LIG    1       -1.202  -0.721   0.010  0.00  0.00    -0.750 N 
ATOM     14  H   LIG    1       -1.189  -1.690   0.004  0.00  0.00    +0.400 HD
BRANCH  13  15
ATOM     15  C   LIG    1       -2.480  -0.005   0.026  0.00  0.00    +0.420 C 
BRANCH  15  16
ATOM     16  C   LIG    1       -3.613  -0.999   0.031  0.00  0.00    +0.190 A 
ATOM     17  N   LIG    1       -4.173  -1.505   1.093  0.00  0.00    -0.460 NA
ATOM     18  C   LIG    1       -5.144  -2.352   0.706  0.00  0.00    -0.000 A 
ATOM     19  C   LIG    1       -5.170  -2.356  -0.637  0.00  0.00    +0.140 A 
ATOM     20  O   LIG    1       -4.213  -1.504  -1.055  0.00  0.00    -0.190 OA
BRANCH  18  21
ATOM     21  C   LIG    1       -6.041  -3.151   1.616  0.00  0.00    +0.010 C 
ATOM     22  C   LIG    1       -7.486  -3.053   1.121  0.00  0.00    +0.040 C 
ATOM     23  C   LIG    1       -5.951  -2.595   3.038  0.00  0.00    +0.040 C 
ATOM     24  C   LIG    1       -5.598  -4.615   1.611  0.00  0.00    +0.040 C 
ENDBRANCH  18  21
ENDBRANCH  15  16
ENDBRANCH  13  15
ENDBRANCH   7  13
TORSDOF 6
