REMARK  Name = ZINCrH000004jBRi.0
REMARK                            x       y       z     vdW  Elec       q    Type
REMARK                         _______ _______ _______ _____ _____    ______ ____
ROOT
ATOM      1  N   LIG    1       -2.161  -0.152  -2.835  0.00  0.00    -0.680 N 
ATOM      2  H   LIG    1       -1.516  -0.112  -3.559  0.00  0.00    +0.410 HD
ATOM      3  C   LIG    1       -1.738  -0.157  -1.556  0.00  0.00    +0.510 C 
ATOM      4  O   LIG    1       -2.535  -0.304  -0.654  0.00  0.00    -0.490 OA
ENDROOT
BRANCH   1   8
ATOM      5  C   LIG    1       -6.237  -0.307  -3.683  0.00  0.00    -0.150 A 
ATOM      6  C   LIG    1       -5.381   0.448  -4.490  0.00  0.00    +0.100 A 
ATOM      7  C   LIG    1       -4.035   0.497  -4.207  0.00  0.00    -0.020 A 
ATOM      8  C   LIG    1       -3.525  -0.203  -3.119  0.00  0.00    +0.170 A 
ATOM      9  C   LIG    1       -4.373  -0.960  -2.316  0.00  0.00    +0.020 A 
ATOM     10  C   LIG    1       -5.721  -1.009  -2.590  0.00  0.00    +0.060 A 
BRANCH   5  13
ATOM     11  C   LIG    1      -10.000  -0.595  -3.275  0.00  0.00    +0.290 C 
ATOM     12  N   LIG    1       -8.577  -0.416  -2.978  0.00  0.00    -0.620 N 
ATOM     13  C   LIG    1       -7.680  -0.363  -3.983  0.00  0.00    +0.560 C 
ATOM     14  O   LIG    1       -8.061  -0.360  -5.138  0.00  0.00    -0.530 OA
ATOM     15  C   LIG    1       -8.127  -0.296  -1.589  0.00  0.00    +0.280 C 
ENDBRANCH   5  13
ENDBRANCH   1   8
BRANCH   3  16
ATOM     16  C   LIG    1       -0.274   0.021  -1.245  0.00  0.00    +0.220 C 
BRANCH  16  17
ATOM     17  N   LIG    1       -0.053  -0.165   0.195  0.00  0.00    -0.470 N 
ATOM     18  C   LIG    1       -0.259  -1.576   0.586  0.00  0.00    +0.260 C 
ATOM     19  C   LIG    1        1.174  -2.155   0.532  0.00  0.00    -0.050 C 
ATOM     20  C   LIG    1        2.039  -0.931   0.762  0.00  0.00    -0.120 A 
ATOM     21  C   LIG    1        3.366  -0.802   1.117  0.00  0.00    +0.000 A 
ATOM     22  C   LIG    1        3.924   0.456   1.272  0.00  0.00    +0.020 A 
ATOM     23  C   LIG    1        3.147   1.582   1.070  0.00  0.00    +0.050 A 
ATOM     24  C   LIG    1        1.822   1.458   0.709  0.00  0.00    +0.030 A 
ATOM     25 CL   LIG    1        4.338  -2.218   1.369  0.00  0.00    -0.060 Cl
ATOM     26  C   LIG    1        1.457  -2.774  -0.838  0.00  0.00    +0.050 C 
ATOM     27  C   LIG    1        1.385  -3.184   1.644  0.00  0.00    +0.050 C 
ATOM     28  C   LIG    1        1.252   0.195   0.553  0.00  0.00    +0.100 A 
ENDBRANCH  16  17
ENDBRANCH   3  16
TORSDOF 4
