REMARK  Name = ZINCqH0000031Hmf.0
REMARK                            x       y       z     vdW  Elec       q    Type
REMARK                         _______ _______ _______ _____ _____    ______ ____
ROOT
ATOM      1  N   LIG    1       -3.015  -0.632  -2.622  0.00  0.00    -0.680 N 
ATOM      2  H   LIG    1       -2.688  -0.127  -3.384  0.00  0.00    +0.410 HD
ATOM      3  C   LIG    1       -3.146  -0.033  -1.422  0.00  0.00    +0.510 C 
ATOM      4  O   LIG    1       -3.470  -0.683  -0.452  0.00  0.00    -0.500 OA
ENDROOT
BRANCH   1   9
ATOM      5  C   LIG    1       -4.251  -3.766  -4.095  0.00  0.00    -0.070 A 
ATOM      6  C   LIG    1       -4.012  -4.653  -3.062  0.00  0.00    -0.010 A 
ATOM      7  C   LIG    1       -3.442  -4.208  -1.883  0.00  0.00    +0.030 A 
ATOM      8  C   LIG    1       -3.106  -2.877  -1.736  0.00  0.00    +0.020 A 
ATOM      9  C   LIG    1       -3.350  -1.982  -2.770  0.00  0.00    +0.150 A 
ATOM     10  C   LIG    1       -3.922  -2.432  -3.953  0.00  0.00    -0.010 A 
BRANCH   5  11
ATOM     11  C   LIG    1       -4.872  -4.255  -5.378  0.00  0.00    +0.100 C 
BRANCH  11  12
ATOM     12  C   LIG    1       -3.769  -4.688  -6.346  0.00  0.00    +0.210 C 
BRANCH  12  13
ATOM     13  O   LIG    1       -4.367  -5.159  -7.583  0.00  0.00    -0.360 OA
BRANCH  13  15
ATOM     14  C   LIG    1       -4.078  -6.081  -9.854  0.00  0.00    +0.150 C 
ATOM     15  C   LIG    1       -3.530  -5.578  -8.544  0.00  0.00    +0.460 C 
ATOM     16  O   LIG    1       -2.336  -5.553  -8.358  0.00  0.00    -0.510 OA
ENDBRANCH  13  15
ENDBRANCH  12  13
ENDBRANCH  11  12
ENDBRANCH   5  11
ENDBRANCH   1   9
BRANCH   3  17
ATOM     17  C   LIG    1       -2.889   1.446  -1.287  0.00  0.00    +0.150 C 
BRANCH  17  18
ATOM     18  C   LIG    1       -3.102   1.864   0.145  0.00  0.00    -0.160 A 
ATOM     19  C   LIG    1       -4.189   2.472   0.646  0.00  0.00    +0.240 A 
ATOM     20  N   LIG    1       -4.023   2.696   1.986  0.00  0.00    -0.590 N 
ATOM     21  H   LIG    1       -4.675   3.123   2.564  0.00  0.00    +0.420 HD
ATOM     22  C   LIG    1       -2.794   2.225   2.390  0.00  0.00    +0.100 A 
ATOM     23  C   LIG    1       -2.135   2.197   3.614  0.00  0.00    -0.020 A 
ATOM     24  C   LIG    1       -0.877   1.642   3.702  0.00  0.00    +0.040 A 
ATOM     25  C   LIG    1       -0.259   1.109   2.579  0.00  0.00    -0.030 A 
ATOM     26  C   LIG    1       -0.889   1.125   1.366  0.00  0.00    -0.040 A 
ATOM     27  C   LIG    1       -0.209   0.544   0.153  0.00  0.00    +0.080 C 
ATOM     28  C   LIG    1       -2.161   1.688   1.254  0.00  0.00    -0.090 A 
ENDBRANCH  17  18
ENDBRANCH   3  17
TORSDOF 7
