REMARK  Name = ZINCrm00000IMNIC.1
REMARK                            x       y       z     vdW  Elec       q    Type
REMARK                         _______ _______ _______ _____ _____    ______ ____
ROOT
ATOM      1  C   LIG    1        1.385   8.711  -0.514  0.00  0.00    +0.200 C 
ATOM      2  C   LIG    1        1.739   8.962  -1.996  0.00  0.00    +0.230 C 
ATOM      3  N   LIG    1        3.036   8.265  -2.193  0.00  0.00    -0.430 NA
ATOM      4  C   LIG    1        2.898   7.008  -1.414  0.00  0.00    +0.260 C 
ATOM      5  C   LIG    1        2.147   7.426  -0.131  0.00  0.00    +0.190 C 
ENDROOT
BRANCH   3   6
ATOM      6  C   LIG    1        3.256   7.996  -3.534  0.00  0.00    +0.450 C 
ATOM      7  C   LIG    1        3.416   9.039  -4.449  0.00  0.00    -0.050 C 
ATOM      8  C   LIG    1        3.633   8.723  -5.777  0.00  0.00    +0.460 C 
ATOM      9  N   LIG    1        3.683   7.450  -6.140  0.00  0.00    -0.560 NA
ATOM     10  C   LIG    1        3.528   6.481  -5.251  0.00  0.00    +0.630 C 
ATOM     11  H   LIG    1        3.836   7.225  -7.072  0.00  0.00    +0.450 HD
ATOM     12  N   LIG    1        3.324   6.741  -3.968  0.00  0.00    -0.560 NA
BRANCH  10  13
ATOM     13  N   LIG    1        3.587   5.164  -5.671  0.00  0.00    -0.550 NA
ATOM     14  C   LIG    1        3.418   4.078  -4.702  0.00  0.00    +0.350 C 
ATOM     15  C   LIG    1        3.819   4.855  -7.084  0.00  0.00    +0.350 C 
ENDBRANCH  10  13
ENDBRANCH   3   6
BRANCH   5  16
ATOM     16  N   LIG    1        1.204   6.375   0.273  0.00  0.00    -0.480 N 
ATOM     17  H   LIG    1        0.472   6.295  -0.417  0.00  0.00    +0.430 HD
ATOM     18  H   LIG    1        1.692   5.495   0.349  0.00  0.00    +0.430 HD
BRANCH  16  19
ATOM     19  C   LIG    1        0.614   6.721   1.574  0.00  0.00    +0.150 C 
ATOM     20  C   LIG    1       -0.472   5.736   2.039  0.00  0.00    +0.100 C 
ATOM     21  C   LIG    1        0.656   4.930   2.705  0.00  0.00    +0.040 C 
ATOM     22  C   LIG    1        1.449   6.246   2.775  0.00  0.00    +0.100 C 
BRANCH  21  23
ATOM     23  C   LIG    1        0.285   4.376   4.056  0.00  0.00    +0.120 A 
ATOM     24  C   LIG    1       -0.528   5.112   4.896  0.00  0.00    -0.040 A 
ATOM     25  C   LIG    1       -0.864   4.594   6.138  0.00  0.00    +0.070 A 
ATOM     26  C   LIG    1       -0.366   3.349   6.489  0.00  0.00    -0.020 A 
ATOM     27  C   LIG    1        0.443   2.670   5.597  0.00  0.00    +0.270 A 
ATOM     28  N   LIG    1        0.741   3.194   4.424  0.00  0.00    -0.480 NA
ENDBRANCH  21  23
ENDBRANCH  16  19
ENDBRANCH   5  16
BRANCH   1  30
ATOM     29  C   LIG    1       -0.742   9.704  -0.031  0.00  0.00    +0.250 C 
ATOM     30  O   LIG    1       -0.023   8.516  -0.367  0.00  0.00    -0.390 OA
ENDBRANCH   1  30
TORSDOF 6
