REMARK  Name = ZINCqH0000038GVk.0
REMARK                            x       y       z     vdW  Elec       q    Type
REMARK                         _______ _______ _______ _____ _____    ______ ____
ROOT
ATOM      1  C   LIG    1       -8.746   3.326   3.979  0.00  0.00    +0.570 C 
ATOM      2  N   LIG    1       -8.043   2.757   2.980  0.00  0.00    -0.660 N 
ATOM      3  H   LIG    1       -8.457   2.616   2.115  0.00  0.00    +0.410 HD
ATOM      4  O   LIG    1       -8.200   3.589   5.033  0.00  0.00    -0.500 OA
ENDROOT
BRANCH   2   5
ATOM      5  C   LIG    1       -6.715   2.370   3.191  0.00  0.00    +0.110 A 
ATOM      6  C   LIG    1       -6.325   1.912   4.431  0.00  0.00    +0.070 A 
ATOM      7  C   LIG    1       -4.992   1.526   4.637  0.00  0.00    -0.130 A 
ATOM      8  C   LIG    1       -4.555   1.053   5.891  0.00  0.00    +0.120 A 
ATOM      9  C   LIG    1       -3.248   0.694   6.026  0.00  0.00    -0.070 A 
ATOM     10  C   LIG    1       -2.378   0.801   4.932  0.00  0.00    +0.420 A 
ATOM     11  N   LIG    1       -2.791   1.248   3.764  0.00  0.00    -0.550 NA
ATOM     12  C   LIG    1       -4.064   1.611   3.570  0.00  0.00    +0.170 A 
ATOM     13  C   LIG    1       -4.497   2.083   2.318  0.00  0.00    +0.050 A 
ATOM     14  C   LIG    1       -5.793   2.452   2.141  0.00  0.00    +0.030 A 
BRANCH  10  15
ATOM     15  N   LIG    1       -1.049   0.432   5.085  0.00  0.00    -0.610 N 
ATOM     16  C   LIG    1       -0.101   0.639   3.987  0.00  0.00    +0.290 C 
ATOM     17  C   LIG    1       -0.594  -0.165   6.343  0.00  0.00    +0.290 C 
ENDBRANCH  10  15
ENDBRANCH   2   5
BRANCH   1  22
ATOM     18  C   LIG    1      -14.242   4.493   3.268  0.00  0.00    +0.180 C 
ATOM     19  C   LIG    1      -12.779   4.183   3.457  0.00  0.00    +0.340 A 
ATOM     20  N   LIG    1      -12.298   3.055   2.973  0.00  0.00    -0.520 NA
ATOM     21  C   LIG    1      -11.021   2.745   3.110  0.00  0.00    +0.360 A 
ATOM     22  C   LIG    1      -10.180   3.631   3.794  0.00  0.00    -0.260 A 
ATOM     23  C   LIG    1      -10.734   4.816   4.291  0.00  0.00    +0.250 A 
ATOM     24  N   LIG    1      -12.021   5.048   4.103  0.00  0.00    -0.510 NA
BRANCH  23  25
ATOM     25  C   LIG    1       -9.877   5.811   5.030  0.00  0.00    +0.050 C 
ATOM     26  C   LIG    1      -10.288   5.843   6.503  0.00  0.00    +0.060 C 
ATOM     27  C   LIG    1      -10.066   7.201   4.417  0.00  0.00    +0.050 C 
ENDBRANCH  23  25
ENDBRANCH   1  22
TORSDOF 4
