REMARK  Name = ZINCtV000002KfqZ.0
REMARK                            x       y       z     vdW  Elec       q    Type
REMARK                         _______ _______ _______ _____ _____    ______ ____
ROOT
ATOM      1  C   LIG    1       -8.243   1.120  -0.567  0.00  0.00    +0.180 C 
ATOM      2  C   LIG    1       -7.385   2.356  -0.487  0.00  0.00    +0.150 A 
ATOM      3  N   LIG    1       -7.815   3.581  -0.515  0.00  0.00    -0.250 NA
ATOM      4  N   LIG    1       -6.731   4.458  -0.420  0.00  0.00    -0.300 N 
ATOM      5  C   LIG    1       -5.586   3.710  -0.330  0.00  0.00    +0.030 A 
ATOM      6  S   LIG    1       -3.838   3.835  -0.184  0.00  0.00    +0.200 S 
ATOM      7  C   LIG    1       -3.668   2.087  -0.181  0.00  0.00    -0.280 A 
ATOM      8  C   LIG    1       -4.869   1.500  -0.290  0.00  0.00    +0.200 A 
ATOM      9  C   LIG    1       -5.960   2.376  -0.369  0.00  0.00    -0.220 A 
ENDROOT
BRANCH   4  10
ATOM     10  C   LIG    1       -6.801   5.857  -0.416  0.00  0.00    +0.160 A 
ATOM     11  C   LIG    1       -5.917   6.596   0.360  0.00  0.00    +0.020 A 
ATOM     12  C   LIG    1       -5.985   7.975   0.358  0.00  0.00    +0.070 A 
ATOM     13  C   LIG    1       -6.941   8.621  -0.407  0.00  0.00    -0.040 A 
ATOM     14  C   LIG    1       -7.826   7.887  -1.177  0.00  0.00    +0.060 A 
ATOM     15 CL   LIG    1       -7.028  10.355  -0.403  0.00  0.00    -0.050 Cl
ATOM     16  C   LIG    1       -7.759   6.508  -1.183  0.00  0.00    +0.060 A 
ENDBRANCH   4  10
BRANCH   7  17
ATOM     17  C   LIG    1       -2.393   1.371  -0.081  0.00  0.00    +0.600 C 
ATOM     18  N   LIG    1       -1.239   2.060   0.019  0.00  0.00    -0.660 N 
ATOM     19  H   LIG    1       -1.257   3.026   0.105  0.00  0.00    +0.410 HD
ATOM     20  O   LIG    1       -2.377   0.154  -0.088  0.00  0.00    -0.500 OA
BRANCH  18  21
ATOM     21  C   LIG    1       -0.016   1.383  -0.001  0.00  0.00    +0.150 A 
ATOM     22  C   LIG    1        0.075   0.145  -0.619  0.00  0.00    +0.020 A 
ATOM     23  C   LIG    1        1.286  -0.519  -0.643  0.00  0.00    +0.030 A 
ATOM     24  C   LIG    1        2.394   0.051  -0.051  0.00  0.00    -0.020 A 
ATOM     25  C   LIG    1        2.307   1.290   0.573  0.00  0.00    -0.060 A 
ATOM     26  C   LIG    1        3.555   1.843   1.211  0.00  0.00    +0.080 C 
ATOM     27  C   LIG    1        3.415   3.344   1.453  0.00  0.00    +0.020 C 
ATOM     28  C   LIG    1        2.097   3.594   2.197  0.00  0.00    +0.020 C 
ATOM     29  C   LIG    1        0.942   3.312   1.238  0.00  0.00    +0.070 C 
ATOM     30  C   LIG    1        1.106   1.959   0.595  0.00  0.00    -0.100 A 
ENDBRANCH  18  21
ENDBRANCH   7  17
TORSDOF 3
