REMARK  Name = ZINCpe000000YdhP.0
REMARK                            x       y       z     vdW  Elec       q    Type
REMARK                         _______ _______ _______ _____ _____    ______ ____
ROOT
ATOM      1  N   LIG    1        3.437   2.566  -0.012  0.00  0.00    -0.490 NA
ATOM      2  C   LIG    1        3.248   3.384   1.197  0.00  0.00    +0.260 C 
ATOM      3  C   LIG    1        3.404   2.487   2.426  0.00  0.00    +0.230 C 
ATOM      4  N   LIG    1        4.639   1.714   2.328  0.00  0.00    -0.720 N 
ATOM      5  H   LIG    1        5.001   1.314   3.134  0.00  0.00    +0.400 HD
ATOM      6  C   LIG    1        5.294   1.533   1.176  0.00  0.00    +0.490 C 
ATOM      7  O   LIG    1        6.296   0.851   1.178  0.00  0.00    -0.530 OA
ATOM      8  C   LIG    1        4.839   2.140  -0.121  0.00  0.00    +0.240 C 
ENDROOT
BRANCH   8   9
ATOM      9  C   LIG    1        4.967   1.120  -1.223  0.00  0.00    -0.040 A 
ATOM     10  C   LIG    1        5.062  -0.223  -0.913  0.00  0.00    +0.040 A 
ATOM     11  C   LIG    1        5.176  -1.159  -1.924  0.00  0.00    +0.050 A 
ATOM     12  C   LIG    1        5.204  -0.751  -3.244  0.00  0.00    +0.030 A 
ATOM     13  C   LIG    1        5.114   0.594  -3.554  0.00  0.00    +0.060 A 
ATOM     14  C   LIG    1        4.996   1.529  -2.543  0.00  0.00    -0.150 A 
BRANCH  14  15
ATOM     15  C   LIG    1        4.898   2.994  -2.881  0.00  0.00    +0.500 C 
ATOM     16  F   LIG    1        6.012   3.667  -2.366  0.00  0.00    -0.180 F 
ATOM     17  F   LIG    1        3.732   3.525  -2.320  0.00  0.00    -0.140 F 
ATOM     18  F   LIG    1        4.861   3.152  -4.271  0.00  0.00    -0.180 F 
ENDBRANCH  14  15
ENDBRANCH   8   9
BRANCH   1  19
ATOM     19  C   LIG    1        2.534   1.407  -0.011  0.00  0.00    +0.300 C 
BRANCH  19  24
ATOM     20  C   LIG    1       -2.478   1.512  -0.634  0.00  0.00    +0.360 C 
ATOM     21  N   LIG    1       -1.077   1.919  -0.497  0.00  0.00    -0.450 N 
ATOM     22  N   LIG    1        0.027   1.078  -0.280  0.00  0.00    -0.500 N 
ATOM     23  H   LIG    1        0.011   0.112  -0.192  0.00  0.00    +0.440 HD
ATOM     24  C   LIG    1        1.117   1.875  -0.225  0.00  0.00    +0.400 A 
ATOM     25  N   LIG    1        0.743   3.117  -0.387  0.00  0.00    -0.540 NA
ATOM     26  C   LIG    1       -0.590   3.177  -0.552  0.00  0.00    +0.630 A 
ATOM     27  O   LIG    1       -1.244   4.189  -0.726  0.00  0.00    -0.530 OA
ENDBRANCH  19  24
ENDBRANCH   1  19
TORSDOF 4
