REMARK  Name = ZINCkj00000a7AoC.1
REMARK                            x       y       z     vdW  Elec       q    Type
REMARK                         _______ _______ _______ _____ _____    ______ ____
ROOT
ATOM      1  N   LIG    1        0.087   1.011  -4.764  0.00  0.00    -0.670 N 
ATOM      2  H   LIG    1        0.864   0.436  -4.678  0.00  0.00    +0.430 HD
ATOM      3  C   LIG    1       -0.460   1.571  -3.667  0.00  0.00    +0.700 C 
ATOM      4  N   LIG    1        0.003   1.248  -2.443  0.00  0.00    -0.720 N 
ATOM      5  H   LIG    1        0.730   0.613  -2.352  0.00  0.00    +0.410 HD
ATOM      6  O   LIG    1       -1.371   2.368  -3.781  0.00  0.00    -0.550 OA
ENDROOT
BRANCH   1  10
ATOM      7  C   LIG    1        0.623   1.609  -9.619  0.00  0.00    +0.200 C 
ATOM      8  C   LIG    1       -0.238   1.555  -8.383  0.00  0.00    +0.200 C 
ATOM      9  C   LIG    1        0.344   1.308  -7.158  0.00  0.00    +0.010 C 
ATOM     10  C   LIG    1       -0.463   1.260  -6.022  0.00  0.00    +0.310 C 
ATOM     11  C   LIG    1       -1.833   1.461  -6.176  0.00  0.00    +0.040 C 
ATOM     12  C   LIG    1       -2.337   1.708  -7.436  0.00  0.00    +0.190 C 
ATOM     13  C   LIG    1       -3.816   1.933  -7.615  0.00  0.00    +0.200 C 
ATOM     14  N   LIG    1       -1.540   1.746  -8.488  0.00  0.00    -0.470 NA
ATOM     15  H   LIG    1       -1.922   1.919  -9.362  0.00  0.00    +0.450 HD
ENDBRANCH   1  10
BRANCH   4  16
ATOM     16  C   LIG    1       -0.592   1.857  -1.250  0.00  0.00    +0.290 C 
BRANCH  16  17
ATOM     17  C   LIG    1        0.112   1.323  -0.001  0.00  0.00    +0.040 C 
BRANCH  17  18
ATOM     18  C   LIG    1       -0.510   1.958   1.245  0.00  0.00    +0.000 C 
ATOM     19  C   LIG    1       -1.946   1.438   1.473  0.00  0.00    +0.250 C 
ATOM     20  N   LIG    1       -2.096   1.331   2.930  0.00  0.00    -0.740 N 
ATOM     21  H   LIG    1       -2.948   1.259   3.388  0.00  0.00    +0.410 HD
ATOM     22  C   LIG    1       -0.902   1.346   3.547  0.00  0.00    +0.520 C 
ATOM     23  O   LIG    1       -0.739   1.266   4.746  0.00  0.00    -0.530 OA
ATOM     24  C   LIG    1        0.208   1.479   2.528  0.00  0.00    +0.070 C 
ENDBRANCH  17  18
ENDBRANCH  16  17
ENDBRANCH   4  16
TORSDOF 4
