REMARK  Name = ZINCrH000004s4fI.0
REMARK                            x       y       z     vdW  Elec       q    Type
REMARK                         _______ _______ _______ _____ _____    ______ ____
ROOT
ATOM      1  C   LIG    1       -0.438  -6.905   5.389  0.00  0.00    +0.510 C 
ATOM      2  N   LIG    1       -0.028  -6.048   4.434  0.00  0.00    -0.730 N 
ATOM      3  H   LIG    1        0.576  -6.349   3.738  0.00  0.00    +0.400 HD
ATOM      4  O   LIG    1       -1.194  -6.527   6.259  0.00  0.00    -0.530 OA
ENDROOT
BRANCH   1   5
ATOM      5  C   LIG    1        0.043  -8.333   5.376  0.00  0.00    +0.060 C 
BRANCH   5   6
ATOM      6  C   LIG    1       -0.566  -9.087   6.560  0.00  0.00    +0.060 C 
BRANCH   6   7
ATOM      7  C   LIG    1       -0.078 -10.537   6.547  0.00  0.00    +0.180 C 
BRANCH   7   8
ATOM      8  O   LIG    1       -0.647 -11.241   7.653  0.00  0.00    -0.310 OA
BRANCH   8  15
ATOM      9  C   LIG    1       -1.752 -12.649   9.839  0.00  0.00    +0.100 C 
ATOM     10  C   LIG    1       -0.825 -13.294   8.842  0.00  0.00    -0.120 A 
ATOM     11  C   LIG    1       -0.488 -14.627   8.974  0.00  0.00    +0.050 A 
ATOM     12  C   LIG    1        0.368 -15.219   8.063  0.00  0.00    -0.030 A 
ATOM     13  C   LIG    1        0.884 -14.479   7.015  0.00  0.00    +0.030 A 
ATOM     14  C   LIG    1        0.546 -13.147   6.875  0.00  0.00    -0.080 A 
ATOM     15  C   LIG    1       -0.313 -12.552   7.788  0.00  0.00    +0.130 A 
ENDBRANCH   8  15
ENDBRANCH   7   8
ENDBRANCH   6   7
ENDBRANCH   5   6
ENDBRANCH   1   5
BRANCH   2  16
ATOM     16  C   LIG    1       -0.496  -4.659   4.446  0.00  0.00    +0.320 C 
BRANCH  16  17
ATOM     17  C   LIG    1        0.104  -3.917   3.280  0.00  0.00    -0.100 A 
ATOM     18  C   LIG    1       -0.556  -3.885   2.066  0.00  0.00    +0.030 A 
ATOM     19  C   LIG    1       -0.006  -3.204   0.997  0.00  0.00    +0.050 A 
ATOM     20  C   LIG    1        1.206  -2.554   1.141  0.00  0.00    -0.100 A 
ATOM     21  C   LIG    1        1.869  -2.590   2.353  0.00  0.00    +0.020 A 
ATOM     22  C   LIG    1        1.316  -3.266   3.424  0.00  0.00    +0.030 A 
BRANCH  20  23
ATOM     23  C   LIG    1        1.806  -1.812  -0.025  0.00  0.00    +0.370 C 
BRANCH  23  24
ATOM     24  N   LIG    1        1.339  -0.424  -0.013  0.00  0.00    -0.370 N 
ATOM     25  C   LIG    1        2.119   0.677  -0.015  0.00  0.00    +0.220 A 
ATOM     26  C   LIG    1        1.307   1.759  -0.001  0.00  0.00    -0.120 A 
ATOM     27  C   LIG    1       -0.016   1.304   0.009  0.00  0.00    +0.220 A 
ATOM     28  N   LIG    1        0.002  -0.004   0.002  0.00  0.00    -0.290 NA
ENDBRANCH  23  24
ENDBRANCH  20  23
ENDBRANCH  16  17
ENDBRANCH   2  16
TORSDOF 9
