REMARK  Name = ZINCrH000004mOZv.0
REMARK                            x       y       z     vdW  Elec       q    Type
REMARK                         _______ _______ _______ _____ _____    ______ ____
ROOT
ATOM      1  C   LIG    1        4.883  -2.098  -0.054  0.00  0.00    +0.150 C 
ENDROOT
BRANCH   1   2
ATOM      2  C   LIG    1        3.965  -0.903  -0.049  0.00  0.00    +0.440 A 
ATOM      3  N   LIG    1        4.491   0.289  -0.057  0.00  0.00    -0.580 NA
ATOM      4  C   LIG    1        3.724   1.393  -0.053  0.00  0.00    +0.540 A 
ATOM      5  C   LIG    1        2.257   1.233  -0.039  0.00  0.00    -0.210 A 
ATOM      6  C   LIG    1        1.755  -0.052  -0.031  0.00  0.00    +0.050 A 
ATOM      7  S   LIG    1        0.002  -0.003  -0.015  0.00  0.00    +0.200 S 
ATOM      8  C   LIG    1       -0.022   1.760  -0.018  0.00  0.00    -0.220 A 
ATOM      9  C   LIG    1       -1.051   2.885  -0.005  0.00  0.00    +0.130 C 
ATOM     10  C   LIG    1       -0.265   4.137   0.427  0.00  0.00    +0.050 C 
ATOM     11  C   LIG    1        1.162   3.783  -0.036  0.00  0.00    +0.110 C 
ATOM     12  C   LIG    1        1.209   2.255  -0.031  0.00  0.00    -0.050 A 
ATOM     13  O   LIG    1        4.231   2.504  -0.061  0.00  0.00    -0.480 OA
ATOM     14  N   LIG    1        2.639  -1.111  -0.037  0.00  0.00    -0.590 N 
ATOM     15  H   LIG    1        2.297  -2.019  -0.032  0.00  0.00    +0.430 HD
ENDBRANCH   1   2
BRANCH   1  16
ATOM     16  C   LIG    1        6.338  -1.624  -0.069  0.00  0.00    +0.100 C 
BRANCH  16  19
ATOM     17  N   LIG    1        8.592  -2.642  -0.086  0.00  0.00    -0.670 N 
ATOM     18  H   LIG    1        8.962  -1.748  -0.159  0.00  0.00    +0.420 HD
ATOM     19  C   LIG    1        7.256  -2.818  -0.074  0.00  0.00    +0.520 C 
ATOM     20  O   LIG    1        6.793  -3.939  -0.067  0.00  0.00    -0.530 OA
BRANCH  17  24
ATOM     21  C   LIG    1       11.134  -5.936   0.189  0.00  0.00    +0.130 A 
ATOM     22  C   LIG    1        9.934  -6.042  -0.497  0.00  0.00    -0.040 A 
ATOM     23  C   LIG    1        9.091  -4.951  -0.588  0.00  0.00    +0.080 A 
ATOM     24  C   LIG    1        9.446  -3.748   0.007  0.00  0.00    +0.120 A 
ATOM     25  C   LIG    1       10.651  -3.640   0.689  0.00  0.00    +0.040 A 
ATOM     26  C   LIG    1       11.490  -4.733   0.784  0.00  0.00    -0.050 A 
ATOM     27 CL   LIG    1       12.994  -4.601   1.641  0.00  0.00    -0.050 Cl
BRANCH  21  29
ATOM     28  C   LIG    1       11.533  -8.216  -0.357  0.00  0.00    +0.240 C 
ATOM     29  O   LIG    1       11.963  -7.011   0.278  0.00  0.00    -0.310 OA
ENDBRANCH  21  29
ENDBRANCH  17  24
ENDBRANCH  16  19
ENDBRANCH   1  16
TORSDOF 5
