REMARK  Name = ZINCrH000004ta71.0
REMARK                            x       y       z     vdW  Elec       q    Type
REMARK                         _______ _______ _______ _____ _____    ______ ____
ROOT
ATOM      1  N   LIG    1        0.002  -0.004   0.002  0.00  0.00    -0.650 N 
ATOM      2  H   LIG    1       -0.831  -0.500   0.007  0.00  0.00    +0.410 HD
ATOM      3  C   LIG    1        1.178  -0.662  -0.012  0.00  0.00    +0.710 C 
ATOM      4  N   LIG    1        1.196  -2.010  -0.020  0.00  0.00    -0.730 N 
ATOM      5  H   LIG    1        0.363  -2.506  -0.015  0.00  0.00    +0.410 HD
ATOM      6  O   LIG    1        2.223  -0.040  -0.018  0.00  0.00    -0.560 OA
ENDROOT
BRANCH   1  11
ATOM      7  C   LIG    1       -1.562   4.691   0.042  0.00  0.00    +0.360 C 
ATOM      8  N   LIG    1       -0.711   3.499   0.028  0.00  0.00    -0.360 N 
ATOM      9  N   LIG    1        0.690   3.485   0.014  0.00  0.00    -0.270 NA
ATOM     10  C   LIG    1        1.101   2.243   0.004  0.00  0.00    +0.270 A 
ATOM     11  C   LIG    1       -0.017   1.401   0.010  0.00  0.00    +0.040 A 
ATOM     12  C   LIG    1       -1.142   2.201   0.019  0.00  0.00    +0.080 A 
BRANCH  12  13
ATOM     13  C   LIG    1       -2.547   1.743   0.022  0.00  0.00    -0.020 A 
ATOM     14  C   LIG    1       -2.954   0.723  -0.839  0.00  0.00    +0.020 A 
ATOM     15  C   LIG    1       -4.265   0.295  -0.827  0.00  0.00    +0.020 A 
ATOM     16  C   LIG    1       -5.180   0.884   0.028  0.00  0.00    +0.020 A 
ATOM     17  C   LIG    1       -4.785   1.899   0.881  0.00  0.00    +0.020 A 
ATOM     18  C   LIG    1       -3.475   2.332   0.883  0.00  0.00    +0.020 A 
ENDBRANCH  12  13
ENDBRANCH   1  11
BRANCH   4  19
ATOM     19  C   LIG    1        2.475  -2.725  -0.035  0.00  0.00    +0.270 C 
BRANCH  19  20
ATOM     20  C   LIG    1        2.968  -2.856  -1.478  0.00  0.00    +0.430 C 
ATOM     21  F   LIG    1        2.027  -3.567  -2.229  0.00  0.00    -0.180 F 
ATOM     22  F   LIG    1        4.189  -3.539  -1.492  0.00  0.00    -0.180 F 
ATOM     23  F   LIG    1        3.140  -1.582  -2.030  0.00  0.00    -0.170 F 
ENDBRANCH  19  20
BRANCH  19  24
ATOM     24  C   LIG    1        2.287  -4.118   0.569  0.00  0.00    +0.080 C 
BRANCH  24  25
ATOM     25  C   LIG    1        1.915  -3.987   2.047  0.00  0.00    +0.160 C 
ATOM     26  C   LIG    1        1.667  -5.386   2.665  0.00  0.00    +0.020 C 
ATOM     27  C   LIG    1        1.956  -5.102   4.164  0.00  0.00    +0.000 C 
ATOM     28  C   LIG    1        3.080  -4.046   4.086  0.00  0.00    +0.190 C 
ATOM     29  O   LIG    1        3.013  -3.438   2.791  0.00  0.00    -0.380 OA
ENDBRANCH  24  25
ENDBRANCH  19  24
ENDBRANCH   4  19
TORSDOF 6
