REMARK  Name = ZINCkj00000dDS8X.0
REMARK                            x       y       z     vdW  Elec       q    Type
REMARK                         _______ _______ _______ _____ _____    ______ ____
ROOT
ATOM      1  S   LIG    1        4.435   5.134  -1.453  0.00  0.00    +2.600 S 
ATOM      2  O   LIG    1        5.501   4.324  -0.976  0.00  0.00    -0.940 OA
ATOM      3  O   LIG    1        4.235   6.449  -0.953  0.00  0.00    -0.940 OA
ENDROOT
BRANCH   1   4
ATOM      4  N   LIG    1        4.776   5.354  -3.058  0.00  0.00    -1.010 NA
ATOM      5  C   LIG    1        5.583   4.369  -3.796  0.00  0.00    +0.330 C 
ATOM      6  C   LIG    1        6.652   5.126  -4.596  0.00  0.00    +0.200 C 
ATOM      7  C   LIG    1        7.419   6.036  -3.609  0.00  0.00    +0.070 C 
ATOM      8  C   LIG    1        6.629   7.361  -3.595  0.00  0.00    +0.070 C 
ATOM      9  C   LIG    1        5.455   7.136  -4.574  0.00  0.00    +0.200 C 
ATOM     10  N   LIG    1        5.943   6.075  -5.495  0.00  0.00    -0.520 N 
ATOM     11  H   LIG    1        6.579   6.461  -6.176  0.00  0.00    +0.430 HD
ATOM     12  H   LIG    1        5.167   5.618  -5.951  0.00  0.00    +0.430 HD
ATOM     13  C   LIG    1        4.283   6.541  -3.775  0.00  0.00    +0.330 C 
ENDBRANCH   1   4
BRANCH   1  14
ATOM     14  C   LIG    1        2.877   4.205  -1.444  0.00  0.00    -0.330 C 
BRANCH  14  15
ATOM     15  C   LIG    1        2.451   3.937   0.001  0.00  0.00    +0.110 C 
BRANCH  15  20
ATOM     16  C   LIG    1       -2.514   0.980   0.019  0.00  0.00    +0.100 C 
ATOM     17  C   LIG    1       -1.219   1.751   0.017  0.00  0.00    -0.080 A 
ATOM     18  C   LIG    1       -0.013   1.076   0.008  0.00  0.00    +0.010 A 
ATOM     19  C   LIG    1        1.175   1.783   0.000  0.00  0.00    +0.010 A 
ATOM     20  C   LIG    1        1.156   3.165   0.008  0.00  0.00    -0.090 A 
ATOM     21  C   LIG    1       -0.050   3.840   0.023  0.00  0.00    +0.010 A 
ATOM     22  C   LIG    1       -1.238   3.133   0.029  0.00  0.00    +0.010 A 
ENDBRANCH  15  20
ENDBRANCH  14  15
ENDBRANCH   1  14
TORSDOF 4
