REMARK  Name = ZINCkj00000dDf0J.0
REMARK                            x       y       z     vdW  Elec       q    Type
REMARK                         _______ _______ _______ _____ _____    ______ ____
ROOT
ATOM      1  N   LIG    1       -3.480   2.165   0.200  0.00  0.00    -0.310 N 
ATOM      2  N   LIG    1       -2.825   3.395   0.069  0.00  0.00    -0.250 NA
ATOM      3  C   LIG    1       -1.540   3.184   0.002  0.00  0.00    +0.280 A 
ATOM      4  C   LIG    1       -1.320   1.791   0.079  0.00  0.00    -0.250 A 
ATOM      5  C   LIG    1       -2.556   1.190   0.205  0.00  0.00    +0.060 A 
ENDROOT
BRANCH   4   6
ATOM      6  C   LIG    1       -0.015   1.107   0.038  0.00  0.00    +0.600 C 
ATOM      7  N   LIG    1        1.123   1.828   0.011  0.00  0.00    -0.620 N 
ATOM      8  C   LIG    1        1.063   3.288  -0.102  0.00  0.00    +0.300 C 
ATOM      9  O   LIG    1        0.035  -0.108   0.023  0.00  0.00    -0.500 OA
BRANCH   7  10
ATOM     10  C   LIG    1        2.421   1.153   0.093  0.00  0.00    +0.270 C 
ATOM     11  C   LIG    1        3.262   1.747   1.242  0.00  0.00    +0.070 C 
ATOM     12  C   LIG    1        4.524   2.320   0.560  0.00  0.00    +0.280 C 
ATOM     13  N   LIG    1        4.107   2.576  -0.843  0.00  0.00    -0.520 N 
ATOM     14  H   LIG    1        4.913   2.611  -1.449  0.00  0.00    +0.440 HD
ATOM     15  H   LIG    1        3.583   3.436  -0.904  0.00  0.00    +0.430 HD
ATOM     16  C   LIG    1        3.244   1.414  -1.187  0.00  0.00    +0.270 C 
ENDBRANCH   7  10
ENDBRANCH   4   6
BRANCH   5  17
ATOM     17  C   LIG    1       -2.821  -0.289   0.328  0.00  0.00    +0.540 C 
ATOM     18  F   LIG    1       -3.980  -0.493   1.085  0.00  0.00    -0.170 F 
ATOM     19  F   LIG    1       -1.736  -0.906   0.961  0.00  0.00    -0.130 F 
ATOM     20  F   LIG    1       -2.993  -0.839  -0.946  0.00  0.00    -0.160 F 
ENDBRANCH   5  17
BRANCH   1  22
ATOM     21  C   LIG    1       -5.334   2.007   1.786  0.00  0.00    +0.060 C 
ATOM     22  C   LIG    1       -4.928   1.973   0.312  0.00  0.00    +0.340 C 
ENDBRANCH   1  22
TORSDOF 4
