REMARK  Name = ZINCtV00000tRQtC.0
REMARK                            x       y       z     vdW  Elec       q    Type
REMARK                         _______ _______ _______ _____ _____    ______ ____
ROOT
ATOM      1  C   LIG    1        2.015  -4.807  -2.232  0.00  0.00    +0.480 C 
ATOM      2  O   LIG    1        2.698  -5.411  -1.439  0.00  0.00    -0.490 OA
ENDROOT
BRANCH   1   3
ATOM      3  C   LIG    1        1.916  -5.283  -3.658  0.00  0.00    +0.000 C 
ATOM      4  C   LIG    1        0.457  -5.606  -3.989  0.00  0.00    +0.060 C 
ATOM      5  C   LIG    1       -0.048  -6.703  -3.049  0.00  0.00    +0.010 C 
ATOM      6  C   LIG    1        0.806  -7.960  -3.227  0.00  0.00    +0.010 C 
ATOM      7  C   LIG    1        2.265  -7.637  -2.897  0.00  0.00    +0.030 C 
ATOM      8  C   LIG    1        2.769  -6.541  -3.837  0.00  0.00    +0.050 C 
BRANCH   3   9
ATOM      9  C   LIG    1        2.413  -4.203  -4.584  0.00  0.00    -0.060 A 
ATOM     10  C   LIG    1        2.864  -3.004  -4.067  0.00  0.00    +0.050 A 
ATOM     11  C   LIG    1        3.321  -2.013  -4.916  0.00  0.00    +0.040 A 
ATOM     12  C   LIG    1        3.327  -2.221  -6.283  0.00  0.00    -0.020 A 
ATOM     13  C   LIG    1        2.876  -3.422  -6.801  0.00  0.00    +0.050 A 
ATOM     14 CL   LIG    1        3.900  -0.976  -7.349  0.00  0.00    -0.050 Cl
ATOM     15  C   LIG    1        2.424  -4.415  -5.952  0.00  0.00    -0.010 A 
ATOM     16 CL   LIG    1        1.864  -5.925  -6.601  0.00  0.00    -0.040 Cl
ENDBRANCH   3   9
ENDBRANCH   1   3
BRANCH   1  17
ATOM     17  O   LIG    1        1.344  -3.712  -1.842  0.00  0.00    -0.350 OA
BRANCH  17  18
ATOM     18  C   LIG    1        1.485  -3.311  -0.454  0.00  0.00    +0.340 C 
BRANCH  18  25
ATOM     19  C   LIG    1        3.576   1.976  -1.284  0.00  0.00    +0.040 C 
ATOM     20  C   LIG    1        2.213   1.302  -1.115  0.00  0.00    -0.070 C 
ATOM     21  C   LIG    1        1.432   2.003  -0.001  0.00  0.00    +0.040 C 
ATOM     22  C   LIG    1       -0.018   1.501   0.010  0.00  0.00    +0.150 C 
ATOM     23  C   LIG    1        0.002  -0.004   0.002  0.00  0.00    -0.030 A 
ATOM     24  C   LIG    1        1.088  -0.742  -0.335  0.00  0.00    -0.180 A 
ATOM     25  C   LIG    1        0.667  -2.071  -0.203  0.00  0.00    +0.020 A 
ATOM     26  N   LIG    1       -0.581  -2.017   0.183  0.00  0.00    -0.340 NA
ATOM     27  O   LIG    1       -0.965  -0.870   0.300  0.00  0.00    +0.120 OA
ATOM     28  C   LIG    1        1.430   1.401  -2.426  0.00  0.00    +0.030 C 
ATOM     29  C   LIG    1        2.414  -0.175  -0.750  0.00  0.00    +0.120 C 
ENDBRANCH  18  25
ENDBRANCH  17  18
ENDBRANCH   1  17
TORSDOF 5
