REMARK  Name = ZINCpe000000XhFC.0
REMARK                            x       y       z     vdW  Elec       q    Type
REMARK                         _______ _______ _______ _____ _____    ______ ____
ROOT
ATOM      1  N   LIG    1       -0.890   3.023   1.459  0.00  0.00    -0.710 N 
ATOM      2  H   LIG    1       -0.303   3.500   2.066  0.00  0.00    +0.410 HD
ATOM      3  C   LIG    1       -1.855   3.688   0.793  0.00  0.00    +0.500 C 
ATOM      4  O   LIG    1       -2.590   3.091   0.035  0.00  0.00    -0.520 OA
ENDROOT
BRANCH   1   6
ATOM      5  C   LIG    1        0.146   1.323   0.039  0.00  0.00    +0.060 C 
ATOM      6  C   LIG    1       -0.729   1.579   1.267  0.00  0.00    +0.240 C 
BRANCH   6   7
ATOM      7  C   LIG    1       -0.074   0.981   2.485  0.00  0.00    +0.520 C 
ATOM      8  N   LIG    1       -0.287  -0.313   2.797  0.00  0.00    -0.610 N 
ATOM      9  C   LIG    1       -1.071  -1.179   1.906  0.00  0.00    +0.270 C 
ATOM     10  C   LIG    1       -0.238  -2.429   1.582  0.00  0.00    +0.010 C 
ATOM     11  C   LIG    1        0.195  -3.099   2.888  0.00  0.00    +0.020 C 
ATOM     12  C   LIG    1        1.068  -2.134   3.693  0.00  0.00    +0.010 C 
ATOM     13  C   LIG    1        0.255  -0.882   4.039  0.00  0.00    +0.270 C 
ATOM     14  O   LIG    1        0.645   1.663   3.183  0.00  0.00    -0.530 OA
ENDBRANCH   6   7
ENDBRANCH   1   6
BRANCH   3  15
ATOM     15  C   LIG    1       -2.021   5.172   0.991  0.00  0.00    +0.370 C 
BRANCH  15  16
ATOM     16  N   LIG    1       -3.129   5.654   0.162  0.00  0.00    -0.520 N 
ATOM     17  C   LIG    1       -3.028   6.106  -1.102  0.00  0.00    +0.690 A 
ATOM     18  N   LIG    1       -4.245   6.464  -1.554  0.00  0.00    -0.540 N 
ATOM     19  C   LIG    1       -5.173   6.243  -0.539  0.00  0.00    +0.090 A 
ATOM     20  C   LIG    1       -6.543   6.431  -0.445  0.00  0.00    +0.030 A 
ATOM     21  C   LIG    1       -7.202   6.109   0.726  0.00  0.00    +0.020 A 
ATOM     22  C   LIG    1       -6.500   5.601   1.805  0.00  0.00    +0.020 A 
ATOM     23  C   LIG    1       -5.135   5.409   1.720  0.00  0.00    +0.030 A 
ATOM     24  C   LIG    1       -4.542   7.000  -2.885  0.00  0.00    +0.340 C 
ATOM     25  O   LIG    1       -1.995   6.178  -1.740  0.00  0.00    -0.550 OA
ATOM     26  C   LIG    1       -4.465   5.729   0.550  0.00  0.00    +0.100 A 
ENDBRANCH  15  16
ENDBRANCH   3  15
TORSDOF 4
