REMARK  Name = ZINCkj00000y7MVm.0
REMARK                            x       y       z     vdW  Elec       q    Type
REMARK                         _______ _______ _______ _____ _____    ______ ____
ROOT
ATOM      1  N   PHE A  1        3.099   3.087  -1.945  0.00  0.00    -0.500 N 
ATOM      2  H1  PHE A  1        2.552   2.267  -1.730  0.00  0.00    +0.420 HD
ATOM      3  H2  PHE A  1        3.841   3.184  -1.269  0.00  0.00    +0.440 HD
ENDROOT
BRANCH   1   4
ATOM      4  C   UNK A  0        3.675   2.953  -3.289  0.00  0.00    +0.180 C 
BRANCH   4   5
ATOM      5  C   UNK A  0        3.812   1.470  -3.640  0.00  0.00    +0.190 C 
ATOM      6  C   UNK A  0        2.424   0.795  -3.613  0.00  0.00    +0.010 C 
ATOM      7  C   UNK A  0        2.740  -0.585  -2.974  0.00  0.00    +0.030 C 
ATOM      8  C   UNK A  0        3.870  -0.199  -1.987  0.00  0.00    +0.200 C 
ATOM      9  O   UNK A  0        4.631   0.814  -2.664  0.00  0.00    -0.340 OA
ENDBRANCH   4   5
BRANCH   4  10
ATOM     10  C   UNK A  0        5.055   3.614  -3.321  0.00  0.00    +0.200 C 
BRANCH  10  12
ATOM     11  C   UNK A  0        7.265   3.445  -2.409  0.00  0.00    +0.230 C 
ATOM     12  O   UNK A  0        5.942   2.906  -2.453  0.00  0.00    -0.370 OA
ENDBRANCH  10  12
ENDBRANCH   4  10
ENDBRANCH   1   4
BRANCH   1  13
ATOM     13  CA  PHE A  1        2.237   4.276  -1.898  0.00  0.00    +0.180 C 
BRANCH  13  14
ATOM     14  CB  PHE A  1        1.553   4.357  -0.532  0.00  0.00    +0.140 C 
BRANCH  14  15
ATOM     15  CG  PHE A  1        0.623   3.183  -0.365  0.00  0.00    -0.130 A 
ATOM     16  CD2 PHE A  1        1.087   2.007   0.194  0.00  0.00    -0.020 A 
ATOM     17  CE2 PHE A  1        0.233   0.931   0.347  0.00  0.00    +0.020 A 
ATOM     18  CZ  PHE A  1       -1.083   1.028  -0.064  0.00  0.00    +0.030 A 
ATOM     19  CE1 PHE A  1       -1.548   2.204  -0.621  0.00  0.00    +0.020 A 
ATOM     20  CD1 PHE A  1       -0.695   3.281  -0.773  0.00  0.00    +0.020 A 
ENDBRANCH  14  15
ENDBRANCH  13  14
BRANCH  13  21
ATOM     21  C   PHE A  1        3.085   5.530  -2.119  0.00  0.00    +0.230 C 
BRANCH  21  22
ATOM     22  O   PHE A  1        4.040   5.652  -1.063  0.00  0.00    -0.570 OA
ATOM     23  H   PHE A  1        4.613   6.426  -1.139  0.00  0.00    +0.410 HD
ENDBRANCH  21  22
ENDBRANCH  13  21
ENDBRANCH   1  13
TORSDOF 9
