REMARK  Name = ZINCrH000004t1Q4.0
REMARK                            x       y       z     vdW  Elec       q    Type
REMARK                         _______ _______ _______ _____ _____    ______ ____
ROOT
ATOM      1  C   LIG    1        2.667  -0.291   0.073  0.00  0.00    +0.070 A 
ATOM      2  C   LIG    1        2.480   1.050  -0.217  0.00  0.00    +0.060 A 
ATOM      3  O   LIG    1        3.706   1.611  -0.242  0.00  0.00    -0.180 OA
ATOM      4  C   LIG    1        4.608   0.658   0.031  0.00  0.00    +0.470 A 
ATOM      5  N   LIG    1        4.005  -0.478   0.217  0.00  0.00    -0.440 NA
ENDROOT
BRANCH   2   6
ATOM      6  C   LIG    1        1.193   1.729  -0.459  0.00  0.00    -0.040 A 
ATOM      7  C   LIG    1        0.310   1.238  -1.424  0.00  0.00    +0.100 A 
ATOM      8  C   LIG    1       -0.889   1.882  -1.648  0.00  0.00    +0.040 A 
ATOM      9  C   LIG    1       -1.224   3.005  -0.912  0.00  0.00    +0.100 A 
ATOM     10  C   LIG    1       -0.355   3.496   0.046  0.00  0.00    -0.180 A 
ATOM     11  C   LIG    1        0.850   2.866   0.277  0.00  0.00    +0.110 A 
BRANCH  10  12
ATOM     12  C   LIG    1       -0.726   4.723   0.839  0.00  0.00    +0.510 C 
ATOM     13  F   LIG    1       -0.137   4.655   2.107  0.00  0.00    -0.170 F 
ATOM     14  F   LIG    1       -2.116   4.788   0.974  0.00  0.00    -0.170 F 
ATOM     15  F   LIG    1       -0.268   5.865   0.173  0.00  0.00    -0.170 F 
ENDBRANCH  10  12
ENDBRANCH   2   6
BRANCH   1  19
ATOM     16  C   LIG    1        0.569  -3.146   0.435  0.00  0.00    +0.190 A 
ATOM     17  N   LIG    1       -0.286  -2.176   0.296  0.00  0.00    -0.380 NA
ATOM     18  O   LIG    1        0.291  -1.117   0.165  0.00  0.00    +0.090 OA
ATOM     19  C   LIG    1        1.619  -1.317   0.200  0.00  0.00    +0.250 A 
ATOM     20  N   LIG    1        1.800  -2.616   0.376  0.00  0.00    -0.440 NA
BRANCH  16  21
ATOM     21  C   LIG    1        0.236  -4.604   0.626  0.00  0.00    +0.260 C 
BRANCH  21  25
ATOM     22  C   LIG    1       -1.647  -5.215   5.231  0.00  0.00    +0.360 C 
ATOM     23  N   LIG    1       -0.715  -5.165   4.102  0.00  0.00    -0.370 N 
ATOM     24  C   LIG    1       -1.022  -4.820   2.834  0.00  0.00    +0.250 A 
ATOM     25  C   LIG    1        0.111  -4.901   2.098  0.00  0.00    -0.250 A 
ATOM     26  C   LIG    1        1.145  -5.315   2.945  0.00  0.00    +0.260 A 
ATOM     27  N   LIG    1        0.652  -5.468   4.147  0.00  0.00    -0.300 NA
ENDBRANCH  21  25
ENDBRANCH  16  21
ENDBRANCH   1  19
TORSDOF 5
