REMARK  Name = ZINCrD00000hQ5SH.0
REMARK                            x       y       z     vdW  Elec       q    Type
REMARK                         _______ _______ _______ _____ _____    ______ ____
ROOT
ATOM      1  O   LIG    1        2.145   5.734   0.261  0.00  0.00    -0.510 OA
ATOM      2  C   LIG    1        1.005   6.090   0.029  0.00  0.00    +0.710 C 
ATOM      3  N   LIG    1       -0.069   5.242   0.029  0.00  0.00    -0.550 N 
ATOM      4  C   LIG    1       -1.217   6.098   0.044  0.00  0.00    +0.210 C 
ATOM      5  C   LIG    1       -2.593   5.789  -0.470  0.00  0.00    -0.270 C 
ATOM      6  S   LIG    1       -3.276   7.457  -0.854  0.00  0.00    +2.400 S 
ATOM      7  C   LIG    1       -1.720   8.400  -0.538  0.00  0.00    -0.270 C 
ATOM      8  O   LIG    1       -4.247   7.807   0.123  0.00  0.00    -0.910 OA
ATOM      9  O   LIG    1       -3.600   7.529  -2.236  0.00  0.00    -0.900 OA
ATOM     10  C   LIG    1       -0.687   7.305  -0.795  0.00  0.00    +0.220 C 
ATOM     11  N   LIG    1        0.655   7.379  -0.264  0.00  0.00    -0.560 N 
ENDROOT
BRANCH   3  12
ATOM     12  C   LIG    1       -0.050   3.842   0.022  0.00  0.00    +0.180 A 
ATOM     13  C   LIG    1        1.161   3.163   0.007  0.00  0.00    +0.000 A 
ATOM     14  C   LIG    1        1.176   1.782   0.000  0.00  0.00    +0.050 A 
ATOM     15  C   LIG    1       -0.013   1.076   0.008  0.00  0.00    -0.010 A 
ATOM     16  C   LIG    1       -1.220   1.749   0.017  0.00  0.00    +0.040 A 
ATOM     17  C   LIG    1       -1.242   3.130   0.030  0.00  0.00    -0.040 A 
ENDBRANCH   3  12
BRANCH  11  18
ATOM     18  C   LIG    1        1.432   8.529  -0.082  0.00  0.00    +0.190 A 
ATOM     19  C   LIG    1        0.924   9.774  -0.428  0.00  0.00    +0.000 A 
ATOM     20  C   LIG    1        1.693  10.907  -0.247  0.00  0.00    +0.060 A 
ATOM     21  C   LIG    1        2.969  10.802   0.277  0.00  0.00    +0.040 A 
ATOM     22  C   LIG    1        3.478   9.563   0.621  0.00  0.00    -0.150 A 
ATOM     23  C   LIG    1        2.711   8.427   0.449  0.00  0.00    +0.050 A 
BRANCH  22  24
ATOM     24  C   LIG    1        4.869   9.453   1.191  0.00  0.00    +0.510 C 
ATOM     25  F   LIG    1        5.651   8.646   0.359  0.00  0.00    -0.170 F 
ATOM     26  F   LIG    1        4.806   8.884   2.468  0.00  0.00    -0.170 F 
ATOM     27  F   LIG    1        5.440  10.727   1.276  0.00  0.00    -0.170 F 
ENDBRANCH  22  24
ENDBRANCH  11  18
TORSDOF 3
