REMARK  Name = ZINCpe000000Wv9p.0
REMARK                            x       y       z     vdW  Elec       q    Type
REMARK                         _______ _______ _______ _____ _____    ______ ____
ROOT
ATOM      1  CA  LIG    1       -0.013   1.086   0.008  0.00  0.00    +0.250 C 
ATOM      2  N   LIG    1        1.357   1.581  -0.002  0.00  0.00    -0.710 N 
ATOM      3  H   LIG    1        2.020   1.123   0.537  0.00  0.00    +0.410 HD
ATOM      4  C   LIG    1        1.739   2.640  -0.724  0.00  0.00    +0.510 C 
ATOM      5  CA  LIG    1        0.793   3.414  -1.590  0.00  0.00    +0.250 C 
ATOM      6  N   LIG    1       -0.397   2.635  -1.903  0.00  0.00    -0.710 N 
ATOM      7  H   LIG    1       -0.936   2.897  -2.666  0.00  0.00    +0.410 HD
ATOM      8  O   LIG    1        2.900   2.988  -0.675  0.00  0.00    -0.500 OA
ATOM      9  C   LIG    1       -0.777   1.573  -1.186  0.00  0.00    +0.520 C 
ATOM     10  O   LIG    1       -1.782   0.979  -1.515  0.00  0.00    -0.530 OA
ENDROOT
BRANCH   5  11
ATOM     11  C   LIG    1        1.501   3.793  -2.893  0.00  0.00    +0.160 C 
ATOM     12  C   LIG    1        0.545   4.597  -3.795  0.00  0.00    +0.000 C 
ATOM     13  C   LIG    1        1.279   5.941  -4.022  0.00  0.00    +0.010 C 
ATOM     14  C   LIG    1        2.749   5.566  -3.705  0.00  0.00    +0.200 C 
ATOM     15  O   LIG    1        2.633   4.632  -2.608  0.00  0.00    -0.340 OA
ENDBRANCH   5  11
BRANCH   1  16
ATOM     16  C   LIG    1       -0.711   1.570   1.280  0.00  0.00    +0.120 C 
BRANCH  16  24
ATOM     17  C   LIG    1        3.043   2.811   3.821  0.00  0.00    +0.110 A 
ATOM     18  C   LIG    1        3.297   1.929   4.867  0.00  0.00    -0.050 A 
ATOM     19  C   LIG    1        2.490   0.833   5.072  0.00  0.00    +0.030 A 
ATOM     20  C   LIG    1        1.409   0.598   4.229  0.00  0.00    +0.060 A 
ATOM     21  N   LIG    1        0.444  -0.386   4.178  0.00  0.00    -0.590 N 
ATOM     22  H   LIG    1        0.377  -1.134   4.792  0.00  0.00    +0.420 HD
ATOM     23  C   LIG    1       -0.410  -0.145   3.136  0.00  0.00    +0.250 A 
ATOM     24  C   LIG    1       -0.036   0.967   2.485  0.00  0.00    -0.190 A 
ATOM     25  C   LIG    1        1.150   1.487   3.170  0.00  0.00    -0.060 A 
ATOM     26  C   LIG    1        1.975   2.596   2.972  0.00  0.00    +0.020 A 
BRANCH  17  28
ATOM     27  C   LIG    1        4.938   4.053   4.546  0.00  0.00    +0.230 C 
ATOM     28  O   LIG    1        3.851   3.889   3.633  0.00  0.00    -0.320 OA
ENDBRANCH  17  28
ENDBRANCH  16  24
ENDBRANCH   1  16
TORSDOF 4
