REMARK  Name = ZINCrH000004ttB4.0
REMARK                            x       y       z     vdW  Elec       q    Type
REMARK                         _______ _______ _______ _____ _____    ______ ____
ROOT
ATOM      1  N   LIG    1       -1.156   2.261   0.043  0.00  0.00    -0.630 N 
ATOM      2  H   LIG    1       -2.016   1.900  -0.225  0.00  0.00    +0.430 HD
ATOM      3  C   LIG    1       -1.062   3.539   0.460  0.00  0.00    +0.510 C 
ATOM      4  O   LIG    1        0.022   4.011   0.729  0.00  0.00    -0.480 OA
ENDROOT
BRANCH   1   6
ATOM      5  C   LIG    1        0.191   0.378  -0.814  0.00  0.00    -0.080 A 
ATOM      6  C   LIG    1       -0.021   1.460  -0.004  0.00  0.00    +0.170 A 
ATOM      7  C   LIG    1        1.193   1.598   0.809  0.00  0.00    -0.150 A 
ATOM      8  C   LIG    1        1.598   2.486   1.805  0.00  0.00    +0.120 A 
ATOM      9  C   LIG    1        2.828   2.341   2.384  0.00  0.00    -0.020 A 
ATOM     10  C   LIG    1        3.675   1.316   1.986  0.00  0.00    +0.070 A 
ATOM     11  C   LIG    1        3.293   0.428   1.004  0.00  0.00    +0.020 A 
ATOM     12  C   LIG    1        2.046   0.557   0.401  0.00  0.00    +0.090 A 
ATOM     13  O   LIG    1        1.413  -0.142  -0.562  0.00  0.00    -0.180 OA
BRANCH   5  17
ATOM     14  N   LIG    1       -0.490  -1.282  -2.458  0.00  0.00    -0.840 N 
ATOM     15  H   LIG    1       -1.119  -1.624  -3.112  0.00  0.00    +0.410 HD
ATOM     16  H   LIG    1        0.332  -1.764  -2.279  0.00  0.00    +0.410 HD
ATOM     17  C   LIG    1       -0.758  -0.137  -1.799  0.00  0.00    +0.610 C 
ATOM     18  O   LIG    1       -1.790   0.468  -2.025  0.00  0.00    -0.530 OA
ENDBRANCH   5  17
ENDBRANCH   1   6
BRANCH   3  19
ATOM     19  C   LIG    1       -2.305   4.382   0.591  0.00  0.00    +0.240 C 
BRANCH  19  20
ATOM     20  O   LIG    1       -1.948   5.688   1.046  0.00  0.00    -0.280 OA
BRANCH  20  21
ATOM     21  C   LIG    1       -2.958   6.579   1.218  0.00  0.00    +0.150 A 
ATOM     22  C   LIG    1       -4.249   6.213   0.960  0.00  0.00    -0.090 A 
ATOM     23  C   LIG    1       -5.297   7.114   1.133  0.00  0.00    +0.050 A 
ATOM     24  C   LIG    1       -5.066   8.385   1.562  0.00  0.00    -0.010 A 
ATOM     25  C   LIG    1       -3.753   8.801   1.839  0.00  0.00    -0.020 A 
ATOM     26  C   LIG    1       -3.479  10.106   2.283  0.00  0.00    +0.010 A 
ATOM     27  C   LIG    1       -2.194  10.474   2.540  0.00  0.00    +0.030 A 
ATOM     28  C   LIG    1       -1.143   9.576   2.369  0.00  0.00    +0.000 A 
ATOM     29  C   LIG    1       -1.371   8.303   1.940  0.00  0.00    +0.050 A 
ATOM     30  C   LIG    1       -2.684   7.886   1.671  0.00  0.00    -0.070 A 
ENDBRANCH  20  21
ENDBRANCH  19  20
ENDBRANCH   3  19
TORSDOF 5
