REMARK  Name = ZINCrg00000SjSIr.0
REMARK                            x       y       z     vdW  Elec       q    Type
REMARK                         _______ _______ _______ _____ _____    ______ ____
ROOT
ATOM      1  C   LIG    1       -1.018  -0.640   0.693  0.00  0.00    +0.520 C 
ATOM      2  N   LIG    1       -0.614   0.171  -0.305  0.00  0.00    -0.620 N 
ATOM      3  C   LIG    1       -0.712   1.633  -0.179  0.00  0.00    +0.250 C 
ATOM      4  C   LIG    1        0.648   2.241  -0.544  0.00  0.00    +0.220 C 
ATOM      5  O   LIG    1        1.062   1.738  -1.817  0.00  0.00    -0.360 OA
ATOM      6  C   LIG    1        1.268   0.322  -1.847  0.00  0.00    +0.080 C 
ATOM      7  C   LIG    1        1.758  -0.087  -3.235  0.00  0.00    +0.110 C 
ATOM      8  C   LIG    1        2.883   0.853  -3.684  0.00  0.00    -0.250 C 
ATOM      9  S   LIG    1        4.253   0.708  -2.494  0.00  0.00    +2.290 S 
ATOM     10  C   LIG    1        3.494   0.880  -0.848  0.00  0.00    -0.160 C 
ATOM     11  N   LIG    1        5.166   1.872  -2.701  0.00  0.00    -1.120 NA
ATOM     12  O   LIG    1        5.026  -0.475  -2.649  0.00  0.00    -0.910 OA
ATOM     13  C   LIG    1        2.287  -0.063  -0.777  0.00  0.00    +0.060 C 
ATOM     14  C   LIG    1       -0.064  -0.382  -1.553  0.00  0.00    +0.300 C 
ATOM     15  O   LIG    1       -0.995  -1.843   0.544  0.00  0.00    -0.510 OA
ENDROOT
BRANCH  11  16
ATOM     16  C   LIG    1        5.847   1.986  -3.830  0.00  0.00    +0.640 C 
ATOM     17  O   LIG    1        5.729   1.139  -4.704  0.00  0.00    -0.550 OA
BRANCH  16  18
ATOM     18  C   LIG    1        6.746   3.133  -4.034  0.00  0.00    -0.080 A 
ATOM     19  C   LIG    1        7.535   3.393  -5.164  0.00  0.00    +0.250 A 
ATOM     20  N   LIG    1        8.186   4.526  -4.931  0.00  0.00    -0.490 NA
ATOM     21  C   LIG    1        7.860   4.976  -3.740  0.00  0.00    +0.440 A 
ATOM     22  O   LIG    1        6.981   4.143  -3.168  0.00  0.00    -0.160 OA
ENDBRANCH  16  18
ENDBRANCH  11  16
BRANCH   1  23
ATOM     23  C   LIG    1       -1.498  -0.051   1.994  0.00  0.00    +0.160 C 
BRANCH  23  25
ATOM     24  C   LIG    1       -0.841   1.343   3.961  0.00  0.00    +0.040 C 
ATOM     25  C   LIG    1       -0.327   0.624   2.712  0.00  0.00    +0.010 C 
ENDBRANCH  23  25
BRANCH  23  26
ATOM     26  O   LIG    1       -2.028  -1.089   2.820  0.00  0.00    -0.360 OA
ATOM     27  C   LIG    1       -3.154  -0.690   3.606  0.00  0.00    +0.200 C 
ENDBRANCH  23  26
ENDBRANCH   1  23
TORSDOF 5
