REMARK  Name = ZINCrg00001JduQk.0
REMARK                            x       y       z     vdW  Elec       q    Type
REMARK                         _______ _______ _______ _____ _____    ______ ____
ROOT
ATOM      1  C   LIG    1       -0.473   1.407   3.684  0.00  0.00    +0.550 C 
ATOM      2  N   LIG    1       -0.020   1.094   2.454  0.00  0.00    -0.730 N 
ATOM      3  H   LIG    1        0.775   0.547   2.354  0.00  0.00    +0.400 HD
ATOM      4  O   LIG    1       -1.471   2.092   3.809  0.00  0.00    -0.540 OA
ENDROOT
BRANCH   1   6
ATOM      5  C   LIG    1       -0.217   1.234   6.101  0.00  0.00    +0.120 C 
ATOM      6  C   LIG    1        0.236   0.921   4.872  0.00  0.00    -0.080 C 
BRANCH   5  10
ATOM      7  C   LIG    1        1.837  -0.174   9.542  0.00  0.00    -0.130 A 
ATOM      8  C   LIG    1        0.692   0.614   9.686  0.00  0.00    +0.080 A 
ATOM      9  C   LIG    1        0.025   1.070   8.572  0.00  0.00    +0.040 A 
ATOM     10  C   LIG    1        0.495   0.746   7.295  0.00  0.00    -0.050 A 
ATOM     11  C   LIG    1        1.639  -0.047   7.152  0.00  0.00    +0.020 A 
ATOM     12  C   LIG    1        2.307  -0.498   8.267  0.00  0.00    +0.040 A 
BRANCH   7  16
ATOM     13  C   LIG    1        4.364  -1.910  11.789  0.00  0.00    +0.290 C 
ATOM     14  N   LIG    1        3.656  -1.424  10.602  0.00  0.00    -0.730 N 
ATOM     15  H   LIG    1        3.982  -1.649   9.716  0.00  0.00    +0.400 HD
ATOM     16  C   LIG    1        2.551  -0.664  10.740  0.00  0.00    +0.550 C 
ATOM     17  O   LIG    1        2.142  -0.383  11.850  0.00  0.00    -0.530 OA
ENDBRANCH   7  16
ENDBRANCH   5  10
ENDBRANCH   1   6
BRANCH   2  18
ATOM     18  C   LIG    1       -0.729   1.579   1.267  0.00  0.00    +0.260 C 
BRANCH  18  19
ATOM     19  C   LIG    1       -0.013   1.086   0.008  0.00  0.00    +0.080 C 
BRANCH  19  20
ATOM     20  C   LIG    1       -0.742   1.585  -1.213  0.00  0.00    -0.020 A 
ATOM     21  C   LIG    1       -1.750   0.825  -1.775  0.00  0.00    +0.010 A 
ATOM     22  C   LIG    1       -2.422   1.285  -2.892  0.00  0.00    +0.130 A 
ATOM     23  C   LIG    1       -2.078   2.501  -3.453  0.00  0.00    -0.680 A 
ATOM     24  C   LIG    1       -1.066   3.259  -2.894  0.00  0.00    +0.120 A 
ATOM     25  C   LIG    1       -0.398   2.801  -1.774  0.00  0.00    +0.010 A 
BRANCH  23  26
ATOM     26  S   LIG    1       -2.930   3.084  -4.881  0.00  0.00    +2.700 S 
ATOM     27  O   LIG    1       -2.780   4.497  -4.889  0.00  0.00    -0.960 OA
ATOM     28  O   LIG    1       -4.195   2.437  -4.886  0.00  0.00    -0.960 OA
BRANCH  26  29
ATOM     29  N   LIG    1       -2.110   2.519  -6.205  0.00  0.00    -1.250 NA
ATOM     30  H   LIG    1       -1.153   2.371  -6.156  0.00  0.00    +0.420 HD
ATOM     31  H   LIG    1       -2.588   2.337  -7.029  0.00  0.00    +0.420 HD
ENDBRANCH  26  29
ENDBRANCH  23  26
ENDBRANCH  19  20
ENDBRANCH  18  19
ENDBRANCH   2  18
TORSDOF 8
