REMARK  Name = ZINCnE000001Lu1Z.0
REMARK                            x       y       z     vdW  Elec       q    Type
REMARK                         _______ _______ _______ _____ _____    ______ ____
ROOT
ATOM      1  C   LIG    1        1.169   3.172   0.007  0.00  0.00    +0.110 A 
ATOM      2  C   LIG    1        1.172   1.781   0.000  0.00  0.00    -0.040 A 
ATOM      3  C   LIG    1       -0.013   1.076   0.008  0.00  0.00    +0.080 A 
ATOM      4  C   LIG    1       -1.225   1.753   0.017  0.00  0.00    +0.020 A 
ATOM      5  O   LIG    1       -2.512   1.349   0.022  0.00  0.00    -0.180 OA
ATOM      6  C   LIG    1       -3.346   2.403   0.031  0.00  0.00    +0.050 A 
ATOM      7  C   LIG    1       -2.646   3.546   0.045  0.00  0.00    -0.180 A 
ATOM      8  C   LIG    1       -3.200   4.947   0.059  0.00  0.00    +0.130 C 
ATOM      9  C   LIG    1       -1.230   3.158   0.030  0.00  0.00    -0.080 A 
ATOM     10  C   LIG    1       -0.028   3.864   0.023  0.00  0.00    +0.020 A 
ENDROOT
BRANCH   1  12
ATOM     11  C   LIG    1        3.545   3.076  -0.015  0.00  0.00    +0.240 C 
ATOM     12  O   LIG    1        2.346   3.853  -0.000  0.00  0.00    -0.320 OA
ENDBRANCH   1  12
BRANCH   6  13
ATOM     13  C   LIG    1       -4.850   2.313   0.038  0.00  0.00    +0.350 C 
ATOM     14  C   LIG    1       -5.330   1.904   1.432  0.00  0.00    +0.040 C 
BRANCH  13  15
ATOM     15  N   LIG    1       -5.284   1.314  -0.941  0.00  0.00    -0.730 N 
ATOM     16  H   LIG    1       -4.685   0.596  -1.199  0.00  0.00    +0.400 HD
ATOM     17  C   LIG    1       -6.516   1.392  -1.484  0.00  0.00    +0.670 C 
ATOM     18  O   LIG    1       -7.268   2.294  -1.159  0.00  0.00    -0.610 OA
BRANCH  17  19
ATOM     19  N   LIG    1       -6.911   0.481  -2.376  0.00  0.00    -0.680 NA
ATOM     20  C   LIG    1       -8.128   0.558  -2.912  0.00  0.00    +0.360 A 
ATOM     21  N   LIG    1       -9.072   1.486  -2.663  0.00  0.00    -0.420 NA
ATOM     22  N   LIG    1      -10.261   1.354  -3.346  0.00  0.00    -0.280 NA
ATOM     23  C   LIG    1      -10.369   0.359  -4.162  0.00  0.00    +0.160 A 
ATOM     24  S   LIG    1       -8.824  -0.503  -4.077  0.00  0.00    -0.090 S 
ENDBRANCH  17  19
ENDBRANCH  13  15
ENDBRANCH   6  13
TORSDOF 4
