REMARK  Name = ZINCpe0000157MCP.0
REMARK                            x       y       z     vdW  Elec       q    Type
REMARK                         _______ _______ _______ _____ _____    ______ ____
ROOT
ATOM      1  O   LIG    1       -6.941   0.380  -1.120  0.00  0.00    -0.530 OA
ATOM      2  C   LIG    1       -6.244  -0.313  -0.400  0.00  0.00    +0.510 C 
ATOM      3  C   LIG    1       -5.890   0.186   0.993  0.00  0.00    +0.060 C 
ATOM      4  C   LIG    1       -5.096   1.508   0.755  0.00  0.00    +0.040 C 
ATOM      5  C   LIG    1       -3.652   1.295   1.220  0.00  0.00    +0.290 C 
ATOM      6  N   LIG    1       -2.954   0.343   0.371  0.00  0.00    -0.980 NA
ATOM      7  S   LIG    1       -2.655  -1.202   0.939  0.00  0.00    +2.600 S 
ATOM      8  C   LIG    1       -3.471  -2.256  -0.269  0.00  0.00    -0.380 C 
ATOM      9  C   LIG    1       -4.968  -2.358  -0.037  0.00  0.00    +0.320 C 
ATOM     10  O   LIG    1       -3.319  -1.259   2.194  0.00  0.00    -0.950 OA
ATOM     11  O   LIG    1       -1.241  -1.340   0.854  0.00  0.00    -0.940 OA
ATOM     12  N   LIG    1       -5.796  -1.533  -0.867  0.00  0.00    -0.730 N 
ATOM     13  H   LIG    1       -6.044  -1.832  -1.763  0.00  0.00    +0.410 HD
ENDROOT
BRANCH   6  14
ATOM     14  C   LIG    1       -2.503   0.740  -0.968  0.00  0.00    +0.340 C 
BRANCH  14  15
ATOM     15  C   LIG    1       -1.171   1.437  -0.863  0.00  0.00    -0.150 A 
ATOM     16  C   LIG    1       -0.002   0.721  -1.041  0.00  0.00    +0.080 A 
ATOM     17  C   LIG    1        1.220   1.359  -0.952  0.00  0.00    -0.080 A 
ATOM     18  C   LIG    1        1.274   2.718  -0.677  0.00  0.00    +0.130 A 
ATOM     19  C   LIG    1        0.099   3.433  -0.493  0.00  0.00    -0.030 A 
ATOM     20  C   LIG    1       -1.120   2.790  -0.584  0.00  0.00    +0.070 A 
BRANCH  18  21
ATOM     21  O   LIG    1        2.475   3.348  -0.589  0.00  0.00    -0.300 OA
BRANCH  21  22
ATOM     22  C   LIG    1        3.644   2.530  -0.673  0.00  0.00    +0.140 C 
ATOM     23  C   LIG    1        4.842   3.228   0.009  0.00  0.00    +0.030 C 
ATOM     24  C   LIG    1        5.870   3.408  -1.131  0.00  0.00    +0.210 C 
ATOM     25  O   LIG    1        5.082   3.401  -2.342  0.00  0.00    -0.370 OA
ATOM     26  C   LIG    1        4.089   2.372  -2.144  0.00  0.00    +0.190 C 
ENDBRANCH  21  22
ENDBRANCH  18  21
ENDBRANCH  14  15
ENDBRANCH   6  14
TORSDOF 4
