REMARK  Name = ZINCpk00000l5LBs.0
REMARK                            x       y       z     vdW  Elec       q    Type
REMARK                         _______ _______ _______ _____ _____    ______ ____
ROOT
ATOM      1  O   LIG    1       -2.122  -0.247  -1.517  0.00  0.00    -0.510 OA
ATOM      2  C   LIG    1       -2.149   0.964  -1.577  0.00  0.00    +0.560 C 
ATOM      3  N   LIG    1       -3.039   1.579  -2.379  0.00  0.00    -0.720 N 
ATOM      4  H   LIG    1       -3.009   2.543  -2.488  0.00  0.00    +0.400 HD
ENDROOT
BRANCH   3   5
ATOM      5  C   LIG    1       -4.053   0.794  -3.087  0.00  0.00    +0.260 C 
ATOM      6  C   LIG    1       -4.558   1.558  -4.336  0.00  0.00    +0.050 C 
ATOM      7  C   LIG    1       -5.954   0.934  -4.579  0.00  0.00    -0.010 C 
ATOM      8  C   LIG    1       -6.521   0.714  -3.161  0.00  0.00    +0.000 C 
ATOM      9  C   LIG    1       -5.312   0.622  -2.211  0.00  0.00    +0.150 C 
BRANCH   9  10
ATOM     10  O   LIG    1       -5.289  -0.653  -1.566  0.00  0.00    -0.550 OA
ATOM     11  H   LIG    1       -6.054  -0.821  -1.000  0.00  0.00    +0.380 HD
ENDBRANCH   9  10
BRANCH   7  12
ATOM     12  C   LIG    1       -6.842   1.899  -5.367  0.00  0.00    +0.300 C 
BRANCH  12  13
ATOM     13  N   LIG    1       -8.112   1.242  -5.687  0.00  0.00    -0.460 N 
ATOM     14  C   LIG    1       -9.247   1.252  -4.922  0.00  0.00    +0.110 A 
ATOM     15  C   LIG    1      -10.171   0.530  -5.585  0.00  0.00    +0.140 A 
ATOM     16  N   LIG    1       -9.615   0.091  -6.724  0.00  0.00    -0.490 NA
ATOM     17  C   LIG    1       -8.383   0.519  -6.795  0.00  0.00    +0.380 A 
ENDBRANCH  12  13
ENDBRANCH   7  12
ENDBRANCH   3   5
BRANCH   2  18
ATOM     18  C   LIG    1       -1.186   1.780  -0.753  0.00  0.00    -0.130 C 
ATOM     19  C   LIG    1       -0.152   1.022   0.082  0.00  0.00    +0.090 C 
ATOM     20  C   LIG    1       -1.328   1.718   0.770  0.00  0.00    +0.100 C 
BRANCH  18  21
ATOM     21  C   LIG    1       -0.763   3.093  -1.360  0.00  0.00    +0.130 A 
ATOM     22  N   LIG    1       -1.439   4.189  -1.078  0.00  0.00    -0.450 NA
ATOM     23  C   LIG    1       -1.103   5.361  -1.581  0.00  0.00    +0.260 A 
ATOM     24  C   LIG    1       -0.026   5.480  -2.440  0.00  0.00    +0.010 A 
ATOM     25  C   LIG    1        0.707   4.349  -2.765  0.00  0.00    +0.040 A 
ATOM     26  C   LIG    1        0.327   3.134  -2.212  0.00  0.00    +0.070 A 
ATOM     27  F   LIG    1        1.012   2.006  -2.502  0.00  0.00    -0.120 F 
ENDBRANCH  18  21
ENDBRANCH   2  18
TORSDOF 6
