REMARK  Name = ZINCpe000000TB0V.0
REMARK                            x       y       z     vdW  Elec       q    Type
REMARK                         _______ _______ _______ _____ _____    ______ ____
ROOT
ATOM      1  N   LIG    1       -0.541   1.643   1.197  0.00  0.00    -0.700 N 
ATOM      2  H   LIG    1       -0.106   2.420   1.583  0.00  0.00    +0.420 HD
ATOM      3  C   LIG    1       -1.613   1.099   1.806  0.00  0.00    +0.610 C 
ATOM      4  O   LIG    1       -2.157   0.124   1.323  0.00  0.00    -0.530 OA
ENDROOT
BRANCH   3   5
ATOM      5  C   LIG    1       -2.126   1.685   3.059  0.00  0.00    -0.110 A 
ATOM      6  C   LIG    1       -3.199   1.231   3.772  0.00  0.00    +0.140 A 
ATOM      7  N   LIG    1       -3.329   2.042   4.841  0.00  0.00    -0.370 N 
ATOM      8  N   LIG    1       -2.305   2.995   4.753  0.00  0.00    -0.050 NA
ATOM      9  C   LIG    1       -4.072   0.051   3.428  0.00  0.00    +0.190 C 
ATOM     10  N   LIG    1       -1.613   2.752   3.695  0.00  0.00    -0.190 NA
BRANCH   7  11
ATOM     11  C   LIG    1       -4.344   1.944   5.893  0.00  0.00    +0.480 C 
BRANCH  11  12
ATOM     12  C   LIG    1       -3.834   1.060   7.002  0.00  0.00    -0.080 A 
ATOM     13  C   LIG    1       -3.132   1.451   8.093  0.00  0.00    +0.000 A 
ATOM     14  C   LIG    1       -2.908   0.249   8.803  0.00  0.00    +0.010 A 
ATOM     15  N   LIG    1       -3.467  -0.699   8.108  0.00  0.00    -0.350 NA
ATOM     16  C   LIG    1       -2.167   0.096  10.106  0.00  0.00    +0.160 C 
ATOM     17  O   LIG    1       -3.992  -0.267   7.108  0.00  0.00    +0.110 OA
ENDBRANCH  11  12
ENDBRANCH   7  11
ENDBRANCH   3   5
BRANCH   1  18
ATOM     18  C   LIG    1       -0.031   1.061  -0.047  0.00  0.00    +0.240 C 
BRANCH  18  21
ATOM     19  N   LIG    1        2.239   0.587  -0.908  0.00  0.00    -0.730 N 
ATOM     20  H   LIG    1        1.868  -0.174  -1.382  0.00  0.00    +0.400 HD
ATOM     21  C   LIG    1        1.430   1.397  -0.197  0.00  0.00    +0.520 C 
ATOM     22  O   LIG    1        1.879   2.398   0.321  0.00  0.00    -0.530 OA
BRANCH  19  24
ATOM     23  C   LIG    1        4.361  -0.207  -1.830  0.00  0.00    +0.030 C 
ATOM     24  C   LIG    1        3.678   0.854  -0.964  0.00  0.00    +0.250 C 
ENDBRANCH  19  24
ENDBRANCH  18  21
BRANCH  18  25
ATOM     25  C   LIG    1       -0.810   1.631  -1.233  0.00  0.00    -0.010 C 
ATOM     26  C   LIG    1       -0.365   0.932  -2.519  0.00  0.00    +0.030 C 
ATOM     27  C   LIG    1       -0.538   3.132  -1.349  0.00  0.00    +0.030 C 
ENDBRANCH  18  25
ENDBRANCH   1  18
TORSDOF 7
