REMARK  Name = ZINCrH000004tKrn.0
REMARK                            x       y       z     vdW  Elec       q    Type
REMARK                         _______ _______ _______ _____ _____    ______ ____
ROOT
ATOM      1  O   LIG    1        0.726   0.575  -2.534  0.00  0.00    -0.530 OA
ATOM      2  C   LIG    1       -0.268   1.258  -2.409  0.00  0.00    +0.520 C 
ATOM      3  N   LIG    1       -0.721   1.571  -1.179  0.00  0.00    -0.730 N 
ATOM      4  H   LIG    1       -1.516   2.118  -1.079  0.00  0.00    +0.400 HD
ENDROOT
BRANCH   3   5
ATOM      5  C   LIG    1       -0.013   1.086   0.008  0.00  0.00    +0.330 C 
BRANCH   5   6
ATOM      6  C   LIG    1       -0.718   1.572   1.248  0.00  0.00    -0.070 A 
ATOM      7  C   LIG    1       -0.230   2.666   1.937  0.00  0.00    +0.030 A 
ATOM      8  C   LIG    1       -0.880   3.115   3.071  0.00  0.00    +0.020 A 
ATOM      9  C   LIG    1       -2.012   2.463   3.523  0.00  0.00    +0.020 A 
ATOM     10  C   LIG    1       -2.497   1.365   2.837  0.00  0.00    +0.020 A 
ATOM     11  C   LIG    1       -1.850   0.920   1.700  0.00  0.00    -0.100 A 
BRANCH  11  12
ATOM     12  C   LIG    1       -2.379  -0.277   0.952  0.00  0.00    +0.360 C 
BRANCH  12  13
ATOM     13  N   LIG    1       -1.677  -1.482   1.401  0.00  0.00    -0.370 N 
ATOM     14  C   LIG    1       -2.252  -2.602   1.886  0.00  0.00    +0.220 A 
ATOM     15  C   LIG    1       -1.265  -3.479   2.182  0.00  0.00    -0.120 A 
ATOM     16  C   LIG    1       -0.043  -2.870   1.875  0.00  0.00    +0.230 A 
ATOM     17  N   LIG    1       -0.289  -1.673   1.407  0.00  0.00    -0.290 NA
ENDBRANCH  12  13
ENDBRANCH  11  12
ENDBRANCH   5   6
ENDBRANCH   3   5
BRANCH   2  18
ATOM     18  C   LIG    1       -0.997   1.758  -3.630  0.00  0.00    +0.070 C 
BRANCH  18  19
ATOM     19  C   LIG    1       -0.281   1.264  -4.889  0.00  0.00    +0.180 C 
BRANCH  19  20
ATOM     20  C   LIG    1       -1.010   1.763  -6.110  0.00  0.00    +0.090 A 
ATOM     21  N   LIG    1       -0.763   2.876  -6.691  0.00  0.00    -0.460 NA
ATOM     22  C   LIG    1       -1.492   3.194  -7.777  0.00  0.00    +0.080 A 
ATOM     23  C   LIG    1       -1.429   4.336  -8.601  0.00  0.00    +0.080 A 
ATOM     24  C   LIG    1       -2.272   4.468  -9.663  0.00  0.00    +0.030 A 
ATOM     25  C   LIG    1       -3.206   3.483  -9.954  0.00  0.00    +0.040 A 
ATOM     26  C   LIG    1       -3.289   2.357  -9.168  0.00  0.00    +0.060 A 
ATOM     27  C   LIG    1       -2.435   2.205  -8.077  0.00  0.00    -0.180 A 
ATOM     28  S   LIG    1       -2.273   0.918  -6.886  0.00  0.00    +0.100 S 
ENDBRANCH  19  20
ENDBRANCH  18  19
ENDBRANCH   2  18
TORSDOF 7
