REMARK  Name = ZINCrD00000hQ6OP.0
REMARK                            x       y       z     vdW  Elec       q    Type
REMARK                         _______ _______ _______ _____ _____    ______ ____
ROOT
ATOM      1  C   LIG    1       -0.117   1.113   2.489  0.00  0.00    +0.290 C 
ENDROOT
BRANCH   1   2
ATOM      2  C   LIG    1        0.950   2.113   2.939  0.00  0.00    +0.010 C 
ATOM      3  C   LIG    1        1.987   2.290   1.827  0.00  0.00    +0.010 C 
ATOM      4  C   LIG    1        3.094   3.229   2.316  0.00  0.00    +0.210 C 
ATOM      5  O   LIG    1        3.681   2.694   3.505  0.00  0.00    -0.380 OA
ATOM      6  C   LIG    1        2.767   2.552   4.594  0.00  0.00    +0.210 C 
ATOM      7  C   LIG    1        1.648   1.585   4.196  0.00  0.00    +0.000 C 
ENDBRANCH   1   2
BRANCH   1  11
ATOM      8  C   LIG    1       -2.072  -0.069   5.258  0.00  0.00    +0.170 A 
ATOM      9  N   LIG    1       -2.582   1.104   5.029  0.00  0.00    -0.380 NA
ATOM     10  O   LIG    1       -2.007   1.638   4.104  0.00  0.00    +0.100 OA
ATOM     11  C   LIG    1       -1.054   0.828   3.635  0.00  0.00    +0.190 A 
ATOM     12  N   LIG    1       -1.085  -0.261   4.366  0.00  0.00    -0.480 NA
BRANCH   8  14
ATOM     13  C   LIG    1       -2.341  -0.387   7.703  0.00  0.00    +0.040 C 
ATOM     14  C   LIG    1       -2.507  -1.038   6.328  0.00  0.00    +0.100 C 
ATOM     15  C   LIG    1       -3.976  -1.409   6.113  0.00  0.00    +0.040 C 
ENDBRANCH   8  14
ENDBRANCH   1  11
BRANCH   1  16
ATOM     16  N   LIG    1       -0.876   1.680   1.366  0.00  0.00    -0.670 NA
ATOM     17  H   LIG    1       -0.300   2.299   0.816  0.00  0.00    +0.360 HD
BRANCH  16  18
ATOM     18  C   LIG    1       -1.455   0.618   0.532  0.00  0.00    +0.310 C 
BRANCH  18  19
ATOM     19  C   LIG    1       -2.329   1.234  -0.530  0.00  0.00    +0.280 A 
ATOM     20  N   LIG    1       -3.601   1.475  -0.401  0.00  0.00    -0.470 NA
ATOM     21  C   LIG    1       -4.078   2.034  -1.543  0.00  0.00    +0.040 A 
ATOM     22  C   LIG    1       -5.339   2.484  -1.942  0.00  0.00    +0.070 A 
ATOM     23  C   LIG    1       -5.510   3.008  -3.192  0.00  0.00    +0.000 A 
ATOM     24  C   LIG    1       -4.443   3.100  -4.074  0.00  0.00    +0.030 A 
ATOM     25  C   LIG    1       -3.189   2.663  -3.701  0.00  0.00    +0.010 A 
ATOM     26  C   LIG    1       -2.996   2.127  -2.435  0.00  0.00    +0.050 A 
ATOM     27  N   LIG    1       -1.904   1.613  -1.765  0.00  0.00    -0.490 N 
ATOM     28  C   LIG    1       -0.540   1.497  -2.288  0.00  0.00    +0.330 C 
ENDBRANCH  18  19
ENDBRANCH  16  18
ENDBRANCH   1  16
TORSDOF 6
