REMARK  Name = ZINCpk000000om3O.0
REMARK                            x       y       z     vdW  Elec       q    Type
REMARK                         _______ _______ _______ _____ _____    ______ ____
ROOT
ATOM      1  N   LIG    1        4.069  -1.183  -0.064  0.00  0.00    -0.520 NA
ATOM      2  C   LIG    1        4.068  -0.206   1.034  0.00  0.00    +0.210 C 
ATOM      3  C   LIG    1        2.706   0.490   1.092  0.00  0.00    +0.210 C 
ATOM      4  N   LIG    1        2.439   1.148  -0.195  0.00  0.00    -0.500 N 
ATOM      5  C   LIG    1        2.440   0.171  -1.292  0.00  0.00    +0.210 C 
ATOM      6  C   LIG    1        3.802  -0.525  -1.351  0.00  0.00    +0.210 C 
ENDROOT
BRANCH   4   7
ATOM      7  C   LIG    1        1.242   1.851  -0.156  0.00  0.00    +0.190 A 
ATOM      8  C   LIG    1        0.051   1.180   0.108  0.00  0.00    -0.010 A 
ATOM      9  C   LIG    1       -1.129   1.867   0.141  0.00  0.00    +0.140 A 
ATOM     10  C   LIG    1       -1.139   3.250  -0.079  0.00  0.00    -0.170 A 
ATOM     11  C   LIG    1        0.062   3.921  -0.344  0.00  0.00    +0.170 A 
ATOM     12  C   LIG    1        1.237   3.226  -0.381  0.00  0.00    -0.040 A 
BRANCH  10  13
ATOM     13  C   LIG    1       -2.404   3.993  -0.039  0.00  0.00    +0.400 C 
ATOM     14  O   LIG    1       -2.426   5.169  -0.334  0.00  0.00    -0.440 OA
ATOM     15  C   LIG    1       -3.675   3.294   0.369  0.00  0.00    +0.080 C 
ENDBRANCH  10  13
BRANCH  12  16
ATOM     16  N   LIG    1        2.506   3.934  -0.660  0.00  0.00    +0.030 N 
ATOM     17  O   LIG    1        3.554   3.315  -0.693  0.00  0.00    -0.090 OA
ATOM     18  O   LIG    1        2.502   5.136  -0.857  0.00  0.00    -0.190 OA
ENDBRANCH  12  16
ENDBRANCH   4   7
BRANCH   1  19
ATOM     19  C   LIG    1        5.335  -1.927  -0.105  0.00  0.00    +0.220 C 
BRANCH  19  22
ATOM     20  N   LIG    1        6.591  -3.465   1.369  0.00  0.00    -0.740 N 
ATOM     21  H   LIG    1        7.338  -3.394   0.754  0.00  0.00    +0.400 HD
ATOM     22  C   LIG    1        5.450  -2.791   1.124  0.00  0.00    +0.510 C 
ATOM     23  O   LIG    1        4.516  -2.879   1.893  0.00  0.00    -0.520 OA
BRANCH  20  24
ATOM     24  C   LIG    1        6.703  -4.305   2.564  0.00  0.00    +0.260 C 
BRANCH  24  26
ATOM     25  C   LIG    1        8.206  -5.831   3.852  0.00  0.00    +0.030 C 
ATOM     26  C   LIG    1        8.088  -4.954   2.604  0.00  0.00    +0.000 C 
ENDBRANCH  24  26
ENDBRANCH  20  24
ENDBRANCH  19  22
ENDBRANCH   1  19
TORSDOF 7
