REMARK  Name = ZINCpk000000mWLy.0
REMARK                            x       y       z     vdW  Elec       q    Type
REMARK                         _______ _______ _______ _____ _____    ______ ____
ROOT
ATOM      1  C   LIG    1       -5.443   2.828   4.084  0.00  0.00    +0.220 C 
ATOM      2  C   LIG    1       -4.637   2.456   5.330  0.00  0.00    +0.020 C 
ATOM      3  C   LIG    1       -3.349   1.742   4.912  0.00  0.00    +0.020 C 
ATOM      4  C   LIG    1       -2.505   2.682   4.052  0.00  0.00    +0.260 C 
ATOM      5  N   LIG    1       -3.320   3.164   2.929  0.00  0.00    -0.630 N 
ATOM      6  C   LIG    1       -2.885   3.034   1.660  0.00  0.00    +0.710 C 
ATOM      7  N   LIG    1       -1.739   2.373   1.404  0.00  0.00    -0.740 N 
ATOM      8  H   LIG    1       -1.189   2.055   2.137  0.00  0.00    +0.400 HD
ATOM      9  O   LIG    1       -3.527   3.513   0.745  0.00  0.00    -0.580 OA
ATOM     10  C   LIG    1       -4.621   3.784   3.215  0.00  0.00    +0.290 C 
ENDROOT
BRANCH   1  13
ATOM     11  C   LIG    1       -9.045   4.125   4.080  0.00  0.00    +0.110 C 
ATOM     12  C   LIG    1       -7.761   3.452   3.667  0.00  0.00    +0.510 C 
ATOM     13  N   LIG    1       -6.691   3.482   4.485  0.00  0.00    -0.730 N 
ATOM     14  H   LIG    1       -6.747   3.937   5.340  0.00  0.00    +0.400 HD
ATOM     15  O   LIG    1       -7.691   2.884   2.598  0.00  0.00    -0.540 OA
ENDBRANCH   1  13
BRANCH   7  16
ATOM     16  C   LIG    1       -1.323   2.135   0.020  0.00  0.00    +0.340 C 
BRANCH  16  17
ATOM     17  C   LIG    1       -0.018   1.382   0.009  0.00  0.00    -0.040 A 
ATOM     18  C   LIG    1        0.001  -0.006   0.003  0.00  0.00    -0.040 A 
ATOM     19  C   LIG    1        1.213  -0.666  -0.012  0.00  0.00    +0.290 A 
ATOM     20  N   LIG    1        2.349   0.005  -0.020  0.00  0.00    -0.510 NA
ATOM     21  C   LIG    1        2.373   1.329  -0.015  0.00  0.00    +0.300 A 
ATOM     22  C   LIG    1        1.189   2.059   0.000  0.00  0.00    -0.020 A 
BRANCH  21  23
ATOM     23  N   LIG    1        3.593   1.996  -0.024  0.00  0.00    -0.460 N 
ATOM     24  C   LIG    1        3.765   2.806   1.210  0.00  0.00    +0.180 C 
ATOM     25  C   LIG    1        5.298   3.022   1.280  0.00  0.00    +0.040 C 
ATOM     26  C   LIG    1        5.861   1.672   0.779  0.00  0.00    +0.020 C 
ATOM     27  C   LIG    1        4.720   1.039  -0.039  0.00  0.00    +0.200 C 
ENDBRANCH  21  23
ENDBRANCH  16  17
ENDBRANCH   7  16
TORSDOF 4
