REMARK  Name = ZINCqH0000006Khr.0
REMARK                            x       y       z     vdW  Elec       q    Type
REMARK                         _______ _______ _______ _____ _____    ______ ____
ROOT
ATOM      1  N   LIG    1        3.046   1.010   1.338  0.00  0.00    -0.720 N 
ATOM      2  H   LIG    1        2.566   1.425   2.071  0.00  0.00    +0.400 HD
ATOM      3  C   LIG    1        4.226   0.399   1.566  0.00  0.00    +0.520 C 
ATOM      4  O   LIG    1        4.827  -0.120   0.649  0.00  0.00    -0.520 OA
ENDROOT
BRANCH   1   5
ATOM      5  C   LIG    1        2.490   1.046  -0.017  0.00  0.00    +0.340 C 
BRANCH   5  12
ATOM      6  C   LIG    1        1.155   3.169   0.008  0.00  0.00    +0.150 A 
ATOM      7  C   LIG    1       -0.057   3.844   0.023  0.00  0.00    -0.080 A 
ATOM      8  C   LIG    1       -1.242   3.132   0.031  0.00  0.00    -0.040 A 
ATOM      9  C   LIG    1       -1.220   1.750   0.017  0.00  0.00    -0.030 A 
ATOM     10  C   LIG    1       -0.013   1.076   0.008  0.00  0.00    +0.070 A 
ATOM     11  C   LIG    1       -2.559   3.864   0.048  0.00  0.00    +0.100 C 
ATOM     12  C   LIG    1        1.174   1.782   0.000  0.00  0.00    -0.150 A 
BRANCH   6  14
ATOM     13  C   LIG    1        2.225   5.292   0.009  0.00  0.00    +0.250 C 
ATOM     14  O   LIG    1        2.321   3.867   0.000  0.00  0.00    -0.310 OA
ENDBRANCH   6  14
ENDBRANCH   5  12
ENDBRANCH   1   5
BRANCH   3  15
ATOM     15  C   LIG    1        4.798   0.361   2.959  0.00  0.00    +0.080 C 
BRANCH  15  16
ATOM     16  C   LIG    1        6.133  -0.386   2.942  0.00  0.00    +0.070 C 
ATOM     17  S   LIG    1        7.349   0.559   1.975  0.00  0.00    -0.030 S 
ATOM     18  C   LIG    1        7.740   1.879   3.080  0.00  0.00    -0.140 A 
ATOM     19  C   LIG    1        8.116   3.114   2.577  0.00  0.00    +0.110 A 
ATOM     20  C   LIG    1        8.451   4.139   3.443  0.00  0.00    +0.030 A 
ATOM     21  C   LIG    1        8.413   3.927   4.810  0.00  0.00    -0.000 A 
ATOM     22  C   LIG    1        8.033   2.698   5.316  0.00  0.00    +0.010 A 
ATOM     23 CL   LIG    1        8.846   5.211   5.895  0.00  0.00    -0.050 Cl
ATOM     24  C   LIG    1        7.676   1.665   4.457  0.00  0.00    +0.170 A 
ATOM     25  N   LIG    1        7.292   0.438   4.991  0.00  0.00    -0.650 N 
ATOM     26  H   LIG    1        7.514   0.276   5.921  0.00  0.00    +0.420 HD
ATOM     27  C   LIG    1        6.649  -0.533   4.350  0.00  0.00    +0.530 C 
ATOM     28  O   LIG    1        6.469  -1.586   4.925  0.00  0.00    -0.500 OA
ENDBRANCH  15  16
ENDBRANCH   3  15
TORSDOF 5
