REMARK  Name = ZINCrD00000hQ6J2.0
REMARK                            x       y       z     vdW  Elec       q    Type
REMARK                         _______ _______ _______ _____ _____    ______ ____
ROOT
ATOM      1  O   LIG    1        2.341   5.175  -0.088  0.00  0.00    -0.520 OA
ATOM      2  C   LIG    1        2.371   3.963   0.000  0.00  0.00    +0.570 C 
ATOM      3  N   LIG    1        3.554   3.323   0.087  0.00  0.00    -0.600 N 
ATOM      4  C   LIG    1        3.613   1.855   0.086  0.00  0.00    +0.270 C 
ATOM      5  C   LIG    1        4.581   1.405  -1.019  0.00  0.00    +0.010 C 
ATOM      6  C   LIG    1        5.935   2.088  -0.812  0.00  0.00    +0.010 C 
ATOM      7  C   LIG    1        5.763   3.606  -0.911  0.00  0.00    +0.020 C 
ATOM      8  C   LIG    1        4.809   4.080   0.190  0.00  0.00    +0.280 C 
ENDROOT
BRANCH   2   9
ATOM      9  C   LIG    1        1.113   3.192   0.013  0.00  0.00    -0.140 A 
ATOM     10  C   LIG    1        0.650   2.660   1.181  0.00  0.00    +0.270 A 
ATOM     11  N   LIG    1       -0.508   1.948   1.203  0.00  0.00    -0.360 N 
ATOM     12  C   LIG    1       -1.186   1.318   2.213  0.00  0.00    +0.100 A 
ATOM     13  C   LIG    1       -2.297   0.777   1.669  0.00  0.00    +0.230 A 
ATOM     14  N   LIG    1       -2.307   1.046   0.361  0.00  0.00    -0.490 NA
ATOM     15  C   LIG    1       -1.234   1.759   0.054  0.00  0.00    +0.230 A 
ATOM     16  C   LIG    1       -0.771   2.295  -1.167  0.00  0.00    +0.090 A 
ATOM     17  C   LIG    1        0.384   3.005  -1.189  0.00  0.00    +0.070 A 
ENDBRANCH   2   9
BRANCH   6  18
ATOM     18  C   LIG    1        6.914   1.615  -1.889  0.00  0.00    +0.140 C 
BRANCH  18  19
ATOM     19  C   LIG    1        7.178   0.142  -1.714  0.00  0.00    +0.290 A 
ATOM     20  N   LIG    1        7.601  -0.415  -0.617  0.00  0.00    -0.490 NA
ATOM     21  C   LIG    1        7.732  -1.754  -0.806  0.00  0.00    +0.050 A 
ATOM     22  C   LIG    1        8.140  -2.807   0.016  0.00  0.00    +0.060 A 
ATOM     23  C   LIG    1        8.167  -4.082  -0.474  0.00  0.00    +0.000 A 
ATOM     24  C   LIG    1        7.793  -4.345  -1.784  0.00  0.00    +0.030 A 
ATOM     25  C   LIG    1        7.387  -3.321  -2.614  0.00  0.00    +0.010 A 
ATOM     26  C   LIG    1        7.354  -2.019  -2.133  0.00  0.00    +0.050 A 
ATOM     27  N   LIG    1        7.003  -0.801  -2.680  0.00  0.00    -0.600 N 
ATOM     28  H   LIG    1        6.692  -0.645  -3.585  0.00  0.00    +0.420 HD
ENDBRANCH  18  19
ENDBRANCH   6  18
TORSDOF 3
