REMARK  Name = ZINCvU0000000682.0
REMARK                            x       y       z     vdW  Elec       q    Type
REMARK                         _______ _______ _______ _____ _____    ______ ____
ROOT
ATOM      1  C   LIG    1        1.234  -0.419   0.396  0.00  0.00    +0.140 A 
ATOM      2  N   LIG    1        1.942   0.676   0.236  0.00  0.00    -0.290 NA
ATOM      3  N   LIG    1        1.168   1.701   0.199  0.00  0.00    -0.250 NA
ATOM      4  C   LIG    1       -0.082   1.323   0.333  0.00  0.00    +0.220 A 
ATOM      5  N   LIG    1       -0.078  -0.047   0.463  0.00  0.00    -0.440 N 
ENDROOT
BRANCH   4   6
ATOM      6  C   LIG    1       -1.270   2.203   0.336  0.00  0.00    -0.010 A 
ATOM      7  C   LIG    1       -2.372   1.896  -0.464  0.00  0.00    +0.040 A 
ATOM      8  C   LIG    1       -3.479   2.718  -0.453  0.00  0.00    +0.030 A 
ATOM      9  C   LIG    1       -3.497   3.851   0.342  0.00  0.00    +0.050 A 
ATOM     10  C   LIG    1       -2.406   4.164   1.134  0.00  0.00    +0.030 A 
ATOM     11  C   LIG    1       -1.293   3.348   1.136  0.00  0.00    -0.000 A 
ATOM     12 CL   LIG    1        0.074   3.742   2.130  0.00  0.00    -0.040 Cl
ENDBRANCH   4   6
BRANCH   5  13
ATOM     13  C   LIG    1       -1.240  -0.923   0.636  0.00  0.00    +0.230 C 
ATOM     14  C   LIG    1       -1.108  -1.721   1.949  0.00  0.00    +0.030 C 
ATOM     15  C   LIG    1       -1.692  -3.114   1.607  0.00  0.00    +0.030 C 
ATOM     16  C   LIG    1       -1.195  -3.346   0.158  0.00  0.00    +0.030 C 
ATOM     17  C   LIG    1       -1.295  -1.956  -0.503  0.00  0.00    +0.020 C 
ENDBRANCH   5  13
BRANCH   1  18
ATOM     18  S   LIG    1        1.861  -2.063   0.503  0.00  0.00    +0.100 S 
BRANCH  18  19
ATOM     19  C   LIG    1        3.633  -1.735   0.334  0.00  0.00    +0.100 C 
BRANCH  19  21
ATOM     20  O   LIG    1        3.794  -4.080   0.543  0.00  0.00    -0.500 OA
ATOM     21  C   LIG    1        4.392  -3.035   0.398  0.00  0.00    +0.540 C 
ATOM     22  N   LIG    1        5.736  -3.037   0.293  0.00  0.00    -0.660 N 
ATOM     23  H   LIG    1        6.220  -2.197   0.252  0.00  0.00    +0.420 HD
BRANCH  22  24
ATOM     24  C   LIG    1        6.434  -4.251   0.245  0.00  0.00    +0.160 A 
ATOM     25  C   LIG    1        5.859  -5.357  -0.366  0.00  0.00    +0.040 A 
ATOM     26  C   LIG    1        6.546  -6.555  -0.415  0.00  0.00    +0.060 A 
ATOM     27  C   LIG    1        7.809  -6.656   0.145  0.00  0.00    +0.020 A 
ATOM     28  O   LIG    1        8.680  -7.705   0.230  0.00  0.00    -0.310 OA
ATOM     29  C   LIG    1        9.622  -7.341   1.256  0.00  0.00    +0.430 C 
ATOM     30  O   LIG    1        9.621  -5.901   1.227  0.00  0.00    -0.310 OA
ATOM     31  C   LIG    1        8.388  -5.547   0.759  0.00  0.00    +0.050 A 
ATOM     32  C   LIG    1        7.702  -4.346   0.802  0.00  0.00    +0.020 A 
ENDBRANCH  22  24
ENDBRANCH  19  21
ENDBRANCH  18  19
ENDBRANCH   1  18
TORSDOF 6
