REMARK  Name = ZINCrH000004tPTW.1
REMARK                            x       y       z     vdW  Elec       q    Type
REMARK                         _______ _______ _______ _____ _____    ______ ____
ROOT
ATOM      1  O   LIG    1       -4.556  -0.291   0.151  0.00  0.00    -0.510 OA
ATOM      2  C   LIG    1       -4.753   0.899   0.033  0.00  0.00    +0.520 C 
ATOM      3  N   LIG    1       -6.015   1.374   0.005  0.00  0.00    -0.730 N 
ATOM      4  H   LIG    1       -6.173   2.326  -0.089  0.00  0.00    +0.400 HD
ENDROOT
BRANCH   3   5
ATOM      5  C   LIG    1       -7.147   0.451   0.117  0.00  0.00    +0.300 C 
BRANCH   5   6
ATOM      6  C   LIG    1       -8.451   1.249   0.176  0.00  0.00    +0.230 C 
BRANCH   6   7
ATOM      7  N   LIG    1       -9.575   0.333   0.417  0.00  0.00    -0.510 NA
ATOM      8  C   LIG    1       -9.397  -0.403   1.695  0.00  0.00    +0.170 C 
ATOM      9  C   LIG    1      -10.833  -0.874   2.035  0.00  0.00    +0.040 C 
ATOM     10  C   LIG    1      -11.705   0.319   1.582  0.00  0.00    +0.020 C 
ATOM     11  C   LIG    1      -10.845   1.078   0.554  0.00  0.00    +0.170 C 
ENDBRANCH   6   7
BRANCH   6  12
ATOM     12  C   LIG    1       -8.661   1.967  -1.132  0.00  0.00    -0.000 A 
ATOM     13  C   LIG    1       -8.395   3.265  -1.368  0.00  0.00    -0.060 A 
ATOM     14  C   LIG    1       -8.738   3.514  -2.717  0.00  0.00    -0.060 A 
ATOM     15  C   LIG    1       -9.193   2.354  -3.224  0.00  0.00    +0.160 A 
ATOM     16  O   LIG    1       -9.139   1.420  -2.261  0.00  0.00    -0.150 OA
ENDBRANCH   6  12
ENDBRANCH   5   6
ENDBRANCH   3   5
BRANCH   2  17
ATOM     17  C   LIG    1       -3.589   1.849  -0.082  0.00  0.00    +0.220 C 
BRANCH  17  18
ATOM     18  O   LIG    1       -2.366   1.111  -0.026  0.00  0.00    -0.290 OA
BRANCH  18  19
ATOM     19  C   LIG    1       -1.212   1.823  -0.116  0.00  0.00    +0.130 A 
ATOM     20  C   LIG    1       -0.013   1.171  -0.069  0.00  0.00    -0.010 A 
ATOM     21  C   LIG    1        1.181   1.904  -0.168  0.00  0.00    -0.010 A 
ATOM     22  C   LIG    1        2.433   1.268  -0.129  0.00  0.00    +0.020 A 
ATOM     23  C   LIG    1        3.570   2.010  -0.228  0.00  0.00    +0.020 A 
ATOM     24  C   LIG    1        3.512   3.395  -0.367  0.00  0.00    -0.010 A 
ATOM     25  C   LIG    1        2.317   4.046  -0.408  0.00  0.00    +0.030 A 
ATOM     26  C   LIG    1        1.122   3.314  -0.310  0.00  0.00    -0.080 A 
ATOM     27  C   LIG    1       -0.130   3.952  -0.349  0.00  0.00    +0.070 A 
ATOM     28  C   LIG    1       -1.267   3.213  -0.251  0.00  0.00    -0.060 A 
ENDBRANCH  18  19
ENDBRANCH  17  18
ENDBRANCH   2  17
TORSDOF 7
