REMARK  Name = ZINCrD000000DgSp.0
REMARK                            x       y       z     vdW  Elec       q    Type
REMARK                         _______ _______ _______ _____ _____    ______ ____
ROOT
ATOM      1  C   LIG    1       -1.733  -3.296   0.556  0.00  0.00    +0.220 A 
ATOM      2  N   LIG    1       -2.952  -3.042   0.955  0.00  0.00    -0.370 NA
ATOM      3  O   LIG    1       -3.554  -4.079   1.141  0.00  0.00    +0.080 OA
ATOM      4  C   LIG    1       -2.759  -5.122   0.884  0.00  0.00    +0.190 A 
ATOM      5  N   LIG    1       -1.599  -4.641   0.511  0.00  0.00    -0.450 NA
ENDROOT
BRANCH   1  14
ATOM      6  C   LIG    1        0.575  -2.716  -0.186  0.00  0.00    +0.090 A 
ATOM      7  C   LIG    1        1.545  -1.786  -0.497  0.00  0.00    +0.050 A 
ATOM      8  C   LIG    1        1.266  -0.430  -0.405  0.00  0.00    +0.060 A 
ATOM      9  C   LIG    1        0.002  -0.004   0.002  0.00  0.00    +0.030 A 
ATOM     10  O   LIG    1       -0.016   1.361   0.009  0.00  0.00    -0.300 OA
ATOM     11  C   LIG    1        1.366   1.764  -0.002  0.00  0.00    +0.440 C 
ATOM     12  C   LIG    1       -0.972  -0.934   0.315  0.00  0.00    +0.070 A 
ATOM     13  O   LIG    1        2.036   0.669  -0.652  0.00  0.00    -0.300 OA
ATOM     14  C   LIG    1       -0.690  -2.296   0.221  0.00  0.00    -0.020 A 
ENDBRANCH   1  14
BRANCH   4  15
ATOM     15  C   LIG    1       -3.128  -6.579   1.001  0.00  0.00    +0.360 C 
BRANCH  15  16
ATOM     16  N   LIG    1       -2.823  -7.053   2.358  0.00  0.00    -0.520 NA
ATOM     17  C   LIG    1       -3.311  -6.104   3.369  0.00  0.00    +0.140 C 
ATOM     18  C   LIG    1       -2.927  -6.613   4.761  0.00  0.00    +0.230 C 
ATOM     19  O   LIG    1       -3.454  -7.929   4.944  0.00  0.00    -0.370 OA
ATOM     20  C   LIG    1       -2.964  -8.883   3.983  0.00  0.00    +0.130 C 
ATOM     21  C   LIG    1       -1.418  -8.829   4.042  0.00  0.00    +0.020 C 
ATOM     22  C   LIG    1       -0.981  -8.785   5.479  0.00  0.00    +0.000 C 
ATOM     23  C   LIG    1       -0.660 -10.182   6.050  0.00  0.00    +0.000 C 
ATOM     24  C   LIG    1       -1.681 -11.251   5.617  0.00  0.00    +0.000 C 
ATOM     25  C   LIG    1       -3.094 -10.733   5.660  0.00  0.00    +0.030 C 
ATOM     26  C   LIG    1       -3.465 -10.226   4.256  0.00  0.00    +0.040 C 
ATOM     27  C   LIG    1       -3.383  -8.392   2.585  0.00  0.00    +0.170 C 
ENDBRANCH  15  16
ENDBRANCH   4  15
TORSDOF 3
