REMARK  Name = ZINCrg000000s8kk.0
REMARK                            x       y       z     vdW  Elec       q    Type
REMARK                         _______ _______ _______ _____ _____    ______ ____
ROOT
ATOM      1  N   LIG    1        2.015   1.872   3.695  0.00  0.00    -0.380 N 
ATOM      2  C   LIG    1        2.139   1.020   4.732  0.00  0.00    +0.330 A 
ATOM      3  N   LIG    1        2.646   1.651   5.763  0.00  0.00    -0.470 NA
ATOM      4  C   LIG    1        2.872   2.928   5.446  0.00  0.00    +0.330 A 
ATOM      5  N   LIG    1        3.385   4.013   6.139  0.00  0.00    -0.510 N 
ATOM      6  C   LIG    1        3.807   3.857   7.533  0.00  0.00    +0.360 C 
ATOM      7  C   LIG    1        3.495   5.210   5.532  0.00  0.00    +0.710 A 
ATOM      8  O   LIG    1        3.947   6.151   6.156  0.00  0.00    -0.530 OA
ATOM      9  N   LIG    1        3.118   5.391   4.255  0.00  0.00    -0.550 N 
ATOM     10  C   LIG    1        3.259   6.714   3.642  0.00  0.00    +0.350 C 
ATOM     11  C   LIG    1        2.611   4.373   3.529  0.00  0.00    +0.600 A 
ATOM     12  O   LIG    1        2.274   4.549   2.372  0.00  0.00    -0.510 OA
ATOM     13 CL   LIG    1        1.694  -0.658   4.707  0.00  0.00    +0.070 Cl
ATOM     14  C   LIG    1        2.482   3.100   4.123  0.00  0.00    -0.130 A 
ENDROOT
BRANCH   1  15
ATOM     15  C   LIG    1        1.491   1.555   2.364  0.00  0.00    +0.350 C 
BRANCH  15  17
ATOM     16  N   LIG    1       -0.698   1.558   1.213  0.00  0.00    -0.600 N 
ATOM     17  C   LIG    1        0.002   1.786   2.342  0.00  0.00    +0.510 C 
ATOM     18  O   LIG    1       -0.565   2.177   3.340  0.00  0.00    -0.510 OA
ATOM     19  C   LIG    1       -0.013   1.086   0.008  0.00  0.00    +0.280 C 
BRANCH  16  20
ATOM     20  C   LIG    1       -2.146   1.783   1.192  0.00  0.00    +0.340 C 
BRANCH  20  25
ATOM     21  C   LIG    1       -4.873  -3.078   2.717  0.00  0.00    +0.090 C 
ATOM     22  C   LIG    1       -4.162  -1.810   2.319  0.00  0.00    -0.080 A 
ATOM     23  C   LIG    1       -3.800  -0.889   3.284  0.00  0.00    +0.000 A 
ATOM     24  C   LIG    1       -3.147   0.274   2.920  0.00  0.00    +0.040 A 
ATOM     25  C   LIG    1       -2.857   0.515   1.590  0.00  0.00    -0.120 A 
ATOM     26  C   LIG    1       -3.224  -0.404   0.624  0.00  0.00    +0.020 A 
ATOM     27  C   LIG    1       -3.872  -1.569   0.990  0.00  0.00    -0.010 A 
ENDBRANCH  20  25
ENDBRANCH  16  20
ENDBRANCH  15  17
ENDBRANCH   1  15
TORSDOF 4
