REMARK  Name = ZINCrD00000F5Lwh.0
REMARK                            x       y       z     vdW  Elec       q    Type
REMARK                         _______ _______ _______ _____ _____    ______ ____
ROOT
ATOM      1  C   LIG    1       -2.030   1.765   1.194  0.00  0.00    +0.570 C 
ATOM      2  N   LIG    1       -0.698   1.558   1.213  0.00  0.00    -0.590 N 
ATOM      3  C   LIG    1       -0.013   1.086   0.008  0.00  0.00    +0.290 C 
ATOM      4  O   LIG    1       -2.600   2.158   2.196  0.00  0.00    -0.540 OA
ENDROOT
BRANCH   1   6
ATOM      5  C   LIG    1       -4.106   1.734  -0.011  0.00  0.00    +0.170 C 
ATOM      6  C   LIG    1       -2.766   1.526   0.009  0.00  0.00    -0.070 C 
BRANCH   5  10
ATOM      7  C   LIG    1       -6.517   1.336  -2.608  0.00  0.00    +0.050 A 
ATOM      8  C   LIG    1       -5.411   0.955  -3.285  0.00  0.00    -0.050 A 
ATOM      9  C   LIG    1       -4.328   1.050  -2.397  0.00  0.00    +0.010 A 
ATOM     10  C   LIG    1       -4.843   1.494  -1.197  0.00  0.00    -0.020 A 
ATOM     11  O   LIG    1       -6.173   1.654  -1.352  0.00  0.00    -0.160 OA
BRANCH   7  15
ATOM     12  C   LIG    1      -10.057  -0.094  -3.398  0.00  0.00    +0.060 C 
ATOM     13  C   LIG    1       -8.980   0.520  -2.502  0.00  0.00    -0.030 C 
ATOM     14  C   LIG    1       -8.999   2.039  -2.313  0.00  0.00    +0.050 C 
ATOM     15  C   LIG    1       -7.913   1.389  -3.172  0.00  0.00    +0.050 C 
ENDBRANCH   7  15
ENDBRANCH   5  10
ENDBRANCH   1   6
BRANCH   2  16
ATOM     16  C   LIG    1        0.063   1.806   2.440  0.00  0.00    +0.400 C 
BRANCH  16  17
ATOM     17  C   LIG    1        0.539   3.236   2.455  0.00  0.00    +0.430 A 
ATOM     18  N   LIG    1        0.234   4.000   1.444  0.00  0.00    -0.580 NA
ATOM     19  C   LIG    1        0.618   5.289   1.388  0.00  0.00    +0.530 A 
ATOM     20  C   LIG    1        1.414   5.825   2.507  0.00  0.00    -0.210 A 
ATOM     21  C   LIG    1        1.859   7.144   2.533  0.00  0.00    +0.110 A 
ATOM     22  C   LIG    1        2.600   7.588   3.607  0.00  0.00    -0.010 A 
ATOM     23  C   LIG    1        2.902   6.731   4.656  0.00  0.00    +0.080 A 
ATOM     24  C   LIG    1        2.467   5.422   4.644  0.00  0.00    -0.020 A 
ATOM     25  C   LIG    1        1.720   4.956   3.571  0.00  0.00    +0.180 A 
ATOM     26  O   LIG    1        0.320   5.992   0.438  0.00  0.00    -0.480 OA
ATOM     27  N   LIG    1        1.261   3.655   3.509  0.00  0.00    -0.620 N 
ATOM     28  H   LIG    1        1.461   3.040   4.232  0.00  0.00    +0.420 HD
ENDBRANCH  16  17
ENDBRANCH   2  16
TORSDOF 5
