REMARK  Name = ZINCpk000000oXLZ.0
REMARK                            x       y       z     vdW  Elec       q    Type
REMARK                         _______ _______ _______ _____ _____    ______ ____
ROOT
ATOM      1  N   LIG    1       -2.937   1.674   2.383  0.00  0.00    -0.720 N 
ATOM      2  H   LIG    1       -3.378   2.537   2.413  0.00  0.00    +0.400 HD
ATOM      3  C   LIG    1       -2.939   0.877   3.470  0.00  0.00    +0.560 C 
ATOM      4  O   LIG    1       -2.385  -0.205   3.431  0.00  0.00    -0.530 OA
ENDROOT
BRANCH   1   9
ATOM      5  C   LIG    1       -0.080   2.344  -2.141  0.00  0.00    +0.650 C 
ATOM      6  N   LIG    1       -0.765   1.659  -1.204  0.00  0.00    -0.600 N 
ATOM      7  C   LIG    1       -0.075   1.096  -0.035  0.00  0.00    +0.310 C 
ATOM      8  C   LIG    1       -0.775   1.585   1.237  0.00  0.00    +0.010 C 
ATOM      9  C   LIG    1       -2.267   1.237   1.155  0.00  0.00    +0.240 C 
ATOM     10  C   LIG    1       -2.894   1.945  -0.048  0.00  0.00    +0.030 C 
ATOM     11  C   LIG    1       -2.215   1.460  -1.332  0.00  0.00    +0.300 C 
ATOM     12  O   LIG    1        1.119   2.502  -2.024  0.00  0.00    -0.570 OA
BRANCH   5  13
ATOM     13  O   LIG    1       -0.725   2.854  -3.208  0.00  0.00    -0.370 OA
BRANCH  13  15
ATOM     14  C   LIG    1       -0.824   4.081  -5.309  0.00  0.00    +0.070 C 
ATOM     15  C   LIG    1        0.075   3.581  -4.177  0.00  0.00    +0.220 C 
ENDBRANCH  13  15
ENDBRANCH   5  13
ENDBRANCH   1   9
BRANCH   3  16
ATOM     16  C   LIG    1       -3.614   1.317   4.705  0.00  0.00    -0.150 A 
ATOM     17  C   LIG    1       -4.246   2.563   4.753  0.00  0.00    +0.070 A 
ATOM     18  C   LIG    1       -4.879   2.968   5.905  0.00  0.00    +0.010 A 
ATOM     19  C   LIG    1       -4.880   2.143   7.027  0.00  0.00    +0.170 A 
ATOM     20  C   LIG    1       -4.247   0.904   6.985  0.00  0.00    +0.000 A 
ATOM     21  C   LIG    1       -3.617   0.491   5.833  0.00  0.00    +0.100 A 
BRANCH  19  22
ATOM     22  N   LIG    1       -5.516   2.558   8.193  0.00  0.00    -1.060 N 
ATOM     23  H   LIG    1       -6.101   1.949   8.669  0.00  0.00    +0.430 HD
BRANCH  22  24
ATOM     24  S   LIG    1       -5.273   4.093   8.766  0.00  0.00    +2.610 S 
ATOM     25  O   LIG    1       -6.012   4.134   9.979  0.00  0.00    -0.950 OA
ATOM     26  O   LIG    1       -5.614   4.934   7.672  0.00  0.00    -0.950 OA
ATOM     27  C   LIG    1       -3.493   4.175   9.102  0.00  0.00    -0.270 C 
ENDBRANCH  22  24
ENDBRANCH  19  22
ENDBRANCH   3  16
TORSDOF 6
