REMARK  Name = ZINCvU00000009G8.0
REMARK                            x       y       z     vdW  Elec       q    Type
REMARK                         _______ _______ _______ _____ _____    ______ ____
ROOT
ATOM      1  C   LIG    1        3.841   3.649  -0.268  0.00  0.00    +0.140 A 
ATOM      2  C   LIG    1        3.893   2.361   0.222  0.00  0.00    +0.060 A 
ATOM      3  C   LIG    1        2.737   1.599   0.354  0.00  0.00    -0.020 A 
ATOM      4  C   LIG    1        1.510   2.105  -0.012  0.00  0.00    +0.110 A 
ATOM      5  C   LIG    1        1.422   3.416  -0.515  0.00  0.00    -0.020 A 
ATOM      6  C   LIG    1        0.197   3.988  -0.899  0.00  0.00    +0.020 A 
ATOM      7  C   LIG    1        0.193   5.264  -1.378  0.00  0.00    +0.230 A 
ATOM      8  N   LIG    1        1.308   5.972  -1.490  0.00  0.00    -0.470 NA
ATOM      9  C   LIG    1        2.486   5.501  -1.150  0.00  0.00    +0.300 A 
ATOM     10  C   LIG    1        2.599   4.198  -0.646  0.00  0.00    -0.100 A 
ENDROOT
BRANCH   1  12
ATOM     11  C   LIG    1        6.171   3.801  -0.714  0.00  0.00    +0.510 C 
ATOM     12  N   LIG    1        5.010   4.404  -0.389  0.00  0.00    -0.670 N 
ATOM     13  H   LIG    1        4.986   5.362  -0.240  0.00  0.00    +0.410 HD
ATOM     14  O   LIG    1        6.216   2.595  -0.832  0.00  0.00    -0.510 OA
BRANCH  11  15
ATOM     15  C   LIG    1        7.414   4.626  -0.929  0.00  0.00    +0.070 C 
BRANCH  15  16
ATOM     16  C   LIG    1        8.582   3.704  -1.283  0.00  0.00    +0.140 C 
BRANCH  16  24
ATOM     17  C   LIG    1        9.547   4.935  -4.040  0.00  0.00    +0.150 C 
ATOM     18  C   LIG    1       10.252   5.072  -2.715  0.00  0.00    +0.080 A 
ATOM     19  N   LIG    1       11.366   5.724  -2.502  0.00  0.00    -0.300 NA
ATOM     20  N   LIG    1       11.690   5.608  -1.145  0.00  0.00    -0.370 N 
ATOM     21  C   LIG    1       10.729   4.870  -0.550  0.00  0.00    +0.090 A 
ATOM     22  C   LIG    1       10.672   4.492   0.907  0.00  0.00    +0.150 C 
ATOM     23  C   LIG    1       12.864   6.184  -0.486  0.00  0.00    +0.360 C 
ATOM     24  C   LIG    1        9.825   4.529  -1.498  0.00  0.00    -0.240 A 
ENDBRANCH  16  24
ENDBRANCH  15  16
ENDBRANCH  11  15
ENDBRANCH   1  12
BRANCH   4  25
ATOM     25  O   LIG    1        0.390   1.346   0.118  0.00  0.00    -0.250 OA
BRANCH  25  26
ATOM     26  C   LIG    1        0.507   0.136   0.724  0.00  0.00    +0.110 A 
ATOM     27  C   LIG    1        0.309  -1.028  -0.006  0.00  0.00    +0.010 A 
ATOM     28  C   LIG    1        0.433  -2.259   0.609  0.00  0.00    +0.080 A 
ATOM     29  C   LIG    1        0.744  -2.333   1.954  0.00  0.00    -0.010 A 
ATOM     30  C   LIG    1        0.937  -1.173   2.687  0.00  0.00    +0.120 A 
ATOM     31  F   LIG    1        1.241  -1.248   4.001  0.00  0.00    -0.130 F 
ATOM     32  C   LIG    1        0.819   0.061   2.074  0.00  0.00    -0.040 A 
ENDBRANCH  25  26
ENDBRANCH   4  25
TORSDOF 6
