REMARK  Name = ZINCqH0000004BiV.0
REMARK                            x       y       z     vdW  Elec       q    Type
REMARK                         _______ _______ _______ _____ _____    ______ ____
ROOT
ATOM      1  C   LIG    1        5.612  -1.621   0.514  0.00  0.00    +0.220 A 
ATOM      2  N   LIG    1        5.522  -1.584  -0.790  0.00  0.00    -0.360 NA
ATOM      3  O   LIG    1        4.436  -1.157  -1.121  0.00  0.00    +0.100 OA
ATOM      4  C   LIG    1        3.710  -0.863  -0.037  0.00  0.00    +0.180 A 
ATOM      5  N   LIG    1        4.443  -1.156   1.009  0.00  0.00    -0.440 NA
ENDROOT
BRANCH   1   9
ATOM      6  C   LIG    1        8.958  -2.955   2.775  0.00  0.00    -0.060 A 
ATOM      7  C   LIG    1        9.008  -2.975   1.393  0.00  0.00    +0.010 A 
ATOM      8  C   LIG    1        7.925  -2.543   0.654  0.00  0.00    +0.050 A 
ATOM      9  C   LIG    1        6.780  -2.087   1.303  0.00  0.00    -0.040 A 
ATOM     10  C   LIG    1        6.736  -2.065   2.695  0.00  0.00    +0.070 A 
ATOM     11  C   LIG    1        7.823  -2.504   3.424  0.00  0.00    +0.010 A 
BRANCH   6  13
ATOM     12  C   LIG    1       11.079  -2.248   3.848  0.00  0.00    +0.030 C 
ATOM     13  C   LIG    1       10.143  -3.428   3.576  0.00  0.00    +0.070 C 
ENDBRANCH   6  13
ENDBRANCH   1   9
BRANCH   4  14
ATOM     14  C   LIG    1        2.310  -0.306  -0.021  0.00  0.00    +0.380 C 
BRANCH  14  15
ATOM     15  O   LIG    1        2.366   1.122  -0.014  0.00  0.00    -0.280 OA
BRANCH  15  16
ATOM     16  C   LIG    1        1.179   1.786   0.000  0.00  0.00    +0.160 A 
ATOM     17  C   LIG    1       -0.013   1.076   0.008  0.00  0.00    -0.010 A 
ATOM     18  C   LIG    1       -1.218   1.750   0.017  0.00  0.00    +0.040 A 
ATOM     19  C   LIG    1       -1.237   3.137   0.031  0.00  0.00    +0.100 A 
ATOM     20  C   LIG    1       -0.045   3.847   0.024  0.00  0.00    +0.120 A 
ATOM     21  C   LIG    1        1.160   3.172   0.008  0.00  0.00    -0.030 A 
BRANCH  21  22
ATOM     22  N   LIG    1        2.432   3.930   0.000  0.00  0.00    +0.030 N 
ATOM     23  O   LIG    1        3.494   3.335  -0.013  0.00  0.00    -0.130 OA
ATOM     24  O   LIG    1        2.415   5.148   0.007  0.00  0.00    -0.160 OA
ENDBRANCH  21  22
BRANCH  19  25
ATOM     25  O   LIG    1       -2.424   3.801   0.046  0.00  0.00    -0.310 OA
ATOM     26  C   LIG    1       -3.611   3.006   0.053  0.00  0.00    +0.250 C 
ENDBRANCH  19  25
ENDBRANCH  15  16
ENDBRANCH  14  15
ENDBRANCH   4  14
TORSDOF 7
