REMARK  Name = ZINCvU0000000GPN.0
REMARK                            x       y       z     vdW  Elec       q    Type
REMARK                         _______ _______ _______ _____ _____    ______ ____
ROOT
ATOM      1  C   LIG    1        0.584   3.847  -0.040  0.00  0.00    +0.220 A 
ATOM      2  N   LIG    1       -0.726   3.777   0.005  0.00  0.00    -0.260 NA
ATOM      3  N   LIG    1       -1.098   2.548   0.060  0.00  0.00    -0.290 NA
ATOM      4  C   LIG    1       -0.048   1.758   0.062  0.00  0.00    +0.180 A 
ATOM      5  N   LIG    1        1.059   2.556  -0.005  0.00  0.00    -0.450 N 
ENDROOT
BRANCH   1  10
ATOM      6  F   LIG    1        3.660   8.517  -0.323  0.00  0.00    -0.130 F 
ATOM      7  C   LIG    1        2.918   7.390  -0.255  0.00  0.00    +0.110 A 
ATOM      8  C   LIG    1        3.471   6.176  -0.629  0.00  0.00    -0.010 A 
ATOM      9  C   LIG    1        2.718   5.022  -0.561  0.00  0.00    +0.050 A 
ATOM     10  C   LIG    1        1.396   5.080  -0.115  0.00  0.00    -0.020 A 
ATOM     11  C   LIG    1        0.843   6.307   0.254  0.00  0.00    +0.110 A 
ATOM     12  C   LIG    1        1.606   7.453   0.188  0.00  0.00    +0.000 A 
ENDBRANCH   1  10
BRANCH   4  13
ATOM     13  S   LIG    1       -0.065  -0.002   0.131  0.00  0.00    +0.050 S 
BRANCH  13  14
ATOM     14  C   LIG    1       -1.849  -0.297   0.200  0.00  0.00    +0.210 C 
BRANCH  14  15
ATOM     15  C   LIG    1       -2.111  -1.780   0.266  0.00  0.00    -0.010 A 
ATOM     16  C   LIG    1       -2.289  -2.600  -0.785  0.00  0.00    +0.180 A 
ATOM     17  O   LIG    1       -2.491  -3.840  -0.295  0.00  0.00    -0.190 OA
ATOM     18  C   LIG    1       -2.444  -3.762   1.046  0.00  0.00    +0.240 A 
ATOM     19  N   LIG    1       -2.214  -2.515   1.384  0.00  0.00    -0.460 NA
BRANCH  18  20
ATOM     20  C   LIG    1       -2.620  -4.891   1.983  0.00  0.00    -0.020 A 
ATOM     21  C   LIG    1       -2.541  -4.679   3.360  0.00  0.00    +0.070 A 
ATOM     22  C   LIG    1       -2.712  -5.737   4.229  0.00  0.00    +0.010 A 
ATOM     23  C   LIG    1       -2.950  -7.008   3.739  0.00  0.00    +0.030 A 
ATOM     24  C   LIG    1       -3.025  -7.226   2.374  0.00  0.00    +0.010 A 
ATOM     25  C   LIG    1       -2.861  -6.176   1.494  0.00  0.00    +0.040 A 
ENDBRANCH  18  20
ENDBRANCH  14  15
ENDBRANCH  13  14
ENDBRANCH   4  13
BRANCH   5  26
ATOM     26  C   LIG    1        2.459   2.127  -0.033  0.00  0.00    +0.330 C 
BRANCH  26  27
ATOM     27  C   LIG    1        2.885   1.871  -1.480  0.00  0.00    +0.130 C 
ATOM     28  C   LIG    1        4.389   1.540  -1.534  0.00  0.00    +0.020 C 
ATOM     29  C   LIG    1        4.446   0.136  -2.184  0.00  0.00    +0.010 C 
ATOM     30  C   LIG    1        3.078   0.058  -2.909  0.00  0.00    +0.200 C 
ATOM     31  O   LIG    1        2.178   0.734  -2.004  0.00  0.00    -0.350 OA
ENDBRANCH  26  27
ENDBRANCH   5  26
TORSDOF 7
