REMARK  Name = ZINCqH0000007nIX.1
REMARK                            x       y       z     vdW  Elec       q    Type
REMARK                         _______ _______ _______ _____ _____    ______ ____
ROOT
ATOM      1  C   LIG    1       -6.910   1.374   0.623  0.00  0.00    +0.540 C 
ATOM      2  N   LIG    1       -7.466   1.177  -0.589  0.00  0.00    -0.730 N 
ATOM      3  H   LIG    1       -7.261   0.374  -1.093  0.00  0.00    +0.400 HD
ATOM      4  O   LIG    1       -7.166   2.378   1.252  0.00  0.00    -0.510 OA
ENDROOT
BRANCH   1   5
ATOM      5  C   LIG    1       -5.969   0.345   1.195  0.00  0.00    +0.000 C 
ATOM      6  C   LIG    1       -6.777  -0.807   1.796  0.00  0.00    +0.080 C 
BRANCH   5   7
ATOM      7  S   LIG    1       -4.953   1.109   2.489  0.00  0.00    -0.070 S 
BRANCH   7  11
ATOM      8  C   LIG    1       -2.179  -2.253   3.724  0.00  0.00    +0.160 A 
ATOM      9  C   LIG    1       -1.873  -1.473   2.619  0.00  0.00    -0.020 A 
ATOM     10  C   LIG    1       -2.714  -0.444   2.245  0.00  0.00    +0.110 A 
ATOM     11  C   LIG    1       -3.874  -0.198   2.970  0.00  0.00    -0.180 A 
ATOM     12  C   LIG    1       -4.180  -0.980   4.076  0.00  0.00    +0.120 A 
ATOM     13  C   LIG    1       -3.334  -2.005   4.452  0.00  0.00    -0.090 A 
BRANCH   8  15
ATOM     14  C   LIG    1       -1.723  -4.026   5.243  0.00  0.00    +0.240 C 
ATOM     15  O   LIG    1       -1.346  -3.263   4.095  0.00  0.00    -0.310 OA
ENDBRANCH   8  15
ENDBRANCH   7  11
ENDBRANCH   5   7
ENDBRANCH   1   5
BRANCH   2  16
ATOM     16  C   LIG    1       -8.381   2.177  -1.146  0.00  0.00    +0.250 C 
BRANCH  16  17
ATOM     17  C   LIG    1       -8.734   1.800  -2.586  0.00  0.00    +0.210 C 
BRANCH  17  18
ATOM     18  C   LIG    1       -9.729   2.789  -3.135  0.00  0.00    -0.050 A 
ATOM     19  C   LIG    1      -11.065   2.686  -2.794  0.00  0.00    +0.010 A 
ATOM     20  C   LIG    1      -11.980   3.593  -3.296  0.00  0.00    +0.040 A 
ATOM     21  C   LIG    1      -11.559   4.603  -4.141  0.00  0.00    -0.010 A 
ATOM     22  C   LIG    1      -10.222   4.707  -4.483  0.00  0.00    +0.100 A 
ATOM     23  F   LIG    1       -9.810   5.694  -5.309  0.00  0.00    -0.140 F 
ATOM     24  C   LIG    1       -9.306   3.801  -3.975  0.00  0.00    +0.010 A 
ENDBRANCH  17  18
BRANCH  17  25
ATOM     25  N   LIG    1       -7.517   1.821  -3.410  0.00  0.00    -0.530 NA
ATOM     26  C   LIG    1       -6.798   0.543  -3.320  0.00  0.00    +0.190 C 
ATOM     27  C   LIG    1       -6.646   2.942  -3.034  0.00  0.00    +0.210 C 
ENDBRANCH  17  25
ENDBRANCH  16  17
ENDBRANCH   2  16
TORSDOF 8
