REMARK  Name = ZINCqH0000050asS.0
REMARK                            x       y       z     vdW  Elec       q    Type
REMARK                         _______ _______ _______ _____ _____    ______ ____
ROOT
ATOM      1  N   LIG    1       -0.762   8.287  -2.636  0.00  0.00    -0.660 N 
ATOM      2  H   LIG    1       -0.734   8.063  -1.693  0.00  0.00    +0.420 HD
ATOM      3  C   LIG    1       -1.413   7.483  -3.500  0.00  0.00    +0.550 C 
ATOM      4  O   LIG    1       -1.522   7.805  -4.664  0.00  0.00    -0.520 OA
ENDROOT
BRANCH   1   8
ATOM      5  C   LIG    1        1.166  11.688  -3.947  0.00  0.00    +0.350 A 
ATOM      6  C   LIG    1       -0.017  11.318  -4.575  0.00  0.00    +0.010 A 
ATOM      7  C   LIG    1       -0.678  10.180  -4.149  0.00  0.00    +0.100 A 
ATOM      8  C   LIG    1       -0.128   9.446  -3.100  0.00  0.00    +0.080 A 
ATOM      9  C   LIG    1        1.055   9.881  -2.518  0.00  0.00    +0.280 A 
ATOM     10  N   LIG    1        1.661  10.967  -2.954  0.00  0.00    -0.480 NA
BRANCH   5  17
ATOM     11  C   LIG    1        3.060  13.344  -2.181  0.00  0.00    +0.160 C 
ATOM     12  C   LIG    1        2.685  13.593  -3.619  0.00  0.00    +0.110 A 
ATOM     13  C   LIG    1        3.129  14.608  -4.396  0.00  0.00    -0.110 A 
ATOM     14  C   LIG    1        2.536  14.477  -5.657  0.00  0.00    +0.090 A 
ATOM     15  N   LIG    1        1.767  13.419  -5.643  0.00  0.00    -0.290 NA
ATOM     16  C   LIG    1        2.748  15.398  -6.831  0.00  0.00    +0.170 C 
ATOM     17  N   LIG    1        1.842  12.838  -4.370  0.00  0.00    -0.330 N 
ENDBRANCH   5  17
ENDBRANCH   1   8
BRANCH   3  18
ATOM     18  C   LIG    1       -2.006   6.183  -3.020  0.00  0.00    -0.050 C 
ATOM     19  C   LIG    1       -1.363   4.887  -3.517  0.00  0.00    +0.080 C 
ATOM     20  C   LIG    1       -2.732   5.315  -4.049  0.00  0.00    +0.050 C 
BRANCH  20  21
ATOM     21  C   LIG    1       -3.935   4.538  -3.579  0.00  0.00    -0.070 A 
ATOM     22  C   LIG    1       -5.170   4.761  -4.158  0.00  0.00    +0.060 A 
ATOM     23  C   LIG    1       -6.274   4.049  -3.728  0.00  0.00    -0.010 A 
ATOM     24  C   LIG    1       -6.143   3.113  -2.716  0.00  0.00    +0.100 A 
ATOM     25  C   LIG    1       -4.906   2.895  -2.133  0.00  0.00    -0.010 A 
ATOM     26  F   LIG    1       -7.221   2.417  -2.295  0.00  0.00    -0.140 F 
ATOM     27  C   LIG    1       -3.803   3.604  -2.568  0.00  0.00    +0.040 A 
ENDBRANCH  20  21
ENDBRANCH   3  18
TORSDOF 4
