REMARK  Name = ZINCvU00000006bd.0
REMARK                            x       y       z     vdW  Elec       q    Type
REMARK                         _______ _______ _______ _____ _____    ______ ____
ROOT
ATOM      1  C   LIG    1       -2.421   1.170   0.084  0.00  0.00    +0.350 C 
ATOM      2  C   LIG    1       -3.029   0.845   1.428  0.00  0.00    -0.220 C 
ATOM      3  C   LIG    1       -4.307   1.287   1.396  0.00  0.00    +0.110 C 
ATOM      4  C   LIG    1       -4.577   1.896   0.078  0.00  0.00    +0.530 C 
ATOM      5  O   LIG    1       -5.637   2.385  -0.260  0.00  0.00    -0.500 OA
ATOM      6  N   LIG    1       -3.477   1.830  -0.693  0.00  0.00    -0.590 N 
ENDROOT
BRANCH   1  11
ATOM      7  C   LIG    1        2.081   4.734   0.732  0.00  0.00    +0.090 C 
ATOM      8  C   LIG    1        0.907   3.804   0.566  0.00  0.00    -0.070 A 
ATOM      9  C   LIG    1        1.118   2.471   0.264  0.00  0.00    +0.010 A 
ATOM     10  C   LIG    1        0.041   1.618   0.111  0.00  0.00    +0.040 A 
ATOM     11  C   LIG    1       -1.247   2.099   0.256  0.00  0.00    -0.110 A 
ATOM     12  C   LIG    1       -1.458   3.430   0.563  0.00  0.00    +0.030 A 
ATOM     13  C   LIG    1       -0.381   4.283   0.715  0.00  0.00    +0.010 A 
ENDBRANCH   1  11
BRANCH   3  14
ATOM     14  O   LIG    1       -5.197   1.188   2.411  0.00  0.00    -0.430 OA
ATOM     15  H   LIG    1       -6.067   1.559   2.209  0.00  0.00    +0.420 HD
ENDBRANCH   3  14
BRANCH   2  16
ATOM     16  C   LIG    1       -2.361   0.179   2.552  0.00  0.00    +0.510 C 
ATOM     17  O   LIG    1       -2.173   0.783   3.593  0.00  0.00    -0.400 OA
BRANCH  16  18
ATOM     18  C   LIG    1       -1.920  -1.216   2.422  0.00  0.00    -0.050 A 
ATOM     19  C   LIG    1       -1.369  -1.960   3.420  0.00  0.00    +0.070 A 
ATOM     20  C   LIG    1       -1.092  -3.272   2.840  0.00  0.00    -0.150 A 
ATOM     21  C   LIG    1       -0.541  -4.458   3.332  0.00  0.00    +0.070 A 
ATOM     22  C   LIG    1       -0.409  -5.538   2.506  0.00  0.00    -0.010 A 
ATOM     23  C   LIG    1       -0.818  -5.465   1.181  0.00  0.00    +0.060 A 
ATOM     24  C   LIG    1       -1.364  -4.304   0.676  0.00  0.00    +0.030 A 
ATOM     25  C   LIG    1       -1.508  -3.192   1.496  0.00  0.00    +0.080 A 
ATOM     26  O   LIG    1       -1.993  -1.952   1.293  0.00  0.00    -0.180 OA
ENDBRANCH  16  18
ENDBRANCH   2  16
BRANCH   6  27
ATOM     27  C   LIG    1       -3.354   2.328  -2.065  0.00  0.00    +0.450 C 
BRANCH  27  28
ATOM     28  C   LIG    1       -3.736   1.237  -3.033  0.00  0.00    -0.050 A 
ATOM     29  C   LIG    1       -4.972   1.004  -3.508  0.00  0.00    -0.030 A 
ATOM     30  C   LIG    1       -4.874  -0.106  -4.378  0.00  0.00    -0.070 A 
ATOM     31  C   LIG    1       -3.583  -0.484  -4.383  0.00  0.00    +0.180 A 
ATOM     32  O   LIG    1       -2.897   0.336  -3.570  0.00  0.00    -0.170 OA
ENDBRANCH  27  28
ENDBRANCH   6  27
TORSDOF 6
