REMARK  Name = ZINCrg000000tXdq.0
REMARK                            x       y       z     vdW  Elec       q    Type
REMARK                         _______ _______ _______ _____ _____    ______ ____
ROOT
ATOM      1  C   LIG    1       -1.259  -0.781   0.010  0.00  0.00    +0.250 A 
ATOM      2  N   LIG    1       -1.369  -2.085   0.005  0.00  0.00    -0.390 NA
ATOM      3  O   LIG    1       -2.539  -2.405   0.015  0.00  0.00    +0.080 OA
ATOM      4  C   LIG    1       -3.312  -1.314   0.028  0.00  0.00    +0.200 A 
ATOM      5  N   LIG    1       -2.514  -0.275   0.031  0.00  0.00    -0.450 NA
ENDROOT
BRANCH   4   6
ATOM      6  C   LIG    1       -4.818  -1.285   0.043  0.00  0.00    +0.130 C 
ATOM      7  C   LIG    1       -5.357  -1.991  -1.205  0.00  0.00    +0.010 C 
ATOM      8  C   LIG    1       -6.887  -2.027  -1.141  0.00  0.00    +0.220 C 
ATOM      9  O   LIG    1       -7.297  -2.690   0.056  0.00  0.00    -0.370 OA
ATOM     10  C   LIG    1       -6.862  -2.049   1.257  0.00  0.00    +0.240 C 
ATOM     11  C   LIG    1       -5.332  -2.013   1.289  0.00  0.00    -0.090 C 
ATOM     12  C   LIG    1       -4.863  -1.273   2.542  0.00  0.00    +0.020 C 
ATOM     13  C   LIG    1       -5.377  -2.001   3.786  0.00  0.00    +0.010 C 
ATOM     14  C   LIG    1       -4.831  -3.431   3.802  0.00  0.00    +0.000 C 
ATOM     15  C   LIG    1       -5.302  -4.170   2.548  0.00  0.00    +0.010 C 
ATOM     16  C   LIG    1       -4.788  -3.443   1.304  0.00  0.00    +0.040 C 
ENDBRANCH   4   6
BRANCH   1  25
ATOM     17  O   LIG    1       -1.073   2.072   0.018  0.00  0.00    -0.470 OA
ATOM     18  C   LIG    1       -0.018   1.465   0.010  0.00  0.00    +0.560 A 
ATOM     19  N   LIG    1        1.158   2.128   0.002  0.00  0.00    -0.660 N 
ATOM     20  H   LIG    1        1.165   3.098   0.008  0.00  0.00    +0.440 HD
ATOM     21  C   LIG    1        2.319   1.450  -0.012  0.00  0.00    +0.700 A 
ATOM     22  N   LIG    1        2.356   0.108  -0.020  0.00  0.00    -0.520 N 
ATOM     23  C   LIG    1        1.212  -0.635  -0.013  0.00  0.00    +0.410 A 
ATOM     24  O   LIG    1        3.365   2.070  -0.019  0.00  0.00    -0.510 OA
ATOM     25  C   LIG    1        0.002  -0.004   0.002  0.00  0.00    -0.200 A 
BRANCH  22  26
ATOM     26  C   LIG    1        3.653  -0.574  -0.035  0.00  0.00    +0.350 C 
BRANCH  26  27
ATOM     27  C   LIG    1        4.091  -0.803  -1.483  0.00  0.00    +0.180 C 
BRANCH  27  28
ATOM     28  O   LIG    1        4.318   0.457  -2.118  0.00  0.00    -0.560 OA
ATOM     29  H   LIG    1        4.599   0.387  -3.041  0.00  0.00    +0.380 HD
ENDBRANCH  27  28
ENDBRANCH  26  27
ENDBRANCH  22  26
ENDBRANCH   1  25
TORSDOF 5
