REMARK  Name = ZINCpe000000Tjix.0
REMARK                            x       y       z     vdW  Elec       q    Type
REMARK                         _______ _______ _______ _____ _____    ______ ____
ROOT
ATOM      1  N   LIG    1        1.554   3.387   0.005  0.00  0.00    -0.410 N 
ATOM      2  C   LIG    1        2.900   3.444  -0.007  0.00  0.00    +0.500 A 
ATOM      3  N   LIG    1        3.393   2.231  -0.018  0.00  0.00    -0.500 NA
ATOM      4  C   LIG    1        2.399   1.339  -0.014  0.00  0.00    +0.320 A 
ATOM      5  N   LIG    1        2.351  -0.046  -0.021  0.00  0.00    -0.510 N 
ATOM      6  C   LIG    1        1.164  -0.680  -0.013  0.00  0.00    +0.720 A 
ATOM      7  O   LIG    1        1.141  -1.896  -0.019  0.00  0.00    -0.530 OA
ATOM      8  N   LIG    1        0.002  -0.004   0.002  0.00  0.00    -0.530 N 
ATOM      9  C   LIG    1       -0.016   1.345   0.009  0.00  0.00    +0.600 A 
ATOM     10  O   LIG    1       -1.075   1.947   0.018  0.00  0.00    -0.510 OA
ATOM     11  C   LIG    1        1.206   2.051   0.002  0.00  0.00    -0.150 A 
ENDROOT
BRANCH   1  12
ATOM     12  C   LIG    1        0.634   4.527   0.020  0.00  0.00    +0.300 C 
BRANCH  12  13
ATOM     13  C   LIG    1        0.229   4.837   1.462  0.00  0.00    +0.010 C 
BRANCH  13  15
ATOM     14  C   LIG    1       -1.137   6.338   2.920  0.00  0.00    +0.020 C 
ATOM     15  C   LIG    1       -0.732   6.028   1.478  0.00  0.00    +0.020 C 
ENDBRANCH  13  15
ENDBRANCH  12  13
ENDBRANCH   1  12
BRANCH   5  16
ATOM     16  C   LIG    1        3.594  -0.821  -0.036  0.00  0.00    +0.320 C 
BRANCH  16  17
ATOM     17  C   LIG    1        4.014  -1.083  -1.484  0.00  0.00    +0.000 C 
ATOM     18  C   LIG    1        5.312  -1.892  -1.500  0.00  0.00    +0.030 C 
ENDBRANCH  16  17
ENDBRANCH   5  16
BRANCH   8  19
ATOM     19  C   LIG    1       -1.263  -0.743   0.011  0.00  0.00    +0.370 C 
BRANCH  19  20
ATOM     20  C   LIG    1       -1.711  -0.989  -1.407  0.00  0.00    +0.510 C 
ATOM     21  N   LIG    1       -2.857  -1.655  -1.646  0.00  0.00    -0.700 N 
ATOM     22  H   LIG    1       -3.394  -1.977  -0.905  0.00  0.00    +0.400 HD
ATOM     23  O   LIG    1       -1.040  -0.586  -2.334  0.00  0.00    -0.520 OA
BRANCH  21  24
ATOM     24  C   LIG    1       -3.293  -1.894  -3.024  0.00  0.00    +0.220 C 
ATOM     25  C   LIG    1       -4.771  -1.670  -3.347  0.00  0.00    +0.010 C 
ATOM     26  C   LIG    1       -4.211  -3.092  -3.277  0.00  0.00    +0.020 C 
ENDBRANCH  21  24
ENDBRANCH  19  20
ENDBRANCH   8  19
TORSDOF 8
