REMARK  Name = ZINCqH0000050R3t.0
REMARK                            x       y       z     vdW  Elec       q    Type
REMARK                         _______ _______ _______ _____ _____    ______ ____
ROOT
ATOM      1  N   LIG    1       -0.076  -0.024   0.194  0.00  0.00    -0.470 N 
ATOM      2  C   LIG    1       -1.066  -0.820  -0.340  0.00  0.00    +0.110 A 
ATOM      3  C   LIG    1       -2.361  -0.565  -0.780  0.00  0.00    -0.010 A 
ATOM      4  C   LIG    1       -3.130  -1.595  -1.277  0.00  0.00    +0.040 A 
ATOM      5  C   LIG    1       -2.627  -2.887  -1.344  0.00  0.00    -0.010 A 
ATOM      6  C   LIG    1       -1.359  -3.161  -0.918  0.00  0.00    +0.060 A 
ATOM      7  C   LIG    1       -0.560  -2.132  -0.410  0.00  0.00    -0.100 A 
ATOM      8  C   LIG    1        0.802  -2.075   0.118  0.00  0.00    -0.020 A 
ATOM      9  C   LIG    1        1.040  -0.784   0.459  0.00  0.00    +0.120 A 
ENDROOT
BRANCH   9  10
ATOM     10  C   LIG    1        2.303  -0.272   1.031  0.00  0.00    -0.030 A 
ATOM     11  C   LIG    1        3.500  -0.955   0.811  0.00  0.00    +0.040 A 
ATOM     12  C   LIG    1        4.676  -0.469   1.343  0.00  0.00    +0.020 A 
ATOM     13  C   LIG    1        4.669   0.687   2.104  0.00  0.00    +0.020 A 
ATOM     14  C   LIG    1        3.485   1.366   2.331  0.00  0.00    +0.020 A 
ATOM     15  C   LIG    1        2.303   0.893   1.800  0.00  0.00    -0.020 A 
ENDBRANCH   9  10
BRANCH   1  16
ATOM     16  C   LIG    1       -0.193   1.416   0.437  0.00  0.00    +0.380 C 
BRANCH  16  17
ATOM     17  C   LIG    1       -0.835   1.648   1.780  0.00  0.00    +0.440 C 
ATOM     18  O   LIG    1       -1.163   0.708   2.464  0.00  0.00    -0.470 OA
BRANCH  17  19
ATOM     19  O   LIG    1       -1.044   2.900   2.216  0.00  0.00    -0.350 OA
BRANCH  19  20
ATOM     20  C   LIG    1       -1.668   3.049   3.519  0.00  0.00    +0.410 C 
BRANCH  20  25
ATOM     21  C   LIG    1       -0.836   7.731   5.173  0.00  0.00    +0.250 C 
ATOM     22  C   LIG    1       -1.465   6.514   4.546  0.00  0.00    +0.180 A 
ATOM     23  N   LIG    1       -2.634   6.459   3.972  0.00  0.00    -0.290 NA
ATOM     24  N   LIG    1       -2.846   5.263   3.549  0.00  0.00    -0.250 NA
ATOM     25  C   LIG    1       -1.821   4.514   3.839  0.00  0.00    +0.150 A 
ATOM     26  O   LIG    1       -0.926   5.285   4.479  0.00  0.00    -0.220 OA
ENDBRANCH  20  25
ENDBRANCH  19  20
ENDBRANCH  17  19
ENDBRANCH  16  17
ENDBRANCH   1  16
TORSDOF 6
