REMARK  Name = ZINCrH000004oB84.0
REMARK                            x       y       z     vdW  Elec       q    Type
REMARK                         _______ _______ _______ _____ _____    ______ ____
ROOT
ATOM      1  C   LIG    1        3.821   6.769   3.487  0.00  0.00    +0.070 C 
ATOM      2  C   LIG    1        3.845   5.941   2.201  0.00  0.00    +0.030 C 
ATOM      3  C   LIG    1        2.569   6.197   1.413  0.00  0.00    +0.030 C 
ATOM      4  C   LIG    1        2.557   5.658   0.002  0.00  0.00    +0.300 C 
ATOM      5  N   LIG    1        2.555   4.187   0.000  0.00  0.00    -0.570 N 
ATOM      6  C   LIG    1        3.788   3.521  -0.015  0.00  0.00    +0.150 A 
ATOM      7  C   LIG    1        4.212   2.887  -1.177  0.00  0.00    +0.010 A 
ATOM      8  C   LIG    1        5.450   2.272  -1.210  0.00  0.00    +0.040 A 
ATOM      9  C   LIG    1        6.274   2.284  -0.099  0.00  0.00    +0.030 A 
ATOM     10  C   LIG    1        5.852   2.897   1.069  0.00  0.00    +0.080 A 
ATOM     11  C   LIG    1        4.604   3.489   1.107  0.00  0.00    -0.100 A 
ATOM     12  C   LIG    1        1.397   3.497   0.007  0.00  0.00    +0.540 C 
ATOM     13  O   LIG    1        0.339   4.089   0.021  0.00  0.00    -0.520 OA
ATOM     14  S   LIG    1        3.979   4.179   2.620  0.00  0.00    -0.140 S 
ENDROOT
BRANCH  12  15
ATOM     15  C   LIG    1        1.418   1.990  -0.001  0.00  0.00    +0.050 C 
BRANCH  15  16
ATOM     16  C   LIG    1       -0.018   1.461   0.010  0.00  0.00    +0.330 C 
BRANCH  16  17
ATOM     17  N   LIG    1        0.002  -0.004   0.002  0.00  0.00    -0.550 N 
ATOM     18  C   LIG    1       -0.005  -0.684  -1.165  0.00  0.00    +0.490 C 
ATOM     19  C   LIG    1       -0.017  -2.191  -1.153  0.00  0.00    +0.300 C 
ATOM     20  O   LIG    1        0.671  -2.670   0.004  0.00  0.00    -0.300 OA
ATOM     21  C   LIG    1        0.366  -2.074   1.188  0.00  0.00    +0.080 A 
ATOM     22  C   LIG    1        0.394  -2.794   2.369  0.00  0.00    +0.030 A 
ATOM     23  C   LIG    1        0.078  -2.171   3.563  0.00  0.00    +0.030 A 
ATOM     24  C   LIG    1       -0.263  -0.831   3.581  0.00  0.00    +0.020 A 
ATOM     25  C   LIG    1       -0.291  -0.104   2.405  0.00  0.00    +0.010 A 
ATOM     26  O   LIG    1        0.002  -0.083  -2.219  0.00  0.00    -0.500 OA
ATOM     27  C   LIG    1        0.023  -0.722   1.206  0.00  0.00    +0.090 A 
ENDBRANCH  16  17
ENDBRANCH  15  16
ENDBRANCH  12  15
TORSDOF 3
