REMARK  Name = ZINCrH000004pVts.0
REMARK                            x       y       z     vdW  Elec       q    Type
REMARK                         _______ _______ _______ _____ _____    ______ ____
ROOT
ATOM      1  C   LIG    1       -0.013   1.086   0.008  0.00  0.00    +0.050 C 
ENDROOT
BRANCH   1   2
ATOM      2  C   LIG    1       -0.718   1.572   1.248  0.00  0.00    +0.540 C 
ATOM      3  N   LIG    1       -0.242   1.246   2.466  0.00  0.00    -0.610 N 
ATOM      4  C   LIG    1        0.951   0.420   2.729  0.00  0.00    +0.250 C 
ATOM      5  C   LIG    1        0.728  -0.162   4.145  0.00  0.00    +0.040 C 
ATOM      6  C   LIG    1        0.036   1.024   4.867  0.00  0.00    +0.040 C 
ATOM      7  C   LIG    1       -0.828   1.650   3.752  0.00  0.00    +0.220 C 
ATOM      8  O   LIG    1       -1.714   2.256   1.150  0.00  0.00    -0.530 OA
BRANCH   7   9
ATOM      9  C   LIG    1       -0.811   3.175   3.875  0.00  0.00    -0.010 C 
ATOM     10  C   LIG    1        0.632   3.677   3.798  0.00  0.00    +0.010 C 
ATOM     11  C   LIG    1        0.650   5.202   3.921  0.00  0.00    +0.000 C 
ATOM     12  C   LIG    1        0.037   5.612   5.262  0.00  0.00    +0.000 C 
ATOM     13  C   LIG    1       -1.406   5.111   5.339  0.00  0.00    +0.000 C 
ATOM     14  C   LIG    1       -1.423   3.586   5.216  0.00  0.00    +0.010 C 
ENDBRANCH   7   9
ENDBRANCH   1   2
BRANCH   1  15
ATOM     15  C   LIG    1       -0.753   1.593  -1.232  0.00  0.00    +0.320 C 
BRANCH  15  25
ATOM     16  C   LIG    1        3.015   1.904  -4.317  0.00  0.00    +0.100 C 
ATOM     17  C   LIG    1        1.581   1.374  -4.264  0.00  0.00    +0.180 C 
ATOM     18  O   LIG    1        1.601  -0.056  -4.279  0.00  0.00    -0.300 OA
ATOM     19  C   LIG    1        0.441  -0.687  -3.953  0.00  0.00    +0.080 A 
ATOM     20  C   LIG    1        0.108  -1.896  -4.537  0.00  0.00    +0.030 A 
ATOM     21  C   LIG    1       -1.077  -2.523  -4.195  0.00  0.00    +0.030 A 
ATOM     22  C   LIG    1       -1.929  -1.946  -3.272  0.00  0.00    +0.020 A 
ATOM     23  C   LIG    1       -1.602  -0.738  -2.683  0.00  0.00    +0.000 A 
ATOM     24  C   LIG    1       -0.418  -0.105  -3.021  0.00  0.00    +0.090 A 
ATOM     25  N   LIG    1       -0.067   1.120  -2.437  0.00  0.00    -0.550 N 
ATOM     26  C   LIG    1        0.909   1.861  -3.005  0.00  0.00    +0.490 C 
ATOM     27  O   LIG    1        1.247   2.912  -2.503  0.00  0.00    -0.500 OA
ENDBRANCH  15  25
ENDBRANCH   1  15
TORSDOF 4
