REMARK  Name = ZINCnE000001R2EA.1
REMARK                            x       y       z     vdW  Elec       q    Type
REMARK                         _______ _______ _______ _____ _____    ______ ____
ROOT
ATOM      1  C   LIG    1       -2.911   8.732   0.078  0.00  0.00    +0.460 C 
ATOM      2  N   LIG    1       -1.889   7.853   0.064  0.00  0.00    -0.660 NA
ATOM      3  O   LIG    1       -4.055   8.330   0.086  0.00  0.00    -0.590 OA
ENDROOT
BRANCH   2   4
ATOM      4  C   LIG    1       -2.146   6.488   0.059  0.00  0.00    +0.390 A 
ATOM      5  N   LIG    1       -1.244   5.557   0.050  0.00  0.00    -0.550 NA
ATOM      6  C   LIG    1       -1.678   4.298   0.042  0.00  0.00    +0.160 A 
ATOM      7  C   LIG    1       -3.017   4.152   0.054  0.00  0.00    -0.180 A 
ATOM      8  S   LIG    1       -3.747   5.755   0.070  0.00  0.00    -0.010 S 
BRANCH   6   9
ATOM      9  C   LIG    1       -0.756   3.143   0.026  0.00  0.00    +0.080 A 
ATOM     10  C   LIG    1        0.602   3.206   0.013  0.00  0.00    -0.040 A 
ATOM     11  C   LIG    1        1.071   1.876   0.002  0.00  0.00    -0.060 A 
ATOM     12  C   LIG    1       -0.013   1.076   0.008  0.00  0.00    +0.140 A 
ATOM     13  O   LIG    1       -1.115   1.845   0.017  0.00  0.00    -0.170 OA
ENDBRANCH   6   9
ENDBRANCH   2   4
BRANCH   1  14
ATOM     14  C   LIG    1       -2.632  10.213   0.084  0.00  0.00    +0.080 C 
ATOM     15  C   LIG    1       -1.818  10.573   1.328  0.00  0.00    +0.040 C 
BRANCH  14  23
ATOM     16  C   LIG    1       -4.866  10.027   2.324  0.00  0.00    +0.140 C 
ATOM     17  C   LIG    1       -4.922  10.888   1.088  0.00  0.00    +0.110 A 
ATOM     18  N   LIG    1       -5.901  11.689   0.755  0.00  0.00    -0.310 NA
ATOM     19  N   LIG    1       -5.569  12.306  -0.458  0.00  0.00    -0.390 N 
ATOM     20  C   LIG    1       -4.356  11.851  -0.836  0.00  0.00    +0.070 A 
ATOM     21  C   LIG    1       -3.605  12.252  -2.080  0.00  0.00    +0.140 C 
ATOM     22  C   LIG    1       -6.390  13.277  -1.185  0.00  0.00    +0.340 C 
ATOM     23  C   LIG    1       -3.935  10.969   0.100  0.00  0.00    -0.190 A 
ENDBRANCH  14  23
ENDBRANCH   1  14
TORSDOF 4
