REMARK  Name = ZINCpe000000XRN1.0
REMARK                            x       y       z     vdW  Elec       q    Type
REMARK                         _______ _______ _______ _____ _____    ______ ____
ROOT
ATOM      1  C   LIG    1       -0.241   0.809   2.400  0.00  0.00    +0.420 C 
ENDROOT
BRANCH   1   2
ATOM      2  N   LIG    1       -0.693   1.556   1.219  0.00  0.00    -0.540 NA
ATOM      3  C   LIG    1       -0.124   0.991  -0.009  0.00  0.00    +0.230 C 
ATOM      4  C   LIG    1       -0.883   1.520  -1.232  0.00  0.00    -0.310 C 
ATOM      5  S   LIG    1       -0.729   3.336  -1.256  0.00  0.00    +2.580 S 
ATOM      6  N   LIG    1       -1.116   3.732   0.325  0.00  0.00    -0.970 NA
ATOM      7  C   LIG    1       -2.120   4.746   0.570  0.00  0.00    +0.250 C 
ATOM      8  C   LIG    1       -2.422   4.981   2.040  0.00  0.00    +0.230 C 
ATOM      9  O   LIG    1       -2.135   3.810   2.807  0.00  0.00    -0.350 OA
ATOM     10  C   LIG    1       -0.743   3.474   2.759  0.00  0.00    +0.250 C 
ATOM     11  O   LIG    1       -1.760   3.922  -2.040  0.00  0.00    -0.940 OA
ATOM     12  O   LIG    1        0.628   3.729  -1.405  0.00  0.00    -0.950 OA
ATOM     13  C   LIG    1       -0.400   2.985   1.360  0.00  0.00    +0.350 C 
ENDBRANCH   1   2
BRANCH   1  17
ATOM     14  C   LIG    1        3.050   1.925   3.318  0.00  0.00    +0.220 A 
ATOM     15  N   LIG    1        3.296   0.901   2.542  0.00  0.00    -0.370 NA
ATOM     16  O   LIG    1        2.256   0.412   2.155  0.00  0.00    +0.090 OA
ATOM     17  C   LIG    1        1.218   1.095   2.648  0.00  0.00    +0.130 A 
ATOM     18  N   LIG    1        1.706   2.056   3.391  0.00  0.00    -0.460 NA
BRANCH  14  24
ATOM     19  C   LIG    1        7.820   3.052   4.272  0.00  0.00    +0.090 C 
ATOM     20  C   LIG    1        6.349   3.327   4.452  0.00  0.00    -0.090 A 
ATOM     21  C   LIG    1        5.937   4.380   5.247  0.00  0.00    +0.030 A 
ATOM     22  C   LIG    1        4.588   4.639   5.417  0.00  0.00    +0.010 A 
ATOM     23  C   LIG    1        3.647   3.845   4.793  0.00  0.00    +0.050 A 
ATOM     24  C   LIG    1        4.058   2.782   3.991  0.00  0.00    -0.030 A 
ATOM     25  C   LIG    1        5.417   2.523   3.828  0.00  0.00    +0.050 A 
ENDBRANCH  14  24
ENDBRANCH   1  17
TORSDOF 3
