REMARK  Name = ZINCpe000000XXJk.0
REMARK                            x       y       z     vdW  Elec       q    Type
REMARK                         _______ _______ _______ _____ _____    ______ ____
ROOT
ATOM      1  C   LIG    1        1.206  -0.615  -1.292  0.00  0.00    +0.170 C 
ATOM      2  C   LIG    1        0.588  -0.177   0.038  0.00  0.00    +0.040 C 
ATOM      3  C   LIG    1        0.406   1.344   0.035  0.00  0.00    +0.280 C 
ATOM      4  N   LIG    1        1.698   1.975  -0.266  0.00  0.00    -0.610 N 
ATOM      5  C   LIG    1        2.422   1.560  -1.476  0.00  0.00    +0.290 C 
ATOM      6  C   LIG    1        2.211   2.916   0.551  0.00  0.00    +0.530 C 
ATOM      7  O   LIG    1        3.229   3.498   0.243  0.00  0.00    -0.520 OA
ATOM      8  C   LIG    1        2.581   0.036  -1.457  0.00  0.00    +0.010 C 
ENDROOT
BRANCH   1   9
ATOM      9  O   LIG    1        1.347  -2.037  -1.306  0.00  0.00    -0.300 OA
BRANCH   9  16
ATOM     10  C   LIG    1        1.444  -4.890  -1.391  0.00  0.00    +0.110 C 
ATOM     11  C   LIG    1        1.427  -4.029  -2.628  0.00  0.00    -0.170 A 
ATOM     12  C   LIG    1        1.454  -4.605  -3.881  0.00  0.00    +0.290 A 
ATOM     13  N   LIG    1        1.445  -3.858  -4.969  0.00  0.00    -0.500 NA
ATOM     14  C   LIG    1        1.405  -2.540  -4.909  0.00  0.00    +0.290 A 
ATOM     15  C   LIG    1        1.371  -1.889  -3.693  0.00  0.00    -0.120 A 
ATOM     16  C   LIG    1        1.379  -2.641  -2.522  0.00  0.00    +0.170 A 
ENDBRANCH   9  16
ENDBRANCH   1   9
BRANCH   6  17
ATOM     17  CA  LIG    1        1.518   3.244   1.849  0.00  0.00    +0.260 C 
BRANCH  17  18
ATOM     18  N   LIG    1        2.357   4.153   2.634  0.00  0.00    -0.710 N 
ATOM     19  H   LIG    1        3.004   4.723   2.188  0.00  0.00    +0.410 HD
ATOM     20  C   LIG    1        2.232   4.197   3.975  0.00  0.00    +0.520 C 
ATOM     21  O   LIG    1        1.424   3.485   4.532  0.00  0.00    -0.540 OA
BRANCH  20  22
ATOM     22  C   LIG    1        3.095   5.132   4.782  0.00  0.00    -0.010 C 
ATOM     23  C   LIG    1        2.755   4.986   6.267  0.00  0.00    +0.050 C 
ATOM     24  C   LIG    1        2.839   6.574   4.340  0.00  0.00    +0.040 C 
ENDBRANCH  20  22
ENDBRANCH  17  18
BRANCH  17  25
ATOM     25  C   LIG    1        0.176   3.917   1.554  0.00  0.00    +0.200 C 
BRANCH  25  26
ATOM     26  O   LIG    1        0.386   5.051   0.711  0.00  0.00    -0.560 OA
ATOM     27  H   LIG    1       -0.424   5.527   0.482  0.00  0.00    +0.380 HD
ENDBRANCH  25  26
ENDBRANCH  17  25
ENDBRANCH   6  17
TORSDOF 7
