REMARK  Name = ZINCqH00000339cs.0
REMARK                            x       y       z     vdW  Elec       q    Type
REMARK                         _______ _______ _______ _____ _____    ______ ____
ROOT
ATOM      1  C   LIG    1       -3.072  -2.025   0.020  0.00  0.00    +0.610 C 
ATOM      2  N   LIG    1       -1.754  -1.739   0.009  0.00  0.00    -0.630 N 
ATOM      3  H   LIG    1       -1.103  -2.458  -0.001  0.00  0.00    +0.440 HD
ATOM      4  O   LIG    1       -3.888  -1.124   0.033  0.00  0.00    -0.530 OA
ENDROOT
BRANCH   2   5
ATOM      5  C   LIG    1       -1.337  -0.440   0.013  0.00  0.00    +0.470 A 
ATOM      6  C   LIG    1        0.002  -0.004   0.002  0.00  0.00    -0.280 A 
ATOM      7  C   LIG    1        1.231  -0.687  -0.013  0.00  0.00    +0.110 A 
ATOM      8  C   LIG    1        2.397   0.010  -0.019  0.00  0.00    -0.110 A 
ATOM      9  C   LIG    1        2.386   1.417  -0.012  0.00  0.00    +0.410 A 
ATOM     10  C   LIG    1        1.169   2.112   0.002  0.00  0.00    -0.230 A 
ATOM     11  O   LIG    1        3.443   2.037  -0.019  0.00  0.00    -0.550 OA
ATOM     12  C   LIG    1       -0.017   1.411   0.010  0.00  0.00    +0.260 A 
ATOM     13  N   LIG    1       -1.347   1.802   0.030  0.00  0.00    -0.500 N 
ATOM     14  H   LIG    1       -1.672   2.716   0.040  0.00  0.00    +0.450 HD
ATOM     15  N   LIG    1       -2.139   0.647   0.026  0.00  0.00    -0.440 N 
ATOM     16  H   LIG    1       -3.109   0.631   0.036  0.00  0.00    +0.460 HD
ENDBRANCH   2   5
BRANCH   1  18
ATOM     17  C   LIG    1       -4.830  -3.869   0.027  0.00  0.00    +0.190 A 
ATOM     18  C   LIG    1       -3.522  -3.427   0.017  0.00  0.00    -0.320 A 
ATOM     19  C   LIG    1       -2.695  -4.574  -0.004  0.00  0.00    +0.280 A 
ATOM     20  N   LIG    1       -3.466  -5.627   0.003  0.00  0.00    -0.280 NA
ATOM     21  N   LIG    1       -4.802  -5.211   0.018  0.00  0.00    -0.340 N 
BRANCH  21  22
ATOM     22  C   LIG    1       -5.972  -6.092   0.025  0.00  0.00    +0.260 C 
ATOM     23  C   LIG    1       -5.909  -7.045   1.236  0.00  0.00    +0.040 C 
ATOM     24  C   LIG    1       -6.477  -8.382   0.698  0.00  0.00    +0.030 C 
ATOM     25  C   LIG    1       -5.908  -8.440  -0.741  0.00  0.00    +0.020 C 
ATOM     26  C   LIG    1       -5.971  -6.979  -1.232  0.00  0.00    +0.030 C 
ENDBRANCH  21  22
BRANCH  17  27
ATOM     27  C   LIG    1       -6.064  -3.003   0.043  0.00  0.00    +0.120 C 
BRANCH  27  29
ATOM     28  C   LIG    1       -7.720  -1.840   1.509  0.00  0.00    +0.030 C 
ATOM     29  C   LIG    1       -6.468  -2.719   1.492  0.00  0.00    +0.020 C 
ENDBRANCH  27  29
ENDBRANCH  17  27
ENDBRANCH   1  18
TORSDOF 5
