REMARK  Name = ZINCvU0000000I1D.0
REMARK                            x       y       z     vdW  Elec       q    Type
REMARK                         _______ _______ _______ _____ _____    ______ ____
ROOT
ATOM      1  C   LIG    1       -0.013   1.086   0.008  0.00  0.00    +0.180 C 
ATOM      2  C   LIG    1       -0.718   1.572   1.248  0.00  0.00    +0.160 A 
ATOM      3  C   LIG    1       -0.836   2.911   1.442  0.00  0.00    -0.250 A 
ATOM      4  C   LIG    1       -1.514   3.378   2.667  0.00  0.00    +0.440 A 
ATOM      5  C   LIG    1       -1.734   2.356   3.708  0.00  0.00    -0.250 A 
ATOM      6  C   LIG    1       -2.110   2.707   5.003  0.00  0.00    +0.160 A 
ATOM      7  C   LIG    1       -2.289   1.733   5.944  0.00  0.00    -0.090 A 
ATOM      8  C   LIG    1       -2.096   0.394   5.612  0.00  0.00    +0.190 A 
ATOM      9  C   LIG    1       -1.726   0.030   4.329  0.00  0.00    -0.130 A 
ATOM     10  C   LIG    1       -1.521  -1.423   3.985  0.00  0.00    +0.120 C 
ATOM     11  C   LIG    1       -1.543   1.007   3.359  0.00  0.00    +0.180 A 
ATOM     12  O   LIG    1       -1.868   4.536   2.811  0.00  0.00    -0.450 OA
ATOM     13  O   LIG    1       -1.192   0.667   2.104  0.00  0.00    -0.210 OA
ENDROOT
BRANCH   3  14
ATOM     14  C   LIG    1       -0.302   3.876   0.451  0.00  0.00    -0.010 A 
ATOM     15  C   LIG    1       -0.970   4.081  -0.755  0.00  0.00    +0.040 A 
ATOM     16  C   LIG    1       -0.471   4.984  -1.672  0.00  0.00    +0.020 A 
ATOM     17  C   LIG    1        0.695   5.677  -1.402  0.00  0.00    +0.030 A 
ATOM     18  C   LIG    1        1.366   5.474  -0.210  0.00  0.00    +0.030 A 
ATOM     19  C   LIG    1        0.874   4.577   0.718  0.00  0.00    -0.020 A 
ATOM     20 CL   LIG    1        1.716   4.324   2.215  0.00  0.00    -0.060 Cl
ENDBRANCH   3  14
BRANCH   8  21
ATOM     21  O   LIG    1       -2.272  -0.565   6.558  0.00  0.00    -0.280 OA
BRANCH  21  22
ATOM     22  C   LIG    1       -2.654  -0.126   7.863  0.00  0.00    +0.240 C 
BRANCH  22  23
ATOM     23  C   LIG    1       -2.803  -1.319   8.771  0.00  0.00    +0.510 C 
ATOM     24  N   LIG    1       -3.159  -1.146  10.059  0.00  0.00    -0.600 N 
ATOM     25  C   LIG    1       -3.387   0.198  10.540  0.00  0.00    +0.270 C 
ATOM     26  C   LIG    1       -2.066   0.797  11.069  0.00  0.00    -0.000 C 
ATOM     27  C   LIG    1       -1.681   0.148  12.331  0.00  0.00    +0.000 C 
ATOM     28  C   LIG    1       -1.398  -1.346  12.209  0.00  0.00    +0.010 C 
ATOM     29  C   LIG    1       -2.693  -2.111  12.320  0.00  0.00    +0.020 C 
ATOM     30  C   LIG    1       -3.296  -2.336  10.921  0.00  0.00    +0.270 C 
ATOM     31  O   LIG    1       -2.601  -2.436   8.342  0.00  0.00    -0.510 OA
ENDBRANCH  22  23
ENDBRANCH  21  22
ENDBRANCH   8  21
TORSDOF 4
