REMARK  Name = ZINCrD00000hQ4qZ.0
REMARK                            x       y       z     vdW  Elec       q    Type
REMARK                         _______ _______ _______ _____ _____    ______ ____
ROOT
ATOM      1  C   LIG    1        0.592   5.591  -0.314  0.00  0.00    -0.360 A 
ATOM      2  N   LIG    1        1.803   5.533   0.172  0.00  0.00    -0.180 NA
ATOM      3  N   LIG    1        2.112   4.315   0.441  0.00  0.00    -0.270 NA
ATOM      4  C   LIG    1        1.106   3.525   0.139  0.00  0.00    +0.260 A 
ATOM      5  N   LIG    1        0.109   4.319  -0.358  0.00  0.00    -0.400 N 
ENDROOT
BRANCH   4   6
ATOM      6  C   LIG    1        1.063   2.055   0.299  0.00  0.00    -0.090 A 
ATOM      7  C   LIG    1        2.244   1.305   0.310  0.00  0.00    +0.130 A 
ATOM      8  C   LIG    1        2.149  -0.067   0.462  0.00  0.00    -0.020 A 
ATOM      9  C   LIG    1        0.901  -0.648   0.598  0.00  0.00    +0.290 A 
ATOM     10  N   LIG    1       -0.196   0.084   0.584  0.00  0.00    -0.480 NA
ATOM     11  C   LIG    1       -0.157   1.393   0.442  0.00  0.00    +0.290 A 
ENDBRANCH   4   6
BRANCH   1  12
ATOM     12  S   LIG    1       -0.258   7.047  -0.827  0.00  0.00    +2.520 S 
ATOM     13  O   LIG    1        0.337   8.087  -0.062  0.00  0.00    -0.890 OA
ATOM     14  O   LIG    1       -1.633   6.722  -0.677  0.00  0.00    -0.900 OA
BRANCH  12  15
ATOM     15  C   LIG    1        0.167   7.225  -2.582  0.00  0.00    -0.240 C 
BRANCH  15  19
ATOM     16  C   LIG    1       -1.747  10.702  -4.167  0.00  0.00    +0.160 A 
ATOM     17  C   LIG    1       -0.481  10.799  -3.611  0.00  0.00    -0.050 A 
ATOM     18  C   LIG    1        0.136   9.673  -3.099  0.00  0.00    +0.100 A 
ATOM     19  C   LIG    1       -0.509   8.451  -3.140  0.00  0.00    -0.130 A 
ATOM     20  C   LIG    1       -1.770   8.350  -3.699  0.00  0.00    +0.100 A 
ATOM     21  C   LIG    1       -2.393   9.474  -4.207  0.00  0.00    -0.070 A 
ATOM     22 CL   LIG    1       -3.979   9.348  -4.903  0.00  0.00    -0.040 Cl
BRANCH  16  24
ATOM     23  C   LIG    1       -1.631  13.038  -4.596  0.00  0.00    +0.250 C 
ATOM     24  O   LIG    1       -2.355  11.808  -4.671  0.00  0.00    -0.300 OA
ENDBRANCH  16  24
ENDBRANCH  15  19
ENDBRANCH  12  15
ENDBRANCH   1  12
BRANCH   5  25
ATOM     25  C   LIG    1       -1.208   3.890  -0.836  0.00  0.00    +0.180 C 
ATOM     26  C   LIG    1       -1.255   2.718  -1.818  0.00  0.00    +0.080 C 
ATOM     27  C   LIG    1       -1.541   4.140  -2.308  0.00  0.00    +0.060 C 
ENDBRANCH   5  25
TORSDOF 6
