REMARK  Name = ZINCrD000000fGUq.0
REMARK                            x       y       z     vdW  Elec       q    Type
REMARK                         _______ _______ _______ _____ _____    ______ ____
ROOT
ATOM      1  C   LIG    1       -1.274   6.644  -0.629  0.00  0.00    +0.500 C 
ATOM      2  N   LIG    1        0.047   6.412  -0.496  0.00  0.00    -0.610 N 
ATOM      3  C   LIG    1        0.727   6.860   0.735  0.00  0.00    +0.250 C 
ATOM      4  C   LIG    1        1.722   5.802   1.240  0.00  0.00    +0.040 C 
ATOM      5  C   LIG    1        1.124   4.422   1.075  0.00  0.00    +0.200 C 
ATOM      6  N   LIG    1        1.532   3.876  -0.219  0.00  0.00    -0.520 N 
ATOM      7  C   LIG    1        0.715   4.205  -1.325  0.00  0.00    +0.190 C 
ATOM      8  C   LIG    1        0.746   5.733  -1.569  0.00  0.00    +0.300 C 
ATOM      9  O   LIG    1       -1.837   6.368  -1.666  0.00  0.00    -0.510 OA
ENDROOT
BRANCH   6  10
ATOM     10  C   LIG    1        1.733   2.496  -0.138  0.00  0.00    +0.100 A 
ATOM     11  C   LIG    1        0.657   1.648   0.092  0.00  0.00    -0.020 A 
ATOM     12  C   LIG    1        0.859   0.284   0.171  0.00  0.00    +0.030 A 
ATOM     13  C   LIG    1        2.130  -0.239   0.020  0.00  0.00    +0.020 A 
ATOM     14  C   LIG    1        3.204   0.603  -0.210  0.00  0.00    -0.030 A 
ATOM     15 CL   LIG    1        4.799  -0.059  -0.399  0.00  0.00    -0.060 Cl
ATOM     16  C   LIG    1        3.009   1.968  -0.290  0.00  0.00    -0.050 A 
ATOM     17  C   LIG    1        4.179   2.884  -0.541  0.00  0.00    +0.110 C 
ENDBRANCH   6  10
BRANCH   1  18
ATOM     18  C   LIG    1       -2.051   7.247   0.513  0.00  0.00    +0.250 C 
BRANCH  18  21
ATOM     19  C   LIG    1       -5.536   7.404  -1.063  0.00  0.00    +0.080 C 
ATOM     20  C   LIG    1       -4.060   7.592  -0.821  0.00  0.00    +0.520 C 
ATOM     21  N   LIG    1       -3.486   7.065   0.278  0.00  0.00    -0.720 N 
ATOM     22  H   LIG    1       -4.021   6.565   0.913  0.00  0.00    +0.400 HD
ATOM     23  O   LIG    1       -3.390   8.217  -1.616  0.00  0.00    -0.520 OA
ENDBRANCH  18  21
BRANCH  18  24
ATOM     24  C   LIG    1       -1.736   8.741   0.612  0.00  0.00    +0.050 C 
BRANCH  24  25
ATOM     25  C   LIG    1       -2.416   9.325   1.851  0.00  0.00    -0.010 C 
ATOM     26  C   LIG    1       -3.858   9.797   1.599  0.00  0.00    +0.010 C 
ATOM     27  C   LIG    1       -3.538  11.003   2.498  0.00  0.00    +0.000 C 
ATOM     28  C   LIG    1       -2.063  10.800   2.111  0.00  0.00    +0.010 C 
ENDBRANCH  24  25
ENDBRANCH  18  24
ENDBRANCH   1  18
TORSDOF 5
