REMARK  Name = ZINCpk00000xMjv9.0
REMARK                            x       y       z     vdW  Elec       q    Type
REMARK                         _______ _______ _______ _____ _____    ______ ____
ROOT
ATOM      1  C   LIG    1       -6.695   0.972   1.476  0.00  0.00    +0.280 C 
ENDROOT
BRANCH   1   4
ATOM      2  O   LIG    1       -8.184   1.324   3.696  0.00  0.00    -0.500 OA
ATOM      3  C   LIG    1       -8.803   1.306   2.651  0.00  0.00    +0.570 C 
ATOM      4  N   LIG    1       -8.151   1.136   1.484  0.00  0.00    -0.700 N 
ATOM      5  H   LIG    1       -8.645   1.122   0.649  0.00  0.00    +0.420 HD
BRANCH   3   6
ATOM      6  C   LIG    1      -10.276   1.472   2.659  0.00  0.00    +0.260 A 
ATOM      7  N   LIG    1      -10.957   1.460   1.526  0.00  0.00    -0.530 NA
ATOM      8  C   LIG    1      -12.278   1.602   1.502  0.00  0.00    +0.520 A 
ATOM      9  N   LIG    1      -12.983   1.771   2.589  0.00  0.00    -0.300 NA
ATOM     10  N   LIG    1      -12.348   1.803   3.838  0.00  0.00    -0.260 N 
ATOM     11  C   LIG    1      -12.795   1.958   5.098  0.00  0.00    +0.240 A 
ATOM     12  C   LIG    1      -11.740   1.911   5.954  0.00  0.00    +0.000 A 
ATOM     13  C   LIG    1      -10.581   1.718   5.200  0.00  0.00    +0.080 A 
ATOM     14  C   LIG    1      -10.969   1.651   3.878  0.00  0.00    -0.080 A 
ENDBRANCH   3   6
ENDBRANCH   1   4
BRANCH   1  15
ATOM     15  C   LIG    1       -6.209   0.798   0.035  0.00  0.00    +0.130 C 
BRANCH  15  16
ATOM     16  C   LIG    1       -4.712   0.629   0.027  0.00  0.00    +0.090 A 
ATOM     17  C   LIG    1       -3.800   1.626   0.034  0.00  0.00    -0.090 A 
ATOM     18  C   LIG    1       -2.519   1.040   0.019  0.00  0.00    +0.110 A 
ATOM     19  N   LIG    1       -2.672  -0.267   0.014  0.00  0.00    -0.270 NA
ATOM     20  N   LIG    1       -4.045  -0.545   0.018  0.00  0.00    -0.460 N 
ATOM     21  H   LIG    1       -4.447  -1.428   0.016  0.00  0.00    +0.440 HD
BRANCH  18  22
ATOM     22  C   LIG    1       -1.226   1.768   0.017  0.00  0.00    +0.030 A 
ATOM     23  C   LIG    1       -0.013   1.076   0.008  0.00  0.00    -0.010 A 
ATOM     24  C   LIG    1        1.167   1.792   0.001  0.00  0.00    +0.260 A 
ATOM     25  N   LIG    1        1.158   3.111   0.008  0.00  0.00    -0.480 NA
ATOM     26  C   LIG    1        0.034   3.803   0.022  0.00  0.00    +0.260 A 
ATOM     27  C   LIG    1       -1.189   3.166   0.030  0.00  0.00    -0.010 A 
ENDBRANCH  18  22
ENDBRANCH  15  16
ENDBRANCH   1  15
TORSDOF 5
