REMARK  Name = ZINCpk00000y6vV1.0
REMARK                            x       y       z     vdW  Elec       q    Type
REMARK                         _______ _______ _______ _____ _____    ______ ____
ROOT
ATOM      1  C   LIG    1        5.209  -0.303   2.544  0.00  0.00    +0.340 C 
ENDROOT
BRANCH   1   2
ATOM      2  N   LIG    1        4.260   0.366   1.651  0.00  0.00    -0.740 N 
ATOM      3  H   LIG    1        4.323   1.324   1.506  0.00  0.00    +0.400 HD
ATOM      4  C   LIG    1        3.301  -0.347   1.029  0.00  0.00    +0.710 C 
ATOM      5  N   LIG    1        2.429   0.269   0.207  0.00  0.00    -0.640 N 
ATOM      6  C   LIG    1        1.373  -0.488  -0.483  0.00  0.00    +0.340 C 
ATOM      7  C   LIG    1        0.002  -0.004   0.002  0.00  0.00    +0.330 C 
ATOM      8  N   LIG    1       -0.018   1.462   0.010  0.00  0.00    -0.280 N 
ATOM      9  N   LIG    1       -1.046   2.232   0.029  0.00  0.00    -0.070 NA
ATOM     10  N   LIG    1       -0.677   3.466   0.040  0.00  0.00    -0.270 NA
ATOM     11  C   LIG    1        0.663   3.520   0.027  0.00  0.00    +0.160 A 
ATOM     12  C   LIG    1        1.089   2.246   0.004  0.00  0.00    -0.040 A 
ATOM     13  C   LIG    1        2.502   1.723  -0.029  0.00  0.00    +0.390 C 
ATOM     14  O   LIG    1        3.223  -1.547   1.210  0.00  0.00    -0.580 OA
ENDBRANCH   1   2
BRANCH   1  19
ATOM     15  C   LIG    1        6.764   2.300   4.806  0.00  0.00    +0.010 A 
ATOM     16  C   LIG    1        7.950   2.574   4.130  0.00  0.00    +0.010 A 
ATOM     17  C   LIG    1        8.238   1.917   2.951  0.00  0.00    +0.020 A 
ATOM     18  C   LIG    1        7.353   0.984   2.442  0.00  0.00    +0.010 A 
ATOM     19  C   LIG    1        6.171   0.711   3.107  0.00  0.00    -0.100 A 
ATOM     20  C   LIG    1        5.873   1.362   4.287  0.00  0.00    +0.020 A 
BRANCH  15  24
ATOM     21  C   LIG    1        7.066   5.319   8.778  0.00  0.00    +0.360 C 
ATOM     22  N   LIG    1        6.585   4.327   7.813  0.00  0.00    -0.370 N 
ATOM     23  C   LIG    1        7.227   3.938   6.693  0.00  0.00    +0.250 A 
ATOM     24  C   LIG    1        6.449   3.003   6.075  0.00  0.00    -0.210 A 
ATOM     25  C   LIG    1        5.291   2.830   6.857  0.00  0.00    +0.260 A 
ATOM     26  N   LIG    1        5.381   3.618   7.896  0.00  0.00    -0.290 NA
ENDBRANCH  15  24
ENDBRANCH   1  19
TORSDOF 3
