REMARK  Name = ZINCrg00001JduYd.0
REMARK                            x       y       z     vdW  Elec       q    Type
REMARK                         _______ _______ _______ _____ _____    ______ ____
ROOT
ATOM      1  N   LIG    1        1.228  -2.081  -0.020  0.00  0.00    -0.680 N 
ATOM      2  H   LIG    1        2.071  -2.555  -0.097  0.00  0.00    +0.410 HD
ATOM      3  C   LIG    1        0.075  -2.770   0.089  0.00  0.00    +0.730 C 
ATOM      4  N   LIG    1        0.099  -4.114   0.184  0.00  0.00    -0.630 N 
ATOM      5  C   LIG    1        1.311  -4.955   0.174  0.00  0.00    +0.260 C 
ATOM      6  C   LIG    1        0.895  -6.262   0.904  0.00  0.00    +0.100 C 
ATOM      7  C   LIG    1       -0.561  -6.422   0.432  0.00  0.00    +0.100 C 
ATOM      8  N   LIG    1       -0.643  -7.151  -0.830  0.00  0.00    -0.710 N 
ATOM      9  H   LIG    1       -0.232  -6.906  -1.674  0.00  0.00    +0.440 HD
ATOM     10  C   LIG    1       -1.407  -8.236  -0.584  0.00  0.00    +0.700 C 
ATOM     11  N   LIG    1       -1.825  -8.288   0.688  0.00  0.00    -0.580 N 
ATOM     12  C   LIG    1       -2.668  -9.354   1.236  0.00  0.00    +0.340 C 
ATOM     13  O   LIG    1       -1.685  -9.072  -1.422  0.00  0.00    -0.530 OA
ATOM     14  C   LIG    1       -1.371  -7.235   1.403  0.00  0.00    +0.540 C 
ATOM     15  O   LIG    1       -1.574  -6.997   2.575  0.00  0.00    -0.450 OA
ATOM     16  C   LIG    1       -1.080  -4.988   0.308  0.00  0.00    +0.330 C 
ATOM     17  O   LIG    1       -0.987  -2.178   0.103  0.00  0.00    -0.550 OA
ENDROOT
BRANCH   1  21
ATOM     18  C   LIG    1       -1.010   2.108  -1.268  0.00  0.00    +0.120 C 
ATOM     19  C   LIG    1        0.136   1.376  -0.618  0.00  0.00    -0.010 A 
ATOM     20  C   LIG    1        0.155  -0.004  -0.615  0.00  0.00    +0.040 A 
ATOM     21  C   LIG    1        1.210  -0.685  -0.023  0.00  0.00    +0.220 A 
ATOM     22  C   LIG    1        2.258   0.033   0.572  0.00  0.00    -0.060 A 
ATOM     23  C   LIG    1        2.230   1.430   0.564  0.00  0.00    +0.050 A 
ATOM     24  C   LIG    1        1.171   2.095  -0.030  0.00  0.00    +0.070 A 
BRANCH  24  25
ATOM     25  N   LIG    1        1.143   3.494  -0.039  0.00  0.00    -0.500 N 
ATOM     26  C   LIG    1        2.262   4.038  -0.819  0.00  0.00    +0.200 C 
ATOM     27  C   LIG    1        1.145   4.029   1.329  0.00  0.00    +0.200 C 
ENDBRANCH  24  25
BRANCH  22  28
ATOM     28  C   LIG    1        3.350  -0.662   1.184  0.00  0.00    +0.250 C 
ATOM     29  N   LIG    1        4.216  -1.213   1.669  0.00  0.00    -0.410 NA
ENDBRANCH  22  28
ENDBRANCH   1  21
TORSDOF 3
