REMARK  Name = ZINCtV000002EQPn.0
REMARK                            x       y       z     vdW  Elec       q    Type
REMARK                         _______ _______ _______ _____ _____    ______ ____
ROOT
ATOM      1  C   LIG    1       -0.758   1.595  -1.228  0.00  0.00    +0.030 C 
ATOM      2  C   LIG    1       -0.013   1.086   0.008  0.00  0.00    -0.010 C 
ATOM      3  C   LIG    1        1.423   1.619  -0.003  0.00  0.00    +0.020 C 
ATOM      4  C   LIG    1        2.231   0.904   1.082  0.00  0.00    +0.110 C 
ATOM      5  C   LIG    1        1.469   0.984   2.399  0.00  0.00    -0.030 A 
ATOM      6  C   LIG    1        0.166   1.284   2.473  0.00  0.00    -0.200 A 
ATOM      7  S   LIG    1       -0.394   1.290   4.140  0.00  0.00    +0.180 S 
ATOM      8  C   LIG    1        1.187   0.872   4.746  0.00  0.00    +0.050 A 
ATOM      9  N   LIG    1        1.606   0.673   6.045  0.00  0.00    -0.580 N 
ATOM     10  H   LIG    1        0.991   0.762   6.790  0.00  0.00    +0.430 HD
ATOM     11  C   LIG    1        2.903   0.352   6.241  0.00  0.00    +0.460 A 
ATOM     12  N   LIG    1        3.780   0.218   5.290  0.00  0.00    -0.560 NA
ATOM     13  C   LIG    1        3.485   0.388   3.982  0.00  0.00    +0.560 A 
ATOM     14  O   LIG    1        4.321   0.258   3.103  0.00  0.00    -0.470 OA
ATOM     15  C   LIG    1        2.079   0.742   3.687  0.00  0.00    -0.230 A 
ATOM     16  C   LIG    1       -0.715   1.582   1.274  0.00  0.00    +0.120 C 
ENDROOT
BRANCH  11  17
ATOM     17  C   LIG    1        3.366   0.134   7.659  0.00  0.00    +0.070 C 
ATOM     18  C   LIG    1        3.968   1.430   8.204  0.00  0.00    +0.090 C 
BRANCH  17  19
ATOM     19  S   LIG    1        4.621  -1.176   7.690  0.00  0.00    -0.140 S 
BRANCH  19  20
ATOM     20  C   LIG    1        4.936  -1.397   9.463  0.00  0.00    +0.120 C 
BRANCH  20  21
ATOM     21  C   LIG    1        5.975  -2.471   9.658  0.00  0.00    -0.060 A 
ATOM     22  C   LIG    1        5.597  -3.771   9.802  0.00  0.00    +0.040 A 
ATOM     23  C   LIG    1        6.543  -4.778   9.978  0.00  0.00    +0.010 A 
ATOM     24  C   LIG    1        7.873  -4.490  10.023  0.00  0.00    +0.030 A 
ATOM     25  C   LIG    1        8.301  -3.159   9.884  0.00  0.00    -0.050 A 
ATOM     26  C   LIG    1        9.665  -2.824   9.924  0.00  0.00    +0.020 A 
ATOM     27  C   LIG    1       10.043  -1.523   9.786  0.00  0.00    +0.000 A 
ATOM     28  C   LIG    1        9.097  -0.516   9.605  0.00  0.00    +0.010 A 
ATOM     29  C   LIG    1        7.767  -0.804   9.560  0.00  0.00    +0.030 A 
ATOM     30  C   LIG    1        7.339  -2.135   9.699  0.00  0.00    -0.030 A 
ENDBRANCH  20  21
ENDBRANCH  19  20
ENDBRANCH  17  19
ENDBRANCH  11  17
TORSDOF 4
