REMARK  Name = ZINCbu0000000GwX.0
REMARK                            x       y       z     vdW  Elec       q    Type
REMARK                         _______ _______ _______ _____ _____    ______ ____
ROOT
ATOM      1  C   LIG    1        0.517   3.521   3.830  0.00  0.00    -0.010 C 
ATOM      2  C   LIG    1       -0.914   2.992   3.716  0.00  0.00    +0.010 C 
ATOM      3  C   LIG    1       -1.543   3.501   2.417  0.00  0.00    +0.050 C 
ATOM      4  C   LIG    1       -0.720   3.008   1.225  0.00  0.00    -0.020 C 
ATOM      5  C   LIG    1        0.711   3.537   1.339  0.00  0.00    +0.020 C 
ATOM      6  C   LIG    1        1.340   3.029   2.638  0.00  0.00    +0.010 C 
ENDROOT
BRANCH   1   8
ATOM      7  C   LIG    1        2.577   3.541   5.244  0.00  0.00    +0.020 C 
ATOM      8  C   LIG    1        1.146   3.012   5.129  0.00  0.00    -0.020 C 
ATOM      9  C   LIG    1        0.323   3.505   6.321  0.00  0.00    +0.020 C 
ENDBRANCH   1   8
BRANCH   4  10
ATOM     10  C   LIG    1       -0.699   1.479   1.216  0.00  0.00    +0.270 C 
BRANCH  10  11
ATOM     11  N   LIG    1       -0.012   1.005   0.008  0.00  0.00    -0.640 N 
ATOM     12  H   LIG    1       -0.500   1.339  -0.810  0.00  0.00    +0.430 HD
ATOM     13  H   LIG    1        0.935   1.354   0.000  0.00  0.00    +0.430 HD
ATOM     14  H   LIG    1        0.002  -0.004   0.002  0.00  0.00    +0.440 HD
ENDBRANCH  10  11
ENDBRANCH   4  10
TORSDOF 3
