REMARK  Name = ZINCqH0000033kIb.0
REMARK                            x       y       z     vdW  Elec       q    Type
REMARK                         _______ _______ _______ _____ _____    ______ ____
ROOT
ATOM      1  C   LIG    1        0.002  -0.004   0.002  0.00  0.00    +0.060 A 
ATOM      2  N   LIG    1        0.095  -0.764  -1.059  0.00  0.00    -0.280 NA
ATOM      3  N   LIG    1        0.081  -2.101  -0.642  0.00  0.00    -0.370 N 
ATOM      4  C   LIG    1       -0.024  -2.116   0.704  0.00  0.00    +0.220 A 
ATOM      5  C   LIG    1       -0.069  -0.831   1.127  0.00  0.00    -0.100 A 
ENDROOT
BRANCH   3   6
ATOM      6  C   LIG    1        0.164  -3.277  -1.512  0.00  0.00    +0.270 C 
ATOM      7  C   LIG    1       -0.208  -4.596  -0.810  0.00  0.00    +0.300 C 
ATOM      8  N   LIG    1        0.946  -5.182  -1.524  0.00  0.00    -0.630 N 
ATOM      9  C   LIG    1        1.279  -6.427  -1.918  0.00  0.00    +0.680 C 
ATOM     10  O   LIG    1        2.324  -6.619  -2.508  0.00  0.00    -0.560 OA
ATOM     11  C   LIG    1        1.585  -3.856  -1.636  0.00  0.00    +0.330 C 
BRANCH   9  12
ATOM     12  O   LIG    1        0.454  -7.459  -1.656  0.00  0.00    -0.360 OA
BRANCH  12  13
ATOM     13  C   LIG    1        0.877  -8.772  -2.109  0.00  0.00    +0.140 C 
ATOM     14  C   LIG    1        1.048  -8.757  -3.630  0.00  0.00    +0.040 C 
ATOM     15  C   LIG    1       -0.180  -9.809  -1.725  0.00  0.00    +0.080 C 
ATOM     16  C   LIG    1        2.210  -9.134  -1.450  0.00  0.00    +0.040 C 
ENDBRANCH  12  13
ENDBRANCH   9  12
ENDBRANCH   3   6
BRANCH   1  17
ATOM     17  C   LIG    1       -0.018   1.503   0.010  0.00  0.00    +0.390 C 
BRANCH  17  18
ATOM     18  N   LIG    1        1.356   2.010  -0.000  0.00  0.00    -0.620 N 
BRANCH  18  19
ATOM     19  C   LIG    1        2.023   2.245   1.204  0.00  0.00    +0.220 A 
ATOM     20  C   LIG    1        1.382   2.004   2.413  0.00  0.00    -0.070 A 
ATOM     21  C   LIG    1        2.046   2.233   3.603  0.00  0.00    +0.050 A 
ATOM     22  C   LIG    1        3.343   2.712   3.591  0.00  0.00    -0.060 A 
ATOM     23  C   LIG    1        3.982   2.958   2.389  0.00  0.00    +0.050 A 
ATOM     24  C   LIG    1        3.326   2.726   1.196  0.00  0.00    -0.080 A 
ENDBRANCH  18  19
BRANCH  18  26
ATOM     25  C   LIG    1        1.767   3.714  -1.705  0.00  0.00    +0.010 C 
ATOM     26  C   LIG    1        2.031   2.270  -1.274  0.00  0.00    +0.270 C 
ENDBRANCH  18  26
ENDBRANCH  17  18
ENDBRANCH   1  17
TORSDOF 7
