REMARK  Name = ZINCkj000005h93B.1
REMARK                            x       y       z     vdW  Elec       q    Type
REMARK                         _______ _______ _______ _____ _____    ______ ____
ROOT
ATOM      1  N   LIG    1        1.248  -2.344   0.992  0.00  0.00    -0.770 N 
ATOM      2  H   LIG    1        1.122  -2.647   0.079  0.00  0.00    +0.390 HD
ATOM      3  C   LIG    1        1.787  -3.171   1.909  0.00  0.00    +0.710 C 
ATOM      4  N   LIG    1        2.152  -4.420   1.558  0.00  0.00    -0.730 N 
ATOM      5  H   LIG    1        2.026  -4.724   0.646  0.00  0.00    +0.400 HD
ATOM      6  O   LIG    1        1.945  -2.790   3.053  0.00  0.00    -0.570 OA
ENDROOT
BRANCH   1   7
ATOM      7  C   LIG    1        0.851  -0.986   1.373  0.00  0.00    +0.340 C 
BRANCH   7   8
ATOM      8  C   LIG    1        0.199  -0.290   0.177  0.00  0.00    +0.290 C 
BRANCH   8   9
ATOM      9  C   LIG    1       -0.127   1.136   0.541  0.00  0.00    -0.100 A 
ATOM     10  C   LIG    1       -1.362   1.649   0.682  0.00  0.00    +0.040 A 
ATOM     11  C   LIG    1       -1.202   3.011   1.028  0.00  0.00    -0.040 A 
ATOM     12  C   LIG    1        0.121   3.250   1.070  0.00  0.00    +0.230 A 
ATOM     13  O   LIG    1        0.767   2.110   0.774  0.00  0.00    -0.180 OA
ENDBRANCH   8   9
BRANCH   8  15
ATOM     14  C   LIG    1        0.531   0.434  -2.086  0.00  0.00    +0.330 C 
ATOM     15  N   LIG    1        1.124  -0.305  -0.963  0.00  0.00    -0.390 N 
ATOM     16  C   LIG    1        2.391   0.329  -0.574  0.00  0.00    +0.330 C 
ATOM     17  H   LIG    1        1.298  -1.259  -1.243  0.00  0.00    +0.420 HD
ENDBRANCH   8  15
ENDBRANCH   7   8
ENDBRANCH   1   7
BRANCH   4  18
ATOM     18  C   LIG    1        2.738  -5.319   2.555  0.00  0.00    +0.300 C 
BRANCH  18  19
ATOM     19  C   LIG    1        3.059  -6.665   1.902  0.00  0.00    +0.140 C 
ATOM     20  C   LIG    1        3.670  -7.621   2.945  0.00  0.00    +0.010 C 
ATOM     21  C   LIG    1        2.712  -8.837   2.952  0.00  0.00    +0.010 C 
ATOM     22  C   LIG    1        2.006  -8.701   1.579  0.00  0.00    +0.210 C 
ATOM     23  O   LIG    1        1.851  -7.273   1.416  0.00  0.00    -0.380 OA
ENDBRANCH  18  19
ENDBRANCH   4  18
TORSDOF 6
