REMARK  Name = ZINCrH000004l2CH.0
REMARK                            x       y       z     vdW  Elec       q    Type
REMARK                         _______ _______ _______ _____ _____    ______ ____
ROOT
ATOM      1  C   LIG    1        1.753   2.928  -1.530  0.00  0.00    -0.110 A 
ATOM      2  C   LIG    1        2.730   3.736  -0.948  0.00  0.00    +0.060 A 
ATOM      3  C   LIG    1        3.578   3.215   0.007  0.00  0.00    +0.020 A 
ATOM      4  C   LIG    1        3.462   1.892   0.388  0.00  0.00    +0.060 A 
ATOM      5  C   LIG    1        2.491   1.077  -0.188  0.00  0.00    +0.140 A 
ATOM      6  N   LIG    1        2.400  -0.263   0.215  0.00  0.00    -0.540 N 
ATOM      7  C   LIG    1        3.388  -0.830   0.935  0.00  0.00    +0.570 C 
ATOM      8  O   LIG    1        4.420  -0.220   1.139  0.00  0.00    -0.500 OA
ATOM      9  C   LIG    1        1.209  -1.037  -0.159  0.00  0.00    +0.280 C 
ATOM     10  C   LIG    1        0.905  -0.745  -1.634  0.00  0.00    +0.020 C 
ATOM     11  C   LIG    1        0.568   0.738  -1.784  0.00  0.00    +0.110 C 
ATOM     12  C   LIG    1        1.633   1.589  -1.144  0.00  0.00    -0.040 A 
ENDROOT
BRANCH   7  13
ATOM     13  C   LIG    1        3.218  -2.193   1.476  0.00  0.00    -0.090 A 
ATOM     14  C   LIG    1        1.939  -2.681   1.752  0.00  0.00    +0.040 A 
ATOM     15  C   LIG    1        1.782  -3.955   2.258  0.00  0.00    -0.030 A 
ATOM     16  C   LIG    1        2.894  -4.754   2.493  0.00  0.00    +0.100 A 
ATOM     17  C   LIG    1        4.173  -4.271   2.220  0.00  0.00    +0.120 A 
ATOM     18 CL   LIG    1        0.192  -4.561   2.601  0.00  0.00    -0.030 Cl
ATOM     19  C   LIG    1        4.336  -2.999   1.707  0.00  0.00    +0.020 A 
BRANCH  17  20
ATOM     20  O   LIG    1        5.259  -5.055   2.452  0.00  0.00    -0.300 OA
ATOM     21  C   LIG    1        6.539  -4.497   2.149  0.00  0.00    +0.250 C 
ENDBRANCH  17  20
BRANCH  16  22
ATOM     22  O   LIG    1        2.735  -6.007   2.991  0.00  0.00    -0.310 OA
ATOM     23  C   LIG    1        2.579  -7.066   2.045  0.00  0.00    +0.230 C 
ENDBRANCH  16  22
ENDBRANCH   7  13
BRANCH   1  24
ATOM     24  C   LIG    1        0.845   3.486  -2.553  0.00  0.00    +0.510 C 
ATOM     25  O   LIG    1       -0.075   2.817  -2.978  0.00  0.00    -0.500 OA
BRANCH  24  27
ATOM     26  C   LIG    1        0.107   5.220  -4.018  0.00  0.00    +0.260 C 
ATOM     27  O   LIG    1        1.038   4.737  -3.014  0.00  0.00    -0.350 OA
ENDBRANCH  24  27
ENDBRANCH   1  24
TORSDOF 5
