REMARK  Name = ZINCpk00000xYV8y.0
REMARK                            x       y       z     vdW  Elec       q    Type
REMARK                         _______ _______ _______ _____ _____    ______ ____
ROOT
ATOM      1  N   LIG    1       -0.137   1.598   0.312  0.00  0.00    -0.530 NA
ATOM      2  C   LIG    1        1.183   2.235   0.408  0.00  0.00    +0.180 C 
ATOM      3  C   LIG    1        1.817   1.890   1.760  0.00  0.00    +0.310 C 
ATOM      4  N   LIG    1        1.819   0.428   1.915  0.00  0.00    -0.590 N 
ATOM      5  C   LIG    1        0.558  -0.297   1.699  0.00  0.00    +0.310 C 
ATOM      6  C   LIG    1       -0.025   0.133   0.349  0.00  0.00    +0.170 C 
ENDROOT
BRANCH   4   7
ATOM      7  C   LIG    1        2.984  -0.252   2.257  0.00  0.00    +0.420 A 
ATOM      8  N   LIG    1        2.985  -1.564   2.284  0.00  0.00    -0.350 NA
ATOM      9  N   LIG    1        4.143  -2.265   2.625  0.00  0.00    -0.270 N 
ATOM     10  C   LIG    1        4.444  -3.576   2.736  0.00  0.00    +0.410 A 
ATOM     11  N   LIG    1        5.701  -3.667   3.093  0.00  0.00    -0.270 NA
ATOM     12  N   LIG    1        6.214  -2.493   3.214  0.00  0.00    -0.250 NA
ATOM     13  C   LIG    1        5.293  -1.584   2.936  0.00  0.00    +0.110 A 
ATOM     14  C   LIG    1        5.291  -0.176   2.907  0.00  0.00    +0.190 A 
ATOM     15  C   LIG    1        4.149   0.477   2.566  0.00  0.00    -0.030 A 
ENDBRANCH   4   7
BRANCH   1  16
ATOM     16  C   LIG    1       -0.849   2.041  -0.893  0.00  0.00    +0.240 C 
BRANCH  16  23
ATOM     17  C   LIG    1       -3.107   2.611   0.060  0.00  0.00    +0.030 A 
ATOM     18  C   LIG    1       -4.472   2.356   0.199  0.00  0.00    +0.040 A 
ATOM     19  C   LIG    1       -5.037   1.270  -0.441  0.00  0.00    +0.110 A 
ATOM     20  C   LIG    1       -4.252   0.438  -1.223  0.00  0.00    +0.030 A 
ATOM     21  C   LIG    1       -2.900   0.690  -1.368  0.00  0.00    +0.060 A 
ATOM     22  F   LIG    1       -6.358   1.018  -0.304  0.00  0.00    -0.130 F 
ATOM     23  C   LIG    1       -2.323   1.771  -0.734  0.00  0.00    -0.050 A 
BRANCH  17  25
ATOM     24  N   LIG    1       -2.042   4.620   1.253  0.00  0.00    -0.400 NA
ATOM     25  C   LIG    1       -2.513   3.731   0.726  0.00  0.00    +0.260 C 
ENDBRANCH  17  25
ENDBRANCH  16  23
ENDBRANCH   1  16
TORSDOF 4
