REMARK  Name = ZINCvU0000000J1A.0
REMARK                            x       y       z     vdW  Elec       q    Type
REMARK                         _______ _______ _______ _____ _____    ______ ____
ROOT
ATOM      1  C   LIG    1        2.212   3.831  -2.294  0.00  0.00    +0.120 C 
ATOM      2  C   LIG    1        1.608   4.299  -0.996  0.00  0.00    +0.020 A 
ATOM      3  C   LIG    1        1.421   5.582  -0.631  0.00  0.00    -0.020 A 
ATOM      4  C   LIG    1        0.833   5.575   0.659  0.00  0.00    -0.100 A 
ATOM      5  C   LIG    1        0.682   4.274   1.025  0.00  0.00    +0.070 A 
ATOM      6  C   LIG    1        0.096   3.781   2.323  0.00  0.00    +0.140 C 
ATOM      7  N   LIG    1        1.154   3.492   0.009  0.00  0.00    -0.400 N 
ENDROOT
BRANCH   7   8
ATOM      8  C   LIG    1        1.175   2.090   0.002  0.00  0.00    +0.130 A 
ATOM      9  C   LIG    1       -0.017   1.378   0.010  0.00  0.00    +0.050 A 
ATOM     10  C   LIG    1        0.002  -0.004   0.002  0.00  0.00    +0.060 A 
ATOM     11  C   LIG    1        1.210  -0.683  -0.013  0.00  0.00    +0.040 A 
ATOM     12  O   LIG    1        1.496  -2.018  -0.022  0.00  0.00    -0.300 OA
ATOM     13  C   LIG    1        2.876  -2.118   0.377  0.00  0.00    +0.440 C 
ATOM     14  O   LIG    1        3.443  -0.860  -0.035  0.00  0.00    -0.300 OA
ATOM     15  C   LIG    1        2.407   0.029  -0.020  0.00  0.00    +0.050 A 
ATOM     16  C   LIG    1        2.387   1.413  -0.013  0.00  0.00    +0.050 A 
ENDBRANCH   7   8
BRANCH   4  17
ATOM     17  C   LIG    1        0.453   6.766   1.461  0.00  0.00    +0.180 A 
ATOM     18  C   LIG    1        0.635   8.027   1.028  0.00  0.00    -0.130 A 
ATOM     19  S   LIG    1        0.051   9.122   2.278  0.00  0.00    +0.250 S 
ATOM     20  C   LIG    1       -0.382   7.792   3.261  0.00  0.00    +0.240 A 
ATOM     21  N   LIG    1       -0.101   6.678   2.663  0.00  0.00    -0.500 NA
BRANCH  20  22
ATOM     22  N   LIG    1       -0.959   7.892   4.520  0.00  0.00    -0.620 N 
ATOM     23  H   LIG    1       -1.177   7.089   5.019  0.00  0.00    +0.420 HD
ATOM     24  C   LIG    1       -1.216   9.105   5.049  0.00  0.00    +0.560 C 
ATOM     25  O   LIG    1       -0.942  10.111   4.424  0.00  0.00    -0.500 OA
BRANCH  24  26
ATOM     26  C   LIG    1       -1.829   9.211   6.388  0.00  0.00    -0.150 A 
ATOM     27  C   LIG    1       -2.150   8.056   7.106  0.00  0.00    +0.090 A 
ATOM     28  C   LIG    1       -2.718   8.162   8.357  0.00  0.00    -0.010 A 
ATOM     29  C   LIG    1       -2.981   9.410   8.900  0.00  0.00    +0.140 A 
ATOM     30  C   LIG    1       -2.669  10.560   8.189  0.00  0.00    -0.010 A 
ATOM     31  F   LIG    1       -3.542   9.508  10.124  0.00  0.00    -0.130 F 
ATOM     32  C   LIG    1       -2.097  10.466   6.939  0.00  0.00    +0.130 A 
ENDBRANCH  24  26
ENDBRANCH  20  22
ENDBRANCH   4  17
TORSDOF 4
