REMARK  Name = ZINCqH0000001ltg.0
REMARK                            x       y       z     vdW  Elec       q    Type
REMARK                         _______ _______ _______ _____ _____    ______ ____
ROOT
ATOM      1  N   LIG    1        1.243  -2.678  -0.182  0.00  0.00    -0.720 N 
ATOM      2  H   LIG    1        2.159  -2.996  -0.206  0.00  0.00    +0.400 HD
ATOM      3  C   LIG    1        0.515  -2.802   0.945  0.00  0.00    +0.500 C 
ATOM      4  O   LIG    1       -0.656  -2.487   0.949  0.00  0.00    -0.520 OA
ENDROOT
BRANCH   1   5
ATOM      5  C   LIG    1        0.650  -2.064  -1.373  0.00  0.00    +0.290 C 
BRANCH   5   6
ATOM      6  C   LIG    1        1.414  -2.499  -2.597  0.00  0.00    -0.090 A 
ATOM      7  C   LIG    1        2.793  -2.591  -2.554  0.00  0.00    +0.000 A 
ATOM      8  C   LIG    1        3.493  -2.995  -3.675  0.00  0.00    +0.010 A 
ATOM      9  C   LIG    1        2.816  -3.299  -4.842  0.00  0.00    +0.000 A 
ATOM     10  C   LIG    1        1.438  -3.202  -4.885  0.00  0.00    +0.020 A 
ATOM     11  C   LIG    1        0.737  -2.802  -3.763  0.00  0.00    +0.010 A 
ENDBRANCH   5   6
BRANCH   5  12
ATOM     12  C   LIG    1        0.715  -0.540  -1.247  0.00  0.00    +0.020 C 
BRANCH  12  14
ATOM     13  C   LIG    1        0.143   1.620  -2.365  0.00  0.00    +0.010 C 
ATOM     14  C   LIG    1       -0.035   0.101  -2.416  0.00  0.00    -0.020 C 
ATOM     15  C   LIG    1       -1.523  -0.242  -2.317  0.00  0.00    +0.020 C 
ENDBRANCH  12  14
ENDBRANCH   5  12
ENDBRANCH   1   5
BRANCH   3  16
ATOM     16  C   LIG    1        1.157  -3.331   2.202  0.00  0.00    +0.340 C 
BRANCH  16  17
ATOM     17  N   LIG    1        0.165  -3.369   3.279  0.00  0.00    -0.480 N 
ATOM     18  C   LIG    1       -0.586  -4.485   3.460  0.00  0.00    +0.390 A 
ATOM     19  C   LIG    1       -1.510  -4.543   4.448  0.00  0.00    -0.290 A 
ATOM     20  C   LIG    1       -1.698  -3.443   5.296  0.00  0.00    +0.160 A 
ATOM     21  C   LIG    1       -0.942  -2.323   5.113  0.00  0.00    -0.060 A 
ATOM     22  C   LIG    1        0.011  -2.298   4.080  0.00  0.00    +0.520 A 
ATOM     23  O   LIG    1        0.698  -1.303   3.908  0.00  0.00    -0.530 OA
BRANCH  19  24
ATOM     24  C   LIG    1       -2.336  -5.790   4.636  0.00  0.00    +0.530 C 
ATOM     25  F   LIG    1       -2.413  -6.485   3.424  0.00  0.00    -0.180 F 
ATOM     26  F   LIG    1       -3.623  -5.438   5.054  0.00  0.00    -0.170 F 
ATOM     27  F   LIG    1       -1.738  -6.605   5.603  0.00  0.00    -0.170 F 
ENDBRANCH  19  24
ENDBRANCH  16  17
ENDBRANCH   3  16
TORSDOF 7
