REMARK  Name = ZINCrD00000hQ4Ai.0
REMARK                            x       y       z     vdW  Elec       q    Type
REMARK                         _______ _______ _______ _____ _____    ______ ____
ROOT
ATOM      1  C   LIG    1       -5.532   5.829   0.047  0.00  0.00    +0.330 C 
ENDROOT
BRANCH   1   2
ATOM      2  C   LIG    1       -4.698   6.336  -1.101  0.00  0.00    -0.150 A 
ATOM      3  C   LIG    1       -5.023   7.528  -1.718  0.00  0.00    +0.070 A 
ATOM      4  C   LIG    1       -4.262   7.990  -2.777  0.00  0.00    -0.030 A 
ATOM      5  C   LIG    1       -3.171   7.263  -3.216  0.00  0.00    -0.030 A 
ATOM      6  C   LIG    1       -2.839   6.073  -2.598  0.00  0.00    -0.080 A 
ATOM      7  C   LIG    1       -2.344   7.769  -4.370  0.00  0.00    +0.100 C 
ATOM      8  C   LIG    1       -3.600   5.607  -1.536  0.00  0.00    +0.150 A 
BRANCH   8   9
ATOM      9  O   LIG    1       -3.275   4.437  -0.927  0.00  0.00    -0.310 OA
BRANCH   9  10
ATOM     10  C   LIG    1       -2.136   3.737  -1.432  0.00  0.00    +0.210 C 
BRANCH  10  11
ATOM     11  C   LIG    1       -1.928   2.453  -0.626  0.00  0.00    -0.020 C 
ATOM     12  C   LIG    1       -0.778   1.606  -1.224  0.00  0.00    +0.010 C 
ATOM     13  C   LIG    1       -0.013   1.086   0.008  0.00  0.00    +0.200 C 
ATOM     14  O   LIG    1       -0.705   1.559   1.176  0.00  0.00    -0.370 OA
ATOM     15  C   LIG    1       -1.394   2.771   0.793  0.00  0.00    +0.220 C 
ENDBRANCH  10  11
ENDBRANCH   9  10
ENDBRANCH   8   9
ENDBRANCH   1   2
BRANCH   1  17
ATOM     16  C   LIG    1       -5.431   5.789   2.482  0.00  0.00    +0.520 C 
ATOM     17  N   LIG    1       -4.865   6.148   1.312  0.00  0.00    -0.720 N 
ATOM     18  H   LIG    1       -4.017   6.618   1.308  0.00  0.00    +0.400 HD
ATOM     19  O   LIG    1       -6.493   5.202   2.486  0.00  0.00    -0.540 OA
BRANCH  16  20
ATOM     20  C   LIG    1       -4.746   6.117   3.783  0.00  0.00    +0.050 C 
BRANCH  20  21
ATOM     21  C   LIG    1       -5.592   5.603   4.949  0.00  0.00    +0.130 C 
BRANCH  21  22
ATOM     22  C   LIG    1       -4.896   5.936   6.270  0.00  0.00    +0.040 C 
ATOM     23  N   LIG    1       -3.938   7.045   6.298  0.00  0.00    -0.120 NA
ATOM     24  N   LIG    1       -3.432   5.913   6.316  0.00  0.00    -0.120 NA
BRANCH  22  25
ATOM     25  C   LIG    1       -5.674   5.608   7.546  0.00  0.00    +0.120 C 
BRANCH  25  26
ATOM     26  C   LIG    1       -4.841   6.001   8.767  0.00  0.00    +0.160 C 
BRANCH  26  28
ATOM     27  C   LIG    1       -6.187   5.433  10.973  0.00  0.00    +0.030 C 
ATOM     28  C   LIG    1       -5.590   5.685   9.995  0.00  0.00    -0.190 C 
ENDBRANCH  26  28
ENDBRANCH  25  26
ENDBRANCH  22  25
ENDBRANCH  21  22
ENDBRANCH  20  21
ENDBRANCH  16  20
ENDBRANCH   1  17
TORSDOF 11
