REMARK  Name = ZINCrm000011iLyN.0
REMARK                            x       y       z     vdW  Elec       q    Type
REMARK                         _______ _______ _______ _____ _____    ______ ____
ROOT
ATOM      1  C   LIG    1       -6.398   3.871  -0.620  0.00  0.00    +0.070 C 
ATOM      2  C   LIG    1       -5.615   5.182  -0.516  0.00  0.00    +0.140 C 
ENDROOT
BRANCH   2   3
ATOM      3  O   LIG    1       -5.325   5.456   0.856  0.00  0.00    -0.550 OA
ATOM      4  H   LIG    1       -4.677   6.162   0.987  0.00  0.00    +0.380 HD
ENDBRANCH   2   3
BRANCH   2   5
ATOM      5  C   LIG    1       -6.451   6.323  -1.099  0.00  0.00    +0.080 C 
BRANCH   5   6
ATOM      6  C   LIG    1       -5.746   7.634  -0.863  0.00  0.00    -0.090 A 
ATOM      7  C   LIG    1       -5.481   8.054   0.427  0.00  0.00    +0.000 A 
ATOM      8  C   LIG    1       -4.829   9.254   0.643  0.00  0.00    +0.010 A 
ATOM      9  C   LIG    1       -4.452  10.039  -0.430  0.00  0.00    +0.020 A 
ATOM     10  C   LIG    1       -4.722   9.621  -1.720  0.00  0.00    +0.020 A 
ATOM     11  C   LIG    1       -5.369   8.419  -1.937  0.00  0.00    +0.010 A 
ENDBRANCH   5   6
BRANCH   5  12
ATOM     12  C   LIG    1       -7.800   6.351  -0.428  0.00  0.00    -0.080 A 
ATOM     13  C   LIG    1       -8.951   6.407  -1.192  0.00  0.00    +0.010 A 
ATOM     14  C   LIG    1      -10.188   6.427  -0.577  0.00  0.00    +0.010 A 
ATOM     15  C   LIG    1      -10.275   6.401   0.803  0.00  0.00    +0.010 A 
ATOM     16  C   LIG    1       -9.124   6.351   1.567  0.00  0.00    +0.000 A 
ATOM     17  C   LIG    1       -7.887   6.325   0.951  0.00  0.00    +0.030 A 
ENDBRANCH   5  12
ENDBRANCH   2   5
BRANCH   2  18
ATOM     18  C   LIG    1       -4.306   5.057  -1.299  0.00  0.00    +0.260 C 
BRANCH  18  19
ATOM     19  N   LIG    1       -3.559   3.892  -0.820  0.00  0.00    -0.710 N 
ATOM     20  H   LIG    1       -3.923   3.342  -0.108  0.00  0.00    +0.410 HD
ATOM     21  C   LIG    1       -2.367   3.583  -1.368  0.00  0.00    +0.480 C 
ATOM     22  O   LIG    1       -1.870   4.320  -2.193  0.00  0.00    -0.490 OA
BRANCH  21  23
ATOM     23  C   LIG    1       -1.653   2.322  -0.956  0.00  0.00    -0.130 C 
ATOM     24  C   LIG    1       -0.436   2.070  -1.876  0.00  0.00    +0.120 C 
ATOM     25  C   LIG    1       -0.992   1.065  -2.919  0.00  0.00    +0.310 C 
ATOM     26  N   LIG    1       -1.886   0.198  -2.109  0.00  0.00    -0.520 N 
ATOM     27  H   LIG    1       -2.563  -0.255  -2.704  0.00  0.00    +0.450 HD
ATOM     28  H   LIG    1       -1.344  -0.491  -1.610  0.00  0.00    +0.440 HD
ATOM     29  C   LIG    1       -2.567   1.099  -1.155  0.00  0.00    +0.320 C 
BRANCH  23  30
ATOM     30  C   LIG    1       -1.204   2.417   0.504  0.00  0.00    +0.310 C 
BRANCH  30  31
ATOM     31  N   LIG    1       -0.400   3.633   0.690  0.00  0.00    -0.640 N 
ATOM     32  H   LIG    1       -0.029   3.650   1.629  0.00  0.00    +0.450 HD
ATOM     33  H   LIG    1       -0.980   4.445   0.543  0.00  0.00    +0.440 HD
ATOM     34  H   LIG    1        0.361   3.638   0.028  0.00  0.00    +0.440 HD
ENDBRANCH  30  31
ENDBRANCH  23  30
ENDBRANCH  21  23
ENDBRANCH  18  19
ENDBRANCH   2  18
TORSDOF 9
