REMARK  Name = ZINCtV00001bB3wH.0
REMARK                            x       y       z     vdW  Elec       q    Type
REMARK                         _______ _______ _______ _____ _____    ______ ____
ROOT
ATOM      1  P   LIG    1        3.673  -1.619  -0.502  0.00  0.00    +2.700 P 
ATOM      2  O   LIG    1        4.273  -1.298   0.812  0.00  0.00    -1.040 OA
ENDROOT
BRANCH   1  15
ATOM      3  C   LIG    1        3.577   0.972   0.556  0.00  0.00    +0.320 C 
ATOM      4  N   LIG    1        2.164   1.020   0.173  0.00  0.00    -0.550 N 
ATOM      5  C   LIG    1        1.377   2.170   0.220  0.00  0.00    +0.150 A 
ATOM      6  C   LIG    1        1.696   3.469   0.613  0.00  0.00    -0.020 A 
ATOM      7  C   LIG    1        0.737   4.460   0.576  0.00  0.00    +0.050 A 
ATOM      8  C   LIG    1       -0.547   4.174   0.151  0.00  0.00    -0.020 A 
ATOM      9  C   LIG    1       -0.873   2.885  -0.236  0.00  0.00    +0.060 A 
ATOM     10  C   LIG    1        0.084   1.894  -0.205  0.00  0.00    -0.150 A 
ATOM     11  C   LIG    1        0.037   0.426  -0.560  0.00  0.00    -0.010 C 
ATOM     12  C   LIG    1       -0.316   0.243  -2.037  0.00  0.00    +0.070 C 
ATOM     13  C   LIG    1       -0.973  -0.307   0.325  0.00  0.00    +0.070 C 
ATOM     14  C   LIG    1        1.440  -0.071  -0.283  0.00  0.00    +0.270 C 
ATOM     15  C   LIG    1        1.888  -1.303  -0.445  0.00  0.00    -0.800 C 
ENDBRANCH   1  15
BRANCH   1  16
ATOM     16  C   LIG    1        3.965  -3.367  -0.890  0.00  0.00    -0.760 A 
ATOM     17  C   LIG    1        3.970  -3.792  -2.205  0.00  0.00    +0.060 A 
ATOM     18  C   LIG    1        4.197  -5.123  -2.501  0.00  0.00    -0.010 A 
ATOM     19  C   LIG    1        4.410  -6.031  -1.480  0.00  0.00    +0.050 A 
ATOM     20  C   LIG    1        4.400  -5.607  -0.164  0.00  0.00    -0.010 A 
ATOM     21  C   LIG    1        4.177  -4.275   0.131  0.00  0.00    +0.100 A 
ENDBRANCH   1  16
BRANCH   1  22
ATOM     22  N   LIG    1        4.358  -0.681  -1.660  0.00  0.00    -1.120 N 
ATOM     23  H   LIG    1        3.799  -0.138  -2.237  0.00  0.00    +0.420 HD
BRANCH  22  24
ATOM     24  C   LIG    1        5.747  -0.664  -1.815  0.00  0.00    +0.180 A 
ATOM     25  C   LIG    1        6.541  -1.522  -1.065  0.00  0.00    -0.010 A 
ATOM     26  C   LIG    1        7.913  -1.508  -1.223  0.00  0.00    +0.030 A 
ATOM     27  C   LIG    1        8.498  -0.631  -2.122  0.00  0.00    +0.070 A 
ATOM     28  C   LIG    1        7.709   0.229  -2.867  0.00  0.00    +0.020 A 
ATOM     29  F   LIG    1        9.840  -0.615  -2.271  0.00  0.00    -0.140 F 
ATOM     30  C   LIG    1        6.336   0.214  -2.715  0.00  0.00    +0.000 A 
ENDBRANCH  22  24
ENDBRANCH   1  22
TORSDOF 4
