REMARK  Name = ZINCbw0000001N5A.0
REMARK                            x       y       z     vdW  Elec       q    Type
REMARK                         _______ _______ _______ _____ _____    ______ ____
ROOT
ATOM      1  C   LIG    1       -0.017   1.381   0.010  0.00  0.00    -0.170 A 
ATOM      2  C   LIG    1        0.002  -0.004   0.002  0.00  0.00    +0.210 A 
ATOM      3  N   LIG    1        1.167  -0.633  -0.013  0.00  0.00    -0.500 NA
ATOM      4  C   LIG    1        2.300   0.042  -0.020  0.00  0.00    +0.380 A 
ATOM      5  N   LIG    1        2.321   1.362  -0.013  0.00  0.00    -0.500 NA
ATOM      6 CL   LIG    1        3.802  -0.827  -0.039  0.00  0.00    +0.040 Cl
ATOM      7  C   LIG    1       -1.287  -0.785   0.010  0.00  0.00    +0.170 C 
ATOM      8  C   LIG    1        1.195   2.058   0.002  0.00  0.00    +0.240 A 
ATOM      9 CL   LIG    1        1.233   3.793   0.010  0.00  0.00    +0.010 Cl
ENDROOT
BRANCH   1  11
ATOM     10  C   LIG    1       -1.756   2.381   1.466  0.00  0.00    +0.040 C 
ATOM     11  C   LIG    1       -1.322   2.134   0.020  0.00  0.00    +0.100 C 
ENDBRANCH   1  11
TORSDOF 1
