REMARK  Name = ZINCpe000000ZlXD.0
REMARK                            x       y       z     vdW  Elec       q    Type
REMARK                         _______ _______ _______ _____ _____    ______ ____
ROOT
ATOM      1  C   LIG    1        0.151   0.677   4.883  0.00  0.00    +0.010 C 
ATOM      2  C   LIG    1        1.669   0.409   4.768  0.00  0.00    +0.100 C 
ATOM      3  C   LIG    1        2.184   0.580   6.180  0.00  0.00    +0.520 C 
ATOM      4  N   LIG    1        1.274   1.227   6.929  0.00  0.00    -0.560 N 
ATOM      5  O   LIG    1        3.261   0.190   6.579  0.00  0.00    -0.500 OA
ATOM      6  C   LIG    1        0.083   1.569   6.143  0.00  0.00    +0.310 C 
ENDROOT
BRANCH   4   7
ATOM      7  C   LIG    1        1.442   1.535   8.283  0.00  0.00    +0.160 A 
ATOM      8  C   LIG    1        0.498   2.311   8.943  0.00  0.00    -0.020 A 
ATOM      9  C   LIG    1        0.668   2.612  10.279  0.00  0.00    +0.050 A 
ATOM     10  C   LIG    1        1.775   2.143  10.966  0.00  0.00    -0.120 A 
ATOM     11  C   LIG    1        2.183   2.331  12.412  0.00  0.00    +0.070 C 
ATOM     12  C   LIG    1        3.682   1.963  12.460  0.00  0.00    +0.030 C 
ATOM     13  C   LIG    1        3.821   0.986  11.273  0.00  0.00    +0.080 C 
ATOM     14  C   LIG    1        2.717   1.369  10.312  0.00  0.00    -0.070 A 
ATOM     15  C   LIG    1        2.549   1.062   8.973  0.00  0.00    +0.010 A 
ENDBRANCH   4   7
BRANCH   1  17
ATOM     16  O   LIG    1       -0.855   2.515   3.796  0.00  0.00    -0.520 OA
ATOM     17  C   LIG    1       -0.360   1.415   3.672  0.00  0.00    +0.530 C 
ATOM     18  N   LIG    1       -0.267   0.852   2.451  0.00  0.00    -0.710 N 
ATOM     19  H   LIG    1        0.129  -0.028   2.352  0.00  0.00    +0.410 HD
BRANCH  18  20
ATOM     20  C   LIG    1       -0.763   1.569   1.274  0.00  0.00    +0.270 C 
ATOM     21  C   LIG    1       -0.032   1.080   0.012  0.00  0.00    +0.070 C 
ATOM     22  C   LIG    1       -0.796   1.587  -1.227  0.00  0.00    -0.300 C 
ATOM     23  S   LIG    1       -2.534   1.753  -0.679  0.00  0.00    +2.400 S 
ATOM     24  O   LIG    1       -3.329   0.771  -1.331  0.00  0.00    -0.930 OA
ATOM     25  O   LIG    1       -2.915   3.121  -0.731  0.00  0.00    -0.930 OA
ATOM     26  C   LIG    1       -2.266   1.262   1.066  0.00  0.00    -0.320 C 
ENDBRANCH  18  20
ENDBRANCH   1  17
TORSDOF 3
