REMARK  Name = ZINCpe000027pHpS.0
REMARK                            x       y       z     vdW  Elec       q    Type
REMARK                         _______ _______ _______ _____ _____    ______ ____
ROOT
ATOM      1  C   LIG    1       -3.565  -6.474  -0.226  0.00  0.00    +0.580 C 
ATOM      2  N   LIG    1       -4.690  -7.190  -0.423  0.00  0.00    -0.630 N 
ATOM      3  C   LIG    1       -6.075  -6.637  -0.516  0.00  0.00    +0.310 C 
ATOM      4  C   LIG    1       -6.799  -7.697  -1.326  0.00  0.00    +0.030 C 
ATOM      5  C   LIG    1       -8.303  -7.824  -1.320  0.00  0.00    -0.270 C 
ATOM      6  S   LIG    1       -8.571  -9.627  -1.596  0.00  0.00    +2.360 S 
ATOM      7  C   LIG    1       -6.787 -10.124  -1.487  0.00  0.00    -0.230 C 
ATOM      8  O   LIG    1       -9.035  -9.838  -2.923  0.00  0.00    -0.920 OA
ATOM      9  O   LIG    1       -9.287 -10.172  -0.497  0.00  0.00    -0.910 OA
ATOM     10  C   LIG    1       -6.244  -8.986  -0.634  0.00  0.00    +0.020 C 
ATOM     11  C   LIG    1       -4.767  -8.668  -0.580  0.00  0.00    +0.340 C 
ATOM     12  O   LIG    1       -2.498  -7.041  -0.103  0.00  0.00    -0.510 OA
ENDROOT
BRANCH   1  17
ATOM     13  C   LIG    1       -2.586  -2.849  -0.438  0.00  0.00    +0.140 A 
ATOM     14  C   LIG    1       -3.762  -2.230  -0.033  0.00  0.00    +0.010 A 
ATOM     15  C   LIG    1       -4.866  -2.990   0.307  0.00  0.00    +0.040 A 
ATOM     16  C   LIG    1       -4.808  -4.367   0.246  0.00  0.00    +0.020 A 
ATOM     17  C   LIG    1       -3.631  -4.998  -0.160  0.00  0.00    -0.110 A 
ATOM     18  C   LIG    1       -2.518  -4.232  -0.508  0.00  0.00    +0.090 A 
BRANCH  13  20
ATOM     19  C   LIG    1       -0.230  -2.530  -0.519  0.00  0.00    +0.540 C 
ATOM     20  N   LIG    1       -1.472  -2.076  -0.782  0.00  0.00    -0.670 N 
ATOM     21  H   LIG    1       -1.593  -1.214  -1.209  0.00  0.00    +0.410 HD
ATOM     22  O   LIG    1       -0.080  -3.567   0.099  0.00  0.00    -0.520 OA
BRANCH  19  24
ATOM     23  C   LIG    1        2.168  -2.220  -0.722  0.00  0.00    +0.160 C 
ATOM     24  C   LIG    1        0.943  -1.772  -0.981  0.00  0.00    -0.090 C 
ENDBRANCH  19  24
ENDBRANCH  13  20
ENDBRANCH   1  17
BRANCH  10  25
ATOM     25  C   LIG    1       -6.785  -9.095   0.731  0.00  0.00    +0.170 C 
ATOM     26  N   LIG    1       -7.203  -9.180   1.784  0.00  0.00    -0.360 NA
ENDBRANCH  10  25
TORSDOF 4
