REMARK  Name = ZINCpk000004ATaC.0
REMARK                            x       y       z     vdW  Elec       q    Type
REMARK                         _______ _______ _______ _____ _____    ______ ____
ROOT
ATOM      1  C   LIG    1        4.960  -2.307   1.244  0.00  0.00    +0.560 C 
ATOM      2  N   LIG    1        3.729  -1.758   1.272  0.00  0.00    -0.730 N 
ATOM      3  H   LIG    1        3.627  -0.806   1.428  0.00  0.00    +0.400 HD
ATOM      4  O   LIG    1        5.088  -3.500   1.049  0.00  0.00    -0.530 OA
ENDROOT
BRANCH   1   8
ATOM      5  C   LIG    1        8.388   0.130   1.837  0.00  0.00    -0.080 A 
ATOM      6  C   LIG    1        8.538  -1.227   1.616  0.00  0.00    +0.020 A 
ATOM      7  C   LIG    1        7.428  -2.025   1.423  0.00  0.00    +0.080 A 
ATOM      8  C   LIG    1        6.153  -1.459   1.451  0.00  0.00    -0.130 A 
ATOM      9  C   LIG    1        6.009  -0.088   1.670  0.00  0.00    +0.040 A 
ATOM     10  C   LIG    1        7.126   0.697   1.867  0.00  0.00    +0.020 A 
BRANCH   5  11
ATOM     11  C   LIG    1        9.604   0.995   2.048  0.00  0.00    +0.320 C 
BRANCH  11  13
ATOM     12  C   LIG    1       11.152   2.306   0.699  0.00  0.00    +0.540 C 
ATOM     13  N   LIG    1       10.070   1.505   0.756  0.00  0.00    -0.720 N 
ATOM     14  H   LIG    1        9.600   1.266  -0.058  0.00  0.00    +0.400 HD
ATOM     15  O   LIG    1       11.742   2.606   1.719  0.00  0.00    -0.540 OA
BRANCH  12  17
ATOM     16  C   LIG    1       12.688   3.608  -0.655  0.00  0.00    +0.150 C 
ATOM     17  C   LIG    1       11.620   2.818  -0.599  0.00  0.00    -0.090 C 
ENDBRANCH  12  17
ENDBRANCH  11  13
ENDBRANCH   5  11
ENDBRANCH   1   8
BRANCH   2  18
ATOM     18  C   LIG    1        2.547  -2.598   1.067  0.00  0.00    +0.280 C 
BRANCH  18  19
ATOM     19  C   LIG    1        1.287  -1.734   1.147  0.00  0.00    -0.030 C 
ATOM     20  C   LIG    1        0.048  -2.628   1.058  0.00  0.00    +0.030 C 
ATOM     21  C   LIG    1       -1.213  -1.768   1.171  0.00  0.00    +0.020 C 
ATOM     22  C   LIG    1       -1.252  -0.770   0.010  0.00  0.00    +0.260 C 
ATOM     23  N   LIG    1        0.002  -0.004   0.002  0.00  0.00    -0.610 N 
ATOM     24  C   LIG    1       -0.016   1.344   0.009  0.00  0.00    +0.510 C 
ATOM     25  O   LIG    1        1.026   1.964   0.003  0.00  0.00    -0.550 OA
ATOM     26  C   LIG    1       -1.331   2.079   0.020  0.00  0.00    +0.080 C 
ATOM     27  C   LIG    1        1.276  -0.735  -0.020  0.00  0.00    +0.270 C 
ENDBRANCH  18  19
ENDBRANCH   2  18
TORSDOF 6
