REMARK  Name = ZINC9u0000000C4h.0
REMARK                            x       y       z     vdW  Elec       q    Type
REMARK                         _______ _______ _______ _____ _____    ______ ____
ROOT
ATOM      1  C   LIG    1        0.002  -0.004   0.002  0.00  0.00    -0.040 C 
ATOM      2  C   LIG    1        0.121  -0.505  -1.439  0.00  0.00    +0.050 C 
ENDROOT
BRANCH   1   3
ATOM      3  C   LIG    1       -0.018   1.503   0.010  0.00  0.00    +0.360 C 
ATOM      4  O   LIG    1       -1.072   2.092   0.018  0.00  0.00    -0.460 OA
ATOM      5  C   LIG    1        1.276   2.274   0.002  0.00  0.00    +0.050 C 
ENDBRANCH   1   3
BRANCH   1   6
ATOM      6  C   LIG    1       -1.292  -0.535   0.621  0.00  0.00    +0.020 C 
BRANCH   6   7
ATOM      7  C   LIG    1       -1.219  -2.060   0.727  0.00  0.00    +0.010 C 
BRANCH   7   9
ATOM      8  C   LIG    1       -2.440  -4.115   1.452  0.00  0.00    +0.000 C 
ATOM      9  C   LIG    1       -2.514  -2.591   1.346  0.00  0.00    -0.010 C 
ENDBRANCH   7   9
ENDBRANCH   6   7
ENDBRANCH   1   6
TORSDOF 4
