REMARK  Name = ZINCrD0000074o32.0
REMARK                            x       y       z     vdW  Elec       q    Type
REMARK                         _______ _______ _______ _____ _____    ______ ____
ROOT
ATOM      1  C   LIG    1       -4.011  -4.624   0.014  0.00  0.00    -0.160 A 
ATOM      2  C   LIG    1       -5.134  -3.784   0.029  0.00  0.00    +0.090 A 
ATOM      3  C   LIG    1       -6.393  -4.308   0.037  0.00  0.00    -0.010 A 
ATOM      4  C   LIG    1       -6.580  -5.689   0.030  0.00  0.00    +0.130 A 
ATOM      5  N   LIG    1       -7.700  -6.486   0.035  0.00  0.00    -0.580 N 
ATOM      6  H   LIG    1       -8.614  -6.160   0.044  0.00  0.00    +0.420 HD
ATOM      7  C   LIG    1       -7.337  -7.803   0.027  0.00  0.00    +0.070 A 
ATOM      8  C   LIG    1       -5.995  -7.903   0.015  0.00  0.00    -0.150 A 
ATOM      9  C   LIG    1       -5.230  -9.201   0.004  0.00  0.00    +0.100 C 
ATOM     10  C   LIG    1       -6.184 -10.329   0.419  0.00  0.00    -0.020 C 
ATOM     11  C   LIG    1       -7.470 -10.233  -0.405  0.00  0.00    +0.030 C 
ATOM     12  C   LIG    1       -5.514 -11.682   0.167  0.00  0.00    +0.030 C 
ATOM     13  C   LIG    1       -8.265  -8.997   0.029  0.00  0.00    +0.100 C 
ATOM     14  C   LIG    1       -5.459  -6.545   0.016  0.00  0.00    -0.120 A 
ATOM     15  C   LIG    1       -4.175  -6.006   0.002  0.00  0.00    +0.150 A 
ENDROOT
BRANCH   1  16
ATOM     16  C   LIG    1       -2.656  -4.041   0.005  0.00  0.00    +0.520 C 
ATOM     17  O   LIG    1       -1.683  -4.768  -0.008  0.00  0.00    -0.510 OA
BRANCH  16  18
ATOM     18  O   LIG    1       -2.498  -2.703   0.010  0.00  0.00    -0.330 OA
BRANCH  18  19
ATOM     19  C   LIG    1       -1.135  -2.201   0.001  0.00  0.00    +0.280 C 
BRANCH  19  22
ATOM     20  N   LIG    1        0.002  -0.004   0.002  0.00  0.00    -0.630 N 
ATOM     21  H   LIG    1        0.849  -0.478  -0.008  0.00  0.00    +0.420 HD
ATOM     22  C   LIG    1       -1.156  -0.694   0.009  0.00  0.00    +0.530 C 
ATOM     23  O   LIG    1       -2.214  -0.102   0.022  0.00  0.00    -0.490 OA
BRANCH  20  27
ATOM     24  C   LIG    1       -1.433   4.770   0.041  0.00  0.00    +0.190 C 
ATOM     25  C   LIG    1       -0.654   3.480   0.027  0.00  0.00    -0.020 A 
ATOM     26  C   LIG    1       -1.164   2.228   0.019  0.00  0.00    -0.040 A 
ATOM     27  C   LIG    1       -0.017   1.391   0.010  0.00  0.00    +0.250 A 
ATOM     28  N   LIG    1        1.018   2.190   0.004  0.00  0.00    -0.390 NA
ATOM     29  O   LIG    1        0.681   3.351   0.014  0.00  0.00    +0.100 OA
ENDBRANCH  20  27
ENDBRANCH  19  22
ENDBRANCH  18  19
ENDBRANCH  16  18
ENDBRANCH   1  16
TORSDOF 5
