REMARK  Name = ZINCrD0000071VnT.0
REMARK                            x       y       z     vdW  Elec       q    Type
REMARK                         _______ _______ _______ _____ _____    ______ ____
ROOT
ATOM      1  C   LIG    1        1.316   1.698   2.752  0.00  0.00    +0.560 C 
ATOM      2  O   LIG    1        2.067   2.638   2.580  0.00  0.00    -0.490 OA
ENDROOT
BRANCH   1   5
ATOM      3  C   LIG    1       -2.304   2.230   2.588  0.00  0.00    -0.050 A 
ATOM      4  C   LIG    1       -1.138   2.261   3.296  0.00  0.00    -0.010 A 
ATOM      5  C   LIG    1       -0.114   1.827   2.425  0.00  0.00    -0.220 A 
ATOM      6  C   LIG    1       -0.707   1.547   1.208  0.00  0.00    +0.130 A 
ATOM      7  C   LIG    1        0.003   1.051  -0.026  0.00  0.00    +0.160 C 
ATOM      8  C   LIG    1       -0.974   2.679   4.735  0.00  0.00    +0.140 C 
ATOM      9  N   LIG    1       -2.022   1.796   1.310  0.00  0.00    -0.510 N 
ATOM     10  H   LIG    1       -2.672   1.686   0.598  0.00  0.00    +0.430 HD
BRANCH   3  11
ATOM     11  C   LIG    1       -3.628   2.600   3.097  0.00  0.00    +0.540 C 
ATOM     12  O   LIG    1       -3.754   2.976   4.246  0.00  0.00    -0.490 OA
BRANCH  11  13
ATOM     13  O   LIG    1       -4.706   2.525   2.289  0.00  0.00    -0.360 OA
BRANCH  13  15
ATOM     14  C   LIG    1       -7.081   2.757   1.803  0.00  0.00    +0.070 C 
ATOM     15  C   LIG    1       -5.985   2.907   2.860  0.00  0.00    +0.210 C 
ENDBRANCH  13  15
ENDBRANCH  11  13
ENDBRANCH   3  11
ENDBRANCH   1   5
BRANCH   1  16
ATOM     16  O   LIG    1        1.793   0.536   3.241  0.00  0.00    -0.320 OA
BRANCH  16  17
ATOM     17  C   LIG    1        3.213   0.480   3.541  0.00  0.00    +0.270 C 
BRANCH  17  18
ATOM     18  C   LIG    1        3.560  -0.886   4.075  0.00  0.00    +0.520 C 
ATOM     19  N   LIG    1        4.831  -1.170   4.423  0.00  0.00    -0.670 N 
ATOM     20  H   LIG    1        5.533  -0.519   4.270  0.00  0.00    +0.420 HD
ATOM     21  O   LIG    1        2.696  -1.729   4.191  0.00  0.00    -0.490 OA
BRANCH  19  22
ATOM     22  C   LIG    1        5.137  -2.406   5.005  0.00  0.00    +0.130 A 
ATOM     23  C   LIG    1        4.449  -3.547   4.618  0.00  0.00    +0.070 A 
ATOM     24  C   LIG    1        4.758  -4.767   5.191  0.00  0.00    -0.030 A 
ATOM     25  C   LIG    1        5.744  -4.850   6.158  0.00  0.00    +0.060 A 
ATOM     26  C   LIG    1        6.428  -3.714   6.551  0.00  0.00    +0.030 A 
ATOM     27 CL   LIG    1        3.901  -6.196   4.703  0.00  0.00    -0.050 Cl
ATOM     28  C   LIG    1        6.128  -2.492   5.978  0.00  0.00    +0.080 A 
ATOM     29  F   LIG    1        6.796  -1.382   6.362  0.00  0.00    -0.130 F 
ENDBRANCH  19  22
ENDBRANCH  17  18
ENDBRANCH  16  17
ENDBRANCH   1  16
TORSDOF 8
