REMARK  Name = ZINCvU0000000ALe.0
REMARK                            x       y       z     vdW  Elec       q    Type
REMARK                         _______ _______ _______ _____ _____    ______ ____
ROOT
ATOM      1  C   LIG    1       -7.360  -2.449  -6.306  0.00  0.00    +0.170 C 
ATOM      2  C   LIG    1       -7.322  -0.942  -6.280  0.00  0.00    +0.140 A 
ATOM      3  N   LIG    1       -7.708  -0.157  -7.241  0.00  0.00    -0.260 NA
ATOM      4  N   LIG    1       -7.525   1.174  -6.855  0.00  0.00    -0.340 N 
ATOM      5  C   LIG    1       -7.001   1.182  -5.593  0.00  0.00    +0.010 A 
ATOM      6  S   LIG    1       -6.451   2.254  -4.311  0.00  0.00    +0.200 S 
ATOM      7  C   LIG    1       -6.048   0.890  -3.282  0.00  0.00    -0.280 A 
ATOM      8  C   LIG    1       -6.320  -0.265  -3.907  0.00  0.00    +0.200 A 
ATOM      9  C   LIG    1       -6.858  -0.137  -5.194  0.00  0.00    -0.230 A 
ENDROOT
BRANCH   7  10
ATOM     10  C   LIG    1       -5.486   0.998  -1.932  0.00  0.00    +0.600 C 
ATOM     11  N   LIG    1       -5.406   2.201  -1.330  0.00  0.00    -0.610 N 
ATOM     12  C   LIG    1       -5.869   3.403  -2.029  0.00  0.00    +0.320 C 
ATOM     13  O   LIG    1       -5.091   0.002  -1.355  0.00  0.00    -0.500 OA
BRANCH  11  14
ATOM     14  C   LIG    1       -4.857   2.308   0.024  0.00  0.00    +0.430 C 
BRANCH  14  15
ATOM     15  C   LIG    1       -3.369   2.530  -0.053  0.00  0.00    +0.260 A 
ATOM     16  N   LIG    1       -2.479   1.587  -0.166  0.00  0.00    -0.460 NA
ATOM     17  C   LIG    1       -1.237   2.134  -0.210  0.00  0.00    +0.040 A 
ATOM     18  C   LIG    1        0.048   1.598  -0.323  0.00  0.00    +0.070 A 
ATOM     19  C   LIG    1        1.133   2.429  -0.344  0.00  0.00    +0.000 A 
ATOM     20  C   LIG    1        0.973   3.803  -0.250  0.00  0.00    +0.030 A 
ATOM     21  C   LIG    1       -0.286   4.354  -0.133  0.00  0.00    +0.000 A 
ATOM     22  C   LIG    1       -1.399   3.526  -0.108  0.00  0.00    +0.050 A 
ATOM     23  N   LIG    1       -2.758   3.745  -0.005  0.00  0.00    -0.600 N 
ATOM     24  H   LIG    1       -3.197   4.606   0.076  0.00  0.00    +0.420 HD
ENDBRANCH  14  15
ENDBRANCH  11  14
ENDBRANCH   7  10
BRANCH   4  25
ATOM     25  C   LIG    1       -7.841   2.354  -7.664  0.00  0.00    +0.390 C 
BRANCH  25  26
ATOM     26  C   LIG    1       -6.637   2.737  -8.485  0.00  0.00    -0.120 A 
ATOM     27  C   LIG    1       -5.708   3.626  -7.977  0.00  0.00    +0.040 A 
ATOM     28  C   LIG    1       -4.601   3.974  -8.728  0.00  0.00    +0.030 A 
ATOM     29  C   LIG    1       -4.428   3.441  -9.993  0.00  0.00    -0.020 A 
ATOM     30  C   LIG    1       -5.361   2.555 -10.503  0.00  0.00    +0.030 A 
ATOM     31 CL   LIG    1       -3.042   3.883 -10.940  0.00  0.00    -0.060 Cl
ATOM     32  C   LIG    1       -6.465   2.204  -9.749  0.00  0.00    +0.060 A 
ENDBRANCH  25  26
ENDBRANCH   4  25
TORSDOF 5
