REMARK  Name = ZINCrg00000fSAd7.0
REMARK                            x       y       z     vdW  Elec       q    Type
REMARK                         _______ _______ _______ _____ _____    ______ ____
ROOT
ATOM      1  C   LIG    1        1.164   7.855  -3.020  0.00  0.00    +0.270 C 
ENDROOT
BRANCH   1   3
ATOM      2  O   LIG    1        1.239   8.126  -0.677  0.00  0.00    -0.510 OA
ATOM      3  C   LIG    1        1.086   7.355  -1.601  0.00  0.00    +0.520 C 
ATOM      4  N   LIG    1        0.847   6.051  -1.358  0.00  0.00    -0.720 N 
ATOM      5  H   LIG    1        0.725   5.435  -2.097  0.00  0.00    +0.410 HD
BRANCH   4   6
ATOM      6  C   LIG    1        0.771   5.565   0.022  0.00  0.00    +0.340 C 
BRANCH   6   7
ATOM      7  C   LIG    1        0.496   4.083   0.018  0.00  0.00    -0.110 A 
ATOM      8  C   LIG    1       -0.808   3.624   0.028  0.00  0.00    +0.050 A 
ATOM      9  C   LIG    1       -1.065   2.265   0.019  0.00  0.00    +0.040 A 
ATOM     10  C   LIG    1       -0.016   1.361   0.009  0.00  0.00    +0.040 A 
ATOM     11  O   LIG    1        0.002  -0.004   0.002  0.00  0.00    -0.310 OA
ATOM     12  C   LIG    1        1.336  -0.373   0.399  0.00  0.00    +0.440 C 
ATOM     13  O   LIG    1        2.139   0.749  -0.014  0.00  0.00    -0.310 OA
ATOM     14  C   LIG    1        1.297   1.824  -0.001  0.00  0.00    +0.030 A 
ATOM     15  C   LIG    1        1.548   3.186   0.004  0.00  0.00    +0.060 A 
ENDBRANCH   6   7
ENDBRANCH   4   6
ENDBRANCH   1   3
BRANCH   1  16
ATOM     16  O   LIG    1        1.429   9.283  -3.016  0.00  0.00    -0.320 OA
BRANCH  16  17
ATOM     17  C   LIG    1        1.529   9.887  -4.210  0.00  0.00    +0.470 C 
ATOM     18  O   LIG    1        1.399   9.245  -5.225  0.00  0.00    -0.500 OA
BRANCH  17  19
ATOM     19  C   LIG    1        1.803  11.367  -4.285  0.00  0.00    +0.370 C 
BRANCH  19  20
ATOM     20  N   LIG    1        1.865  11.782  -5.689  0.00  0.00    -0.720 N 
ATOM     21  H   LIG    1        1.737  11.128  -6.394  0.00  0.00    +0.410 HD
ATOM     22  C   LIG    1        2.102  13.072  -6.001  0.00  0.00    +0.570 C 
ATOM     23  O   LIG    1        2.263  13.891  -5.117  0.00  0.00    -0.530 OA
BRANCH  22  24
ATOM     24  C   LIG    1        2.165  13.490  -7.417  0.00  0.00    -0.140 A 
ATOM     25  C   LIG    1        1.986  12.551  -8.434  0.00  0.00    +0.040 A 
ATOM     26  C   LIG    1        2.040  12.949  -9.754  0.00  0.00    +0.000 A 
ATOM     27  C   LIG    1        2.283  14.274 -10.071  0.00  0.00    +0.040 A 
ATOM     28  C   LIG    1        2.467  15.209  -9.067  0.00  0.00    +0.000 A 
ATOM     29  C   LIG    1        2.409  14.825  -7.744  0.00  0.00    +0.080 A 
ENDBRANCH  22  24
ENDBRANCH  19  20
ENDBRANCH  17  19
ENDBRANCH  16  17
ENDBRANCH   1  16
TORSDOF 8
