REMARK  Name = ZINCkj00000y7CYf.0
REMARK                            x       y       z     vdW  Elec       q    Type
REMARK                         _______ _______ _______ _____ _____    ______ ____
ROOT
ATOM      1  N   LIG    1       -0.065   1.119  -2.440  0.00  0.00    -0.380 N 
ATOM      2  C   LIG    1        1.264   1.749  -2.534  0.00  0.00    +0.280 C 
ATOM      3  C   LIG    1        1.308   2.529  -3.865  0.00  0.00    +0.190 C 
ATOM      4  C   LIG    1        0.212   1.832  -4.714  0.00  0.00    +0.090 C 
ATOM      5  C   LIG    1       -0.849   1.492  -3.637  0.00  0.00    +0.170 C 
ATOM      6  H   LIG    1        0.037   0.116  -2.403  0.00  0.00    +0.440 HD
ENDROOT
BRANCH   5   7
ATOM      7  C   LIG    1       -1.702   0.335  -4.088  0.00  0.00    +0.520 C 
ATOM      8  O   LIG    1       -1.672  -0.714  -3.479  0.00  0.00    -0.520 OA
ATOM      9  N   LIG    1       -2.498   0.465  -5.168  0.00  0.00    -0.820 N 
ATOM     10  H   LIG    1       -3.047  -0.281  -5.458  0.00  0.00    +0.430 HD
ATOM     11  H   LIG    1       -2.521   1.303  -5.655  0.00  0.00    +0.410 HD
ENDBRANCH   5   7
BRANCH   3  12
ATOM     12  O   LIG    1        2.590   2.399  -4.484  0.00  0.00    -0.360 OA
ATOM     13  C   LIG    1        2.969   3.527  -5.276  0.00  0.00    +0.230 C 
ENDBRANCH   3  12
BRANCH   1  14
ATOM     14  C   LIG    1       -0.753   1.593  -1.232  0.00  0.00    +0.260 C 
BRANCH  14  15
ATOM     15  C   LIG    1       -0.013   1.086   0.008  0.00  0.00    +0.100 C 
BRANCH  15  19
ATOM     16  C   LIG    1       -2.012   2.463   3.523  0.00  0.00    -0.060 A 
ATOM     17  C   LIG    1       -2.366   1.254   2.955  0.00  0.00    +0.020 A 
ATOM     18  C   LIG    1       -1.719   0.808   1.818  0.00  0.00    +0.020 A 
ATOM     19  C   LIG    1       -0.718   1.572   1.248  0.00  0.00    -0.110 A 
ATOM     20  C   LIG    1       -0.360   2.779   1.819  0.00  0.00    +0.010 A 
ATOM     21  C   LIG    1       -1.010   3.227   2.953  0.00  0.00    +0.020 A 
BRANCH  16  23
ATOM     22  C   LIG    1       -1.979   2.442   6.002  0.00  0.00    +0.030 C 
ATOM     23  C   LIG    1       -2.718   2.950   4.762  0.00  0.00    +0.070 C 
ENDBRANCH  16  23
ENDBRANCH  15  19
ENDBRANCH  14  15
ENDBRANCH   1  14
TORSDOF 6
