REMARK  Name = ZINCkj00000y7CYf.1
REMARK                            x       y       z     vdW  Elec       q    Type
REMARK                         _______ _______ _______ _____ _____    ______ ____
ROOT
ATOM      1  N   LIG    1       -2.642   2.953   7.210  0.00  0.00    -0.370 N 
ATOM      2  C   LIG    1       -4.025   2.430   7.201  0.00  0.00    +0.290 C 
ATOM      3  C   LIG    1       -4.337   2.114   8.685  0.00  0.00    +0.190 C 
ATOM      4  C   LIG    1       -2.970   1.578   9.186  0.00  0.00    +0.080 C 
ATOM      5  C   LIG    1       -1.955   2.436   8.408  0.00  0.00    +0.170 C 
ATOM      6  H   LIG    1       -2.660   3.962   7.238  0.00  0.00    +0.430 HD
ENDROOT
BRANCH   5   7
ATOM      7  C   LIG    1       -0.777   1.590   7.999  0.00  0.00    +0.510 C 
ATOM      8  O   LIG    1       -0.941   0.635   7.270  0.00  0.00    -0.500 OA
ATOM      9  N   LIG    1        0.458   1.895   8.444  0.00  0.00    -0.830 N 
ATOM     10  H   LIG    1        1.216   1.350   8.180  0.00  0.00    +0.420 HD
ATOM     11  H   LIG    1        0.589   2.659   9.027  0.00  0.00    +0.410 HD
ENDBRANCH   5   7
BRANCH   3  12
ATOM     12  O   LIG    1       -5.351   1.113   8.793  0.00  0.00    -0.360 OA
ATOM     13  C   LIG    1       -6.159   1.227   9.966  0.00  0.00    +0.230 C 
ENDBRANCH   3  12
BRANCH   1  14
ATOM     14  C   LIG    1       -1.935   2.503   6.003  0.00  0.00    +0.270 C 
BRANCH  14  15
ATOM     15  C   LIG    1       -2.558   3.164   4.772  0.00  0.00    +0.090 C 
BRANCH  15  19
ATOM     16  C   LIG    1       -0.507   1.857   1.260  0.00  0.00    -0.060 A 
ATOM     17  C   LIG    1       -0.072   2.981   1.937  0.00  0.00    +0.010 A 
ATOM     18  C   LIG    1       -0.739   3.407   3.070  0.00  0.00    +0.010 A 
ATOM     19  C   LIG    1       -1.834   2.702   3.533  0.00  0.00    -0.110 A 
ATOM     20  C   LIG    1       -2.265   1.575   2.860  0.00  0.00    +0.020 A 
ATOM     21  C   LIG    1       -1.602   1.152   1.724  0.00  0.00    +0.020 A 
BRANCH  16  23
ATOM     22  C   LIG    1       -0.407   2.056  -1.209  0.00  0.00    +0.030 C 
ATOM     23  C   LIG    1        0.217   1.396   0.021  0.00  0.00    +0.070 C 
ENDBRANCH  16  23
ENDBRANCH  15  19
ENDBRANCH  14  15
ENDBRANCH   1  14
TORSDOF 6
