REMARK  Name = ZINCqH0000000kiO.0
REMARK                            x       y       z     vdW  Elec       q    Type
REMARK                         _______ _______ _______ _____ _____    ______ ____
ROOT
ATOM      1  N   LIG    1       -4.729   3.427  -3.039  0.00  0.00    -0.510 N 
ATOM      2  C   LIG    1       -4.171   2.991  -1.893  0.00  0.00    +0.560 A 
ATOM      3  C   LIG    1       -2.830   2.506  -1.925  0.00  0.00    -0.220 A 
ATOM      4  C   LIG    1       -2.160   2.505  -3.140  0.00  0.00    +0.080 A 
ATOM      5  S   LIG    1       -0.540   1.866  -2.918  0.00  0.00    +0.230 S 
ATOM      6  C   LIG    1       -0.794   1.613  -1.192  0.00  0.00    -0.220 A 
ATOM      7  C   LIG    1       -0.013   1.086   0.008  0.00  0.00    +0.130 C 
ATOM      8  C   LIG    1       -0.779   1.605   1.241  0.00  0.00    +0.050 C 
ATOM      9  C   LIG    1       -2.207   1.754   0.673  0.00  0.00    +0.100 C 
ATOM     10  N   LIG    1       -2.785   2.957  -4.247  0.00  0.00    -0.510 NA
ATOM     11  C   LIG    1       -2.012   1.985  -0.826  0.00  0.00    -0.050 A 
ATOM     12  O   LIG    1       -4.800   3.010  -0.849  0.00  0.00    -0.510 OA
ATOM     13  C   LIG    1       -4.018   3.401  -4.204  0.00  0.00    +0.370 A 
ENDROOT
BRANCH   1  14
ATOM     14  C   LIG    1       -6.105   3.932  -3.036  0.00  0.00    +0.340 C 
BRANCH  14  16
ATOM     15  C   LIG    1       -6.683   6.234  -3.607  0.00  0.00    +0.060 C 
ATOM     16  C   LIG    1       -6.095   5.415  -2.770  0.00  0.00    -0.070 C 
ENDBRANCH  14  16
ENDBRANCH   1  14
BRANCH  13  17
ATOM     17  S   LIG    1       -4.775   3.980  -5.686  0.00  0.00    +0.060 S 
BRANCH  17  18
ATOM     18  C   LIG    1       -3.418   3.717  -6.855  0.00  0.00    +0.260 C 
BRANCH  18  19
ATOM     19  C   LIG    1       -3.849   4.154  -8.231  0.00  0.00    +0.180 A 
ATOM     20  N   LIG    1       -3.716   5.352  -8.748  0.00  0.00    -0.450 NA
ATOM     21  C   LIG    1       -4.238   5.273  -9.985  0.00  0.00    +0.180 A 
ATOM     22  N   LIG    1       -4.655   4.054 -10.154  0.00  0.00    -0.370 NA
ATOM     23  O   LIG    1       -4.436   3.394  -9.161  0.00  0.00    +0.090 OA
BRANCH  21  24
ATOM     24  C   LIG    1       -4.324   6.393 -10.990  0.00  0.00    +0.160 C 
BRANCH  24  25
ATOM     25  C   LIG    1       -3.060   6.402 -11.852  0.00  0.00    +0.020 C 
ATOM     26  C   LIG    1       -3.147   7.538 -12.873  0.00  0.00    +0.030 C 
ENDBRANCH  24  25
ENDBRANCH  21  24
ENDBRANCH  18  19
ENDBRANCH  17  18
ENDBRANCH  13  17
TORSDOF 7
