REMARK  Name = ZINCkj000005ldPx.0
REMARK                            x       y       z     vdW  Elec       q    Type
REMARK                         _______ _______ _______ _____ _____    ______ ____
ROOT
ATOM      1  C   LIG    1        2.461   0.074  -0.021  0.00  0.00    +0.280 C 
ENDROOT
BRANCH   1   2
ATOM      2  N   LIG    1        1.202  -0.675  -0.013  0.00  0.00    -0.690 NA
ATOM      3  H   LIG    1        1.215  -1.645  -0.018  0.00  0.00    +0.440 HD
BRANCH   2   4
ATOM      4  C   LIG    1        0.002  -0.004   0.002  0.00  0.00    +0.740 C 
BRANCH   4   5
ATOM      5  N   LIG    1       -0.016   1.299   0.009  0.00  0.00    -0.770 NA
ATOM      6  H   LIG    1       -0.862   1.773   0.016  0.00  0.00    +0.440 HD
ATOM      7  H   LIG    1        0.818   1.796   0.004  0.00  0.00    +0.440 HD
ENDBRANCH   4   5
BRANCH   4   8
ATOM      8  N   LIG    1       -1.179  -0.708   0.009  0.00  0.00    -0.690 NA
ATOM      9  H   LIG    1       -1.166  -1.677   0.004  0.00  0.00    +0.440 HD
BRANCH   8  10
ATOM     10  C   LIG    1       -2.458   0.007   0.026  0.00  0.00    +0.320 C 
BRANCH  10  11
ATOM     11  C   LIG    1       -3.607  -1.002   0.031  0.00  0.00    -0.070 C 
ATOM     12  C   LIG    1       -4.547  -1.009  -1.176  0.00  0.00    +0.040 C 
ATOM     13  C   LIG    1       -5.029  -0.454   0.166  0.00  0.00    +0.050 C 
ENDBRANCH  10  11
ENDBRANCH   8  10
ENDBRANCH   4   8
ENDBRANCH   2   4
ENDBRANCH   1   2
BRANCH   1  14
ATOM     14  C   LIG    1        3.637  -0.904  -0.037  0.00  0.00    +0.290 C 
BRANCH  14  15
ATOM     15  N   LIG    1        4.895  -0.154  -0.045  0.00  0.00    -0.730 N 
ATOM     16  H   LIG    1        4.882   0.816  -0.040  0.00  0.00    +0.400 HD
ATOM     17  C   LIG    1        6.072  -0.812  -0.060  0.00  0.00    +0.570 C 
ATOM     18  O   LIG    1        6.088  -2.027  -0.067  0.00  0.00    -0.520 OA
BRANCH  17  19
ATOM     19  C   LIG    1        7.341  -0.056  -0.068  0.00  0.00    -0.140 A 
ATOM     20  C   LIG    1        7.325   1.340  -0.067  0.00  0.00    +0.060 A 
ATOM     21  C   LIG    1        8.513   2.041  -0.070  0.00  0.00    +0.020 A 
ATOM     22  C   LIG    1        9.721   1.361  -0.085  0.00  0.00    -0.010 A 
ATOM     23  C   LIG    1        9.742  -0.023  -0.092  0.00  0.00    +0.040 A 
ATOM     24 CL   LIG    1       11.212   2.250  -0.096  0.00  0.00    -0.050 Cl
ATOM     25  C   LIG    1        8.561  -0.735  -0.084  0.00  0.00    +0.110 A 
ENDBRANCH  17  19
ENDBRANCH  14  15
ENDBRANCH   1  14
TORSDOF 9
