REMARK  Name = ZINCpe000000ZHyY.0
REMARK                            x       y       z     vdW  Elec       q    Type
REMARK                         _______ _______ _______ _____ _____    ______ ____
ROOT
ATOM      1  C   LIG    1       -1.655   5.024  -1.426  0.00  0.00    +0.190 C 
ATOM      2  C   LIG    1       -1.086   3.909  -0.539  0.00  0.00    +0.170 C 
ATOM      3  N   LIG    1       -0.720   4.485   0.760  0.00  0.00    -0.470 N 
ATOM      4  C   LIG    1        0.070   5.631   0.625  0.00  0.00    +0.030 A 
ATOM      5  C   LIG    1        0.833   6.046   1.711  0.00  0.00    +0.010 A 
ATOM      6  C   LIG    1        1.621   7.176   1.617  0.00  0.00    +0.010 A 
ATOM      7  C   LIG    1        1.656   7.901   0.440  0.00  0.00    +0.030 A 
ATOM      8  C   LIG    1        0.903   7.494  -0.645  0.00  0.00    +0.010 A 
ATOM      9  C   LIG    1        0.110   6.359  -0.559  0.00  0.00    +0.100 A 
ATOM     10  O   LIG    1       -0.617   5.983  -1.647  0.00  0.00    -0.300 OA
ENDROOT
BRANCH   1  11
ATOM     11  C   LIG    1       -2.114   4.438  -2.763  0.00  0.00    +0.220 C 
BRANCH  11  12
ATOM     12  O   LIG    1       -2.762   5.454  -3.531  0.00  0.00    -0.560 OA
ATOM     13  H   LIG    1       -3.080   5.153  -4.393  0.00  0.00    +0.390 HD
ENDBRANCH  11  12
ENDBRANCH   1  11
BRANCH   3  14
ATOM     14  C   LIG    1       -0.058   3.487   1.611  0.00  0.00    +0.340 C 
BRANCH  14  15
ATOM     15  C   LIG    1       -0.951   2.282   1.760  0.00  0.00    +0.170 A 
ATOM     16  N   LIG    1       -2.068   2.216   2.443  0.00  0.00    -0.270 NA
ATOM     17  N   LIG    1       -2.533   1.020   2.331  0.00  0.00    -0.070 NA
ATOM     18  N   LIG    1       -1.744   0.322   1.591  0.00  0.00    -0.080 NA
ATOM     19  N   LIG    1       -0.759   1.066   1.216  0.00  0.00    -0.300 N 
BRANCH  19  20
ATOM     20  C   LIG    1        0.363   0.662   0.364  0.00  0.00    +0.340 C 
BRANCH  20  21
ATOM     21  C   LIG    1       -0.061   0.733  -1.104  0.00  0.00    -0.030 C 
ATOM     22  C   LIG    1       -1.169  -0.292  -1.367  0.00  0.00    +0.010 C 
ATOM     23  C   LIG    1       -1.530  -0.271  -2.855  0.00  0.00    +0.210 C 
ATOM     24  O   LIG    1       -0.363  -0.544  -3.633  0.00  0.00    -0.380 OA
ATOM     25  C   LIG    1        0.688   0.409  -3.463  0.00  0.00    +0.210 C 
ATOM     26  C   LIG    1        1.140   0.414  -2.000  0.00  0.00    +0.010 C 
ENDBRANCH  20  21
ENDBRANCH  19  20
ENDBRANCH  14  15
ENDBRANCH   3  14
TORSDOF 6
