REMARK  Name = ZINCrH000004tSan.0
REMARK                            x       y       z     vdW  Elec       q    Type
REMARK                         _______ _______ _______ _____ _____    ______ ____
ROOT
ATOM      1  C   LIG    1       -1.821   2.537  -3.195  0.00  0.00    +0.230 A 
ATOM      2  N   LIG    1       -1.019   3.405  -2.662  0.00  0.00    -0.500 NA
ATOM      3  C   LIG    1       -0.361   3.027  -1.582  0.00  0.00    +0.130 A 
ATOM      4  C   LIG    1       -0.612   1.776  -1.189  0.00  0.00    -0.270 A 
ATOM      5  S   LIG    1       -1.786   1.079  -2.302  0.00  0.00    +0.260 S 
ENDROOT
BRANCH   1   8
ATOM      6  O   LIG    1       -3.443   0.711  -4.232  0.00  0.00    -0.500 OA
ATOM      7  C   LIG    1       -3.397   1.783  -4.797  0.00  0.00    +0.510 C 
ATOM      8  N   LIG    1       -2.596   2.759  -4.327  0.00  0.00    -0.620 N 
ATOM      9  H   LIG    1       -2.559   3.616  -4.779  0.00  0.00    +0.420 HD
BRANCH   7  10
ATOM     10  C   LIG    1       -4.238   2.024  -6.024  0.00  0.00    +0.080 C 
BRANCH  10  11
ATOM     11  C   LIG    1       -5.048   0.766  -6.342  0.00  0.00    +0.250 C 
ATOM     12  C   LIG    1       -5.803   0.970  -7.657  0.00  0.00    +0.040 C 
ATOM     13  C   LIG    1       -6.779  -0.198  -7.848  0.00  0.00    +0.030 C 
ATOM     14  C   LIG    1       -7.867  -0.100  -6.777  0.00  0.00    +0.060 C 
ATOM     15  C   LIG    1       -7.239   0.097  -5.427  0.00  0.00    +0.520 C 
ATOM     16  O   LIG    1       -7.911  -0.127  -4.442  0.00  0.00    -0.560 OA
ATOM     17  N   LIG    1       -5.981   0.506  -5.253  0.00  0.00    -0.710 N 
ATOM     18  H   LIG    1       -5.668   0.638  -4.345  0.00  0.00    +0.400 HD
ENDBRANCH  10  11
ENDBRANCH   7  10
ENDBRANCH   1   8
BRANCH   3  19
ATOM     19  C   LIG    1        0.598   3.932  -0.854  0.00  0.00    +0.030 C 
ATOM     20  C   LIG    1        0.568   5.421  -1.204  0.00  0.00    +0.040 C 
ATOM     21  C   LIG    1        1.739   4.551  -1.664  0.00  0.00    +0.030 C 
ENDBRANCH   3  19
BRANCH   4  22
ATOM     22  C   LIG    1       -0.002   1.084   0.003  0.00  0.00    +0.190 C 
BRANCH  22  23
ATOM     23  C   LIG    1        1.206   0.298  -0.437  0.00  0.00    -0.110 A 
ATOM     24  C   LIG    1        2.467   0.851  -0.329  0.00  0.00    +0.050 A 
ATOM     25  C   LIG    1        3.576   0.130  -0.732  0.00  0.00    +0.000 A 
ATOM     26  C   LIG    1        3.424  -1.145  -1.245  0.00  0.00    +0.040 A 
ATOM     27  C   LIG    1        2.163  -1.700  -1.354  0.00  0.00    -0.010 A 
ATOM     28  C   LIG    1        1.053  -0.982  -0.944  0.00  0.00    +0.100 A 
ATOM     29  F   LIG    1       -0.179  -1.526  -1.045  0.00  0.00    -0.130 F 
ENDBRANCH  22  23
ENDBRANCH   4  22
TORSDOF 6
