REMARK  Name = ZINCqH0000033k9j.0
REMARK                            x       y       z     vdW  Elec       q    Type
REMARK                         _______ _______ _______ _____ _____    ______ ____
ROOT
ATOM      1  C   LIG    1        1.173   3.108  -0.207  0.00  0.00    -0.120 A 
ATOM      2  C   LIG    1        1.172   1.729  -0.310  0.00  0.00    +0.070 A 
ATOM      3  C   LIG    1       -0.021   1.033  -0.277  0.00  0.00    -0.020 A 
ATOM      4  C   LIG    1       -1.219   1.720  -0.146  0.00  0.00    +0.140 A 
ATOM      5  C   LIG    1       -1.215   3.103  -0.037  0.00  0.00    -0.090 A 
ATOM      6  C   LIG    1       -0.019   3.794  -0.070  0.00  0.00    +0.050 A 
ENDROOT
BRANCH   1   7
ATOM      7  C   LIG    1        2.476   3.864  -0.243  0.00  0.00    +0.220 C 
BRANCH   7   8
ATOM      8  N   LIG    1        2.801   4.213  -1.633  0.00  0.00    -0.490 N 
BRANCH   8   9
ATOM      9  C   LIG    1        4.101   4.713  -1.732  0.00  0.00    +0.090 A 
ATOM     10  C   LIG    1        4.464   5.855  -1.031  0.00  0.00    -0.030 A 
ATOM     11  C   LIG    1        5.751   6.346  -1.132  0.00  0.00    +0.000 A 
ATOM     12  C   LIG    1        6.678   5.702  -1.930  0.00  0.00    +0.000 A 
ATOM     13  C   LIG    1        6.320   4.564  -2.630  0.00  0.00    +0.000 A 
ATOM     14  C   LIG    1        5.037   4.064  -2.529  0.00  0.00    -0.060 A 
ATOM     15  C   LIG    1        4.650   2.820  -3.287  0.00  0.00    +0.100 C 
ENDBRANCH   8   9
BRANCH   8  17
ATOM     16  C   LIG    1        2.045   5.317  -3.684  0.00  0.00    +0.020 C 
ATOM     17  C   LIG    1        1.827   5.169  -2.177  0.00  0.00    +0.170 C 
ENDBRANCH   8  17
ENDBRANCH   7   8
ENDBRANCH   1   7
BRANCH   4  18
ATOM     18  O   LIG    1       -2.395   1.038  -0.119  0.00  0.00    -0.300 OA
BRANCH  18  19
ATOM     19  C   LIG    1       -3.589   1.810   0.019  0.00  0.00    +0.200 C 
BRANCH  19  20
ATOM     20  C   LIG    1       -4.801   0.877   0.029  0.00  0.00    +0.200 C 
BRANCH  20  21
ATOM     21  N   LIG    1       -4.752   0.024   1.224  0.00  0.00    -0.530 NA
ATOM     22  C   LIG    1       -5.599  -1.166   1.057  0.00  0.00    +0.150 C 
ATOM     23  C   LIG    1       -5.472  -2.055   2.297  0.00  0.00    +0.220 C 
ATOM     24  O   LIG    1       -5.824  -1.298   3.458  0.00  0.00    -0.390 OA
ATOM     25  C   LIG    1       -5.019  -0.132   3.652  0.00  0.00    +0.220 C 
ATOM     26  C   LIG    1       -5.141   0.776   2.426  0.00  0.00    +0.130 C 
ENDBRANCH  20  21
ENDBRANCH  19  20
ENDBRANCH  18  19
ENDBRANCH   4  18
TORSDOF 8
