REMARK  Name = ZINCrg000000opBn.0
REMARK                            x       y       z     vdW  Elec       q    Type
REMARK                         _______ _______ _______ _____ _____    ______ ____
ROOT
ATOM      1  N   LIG    1        0.506  -1.270   6.838  0.00  0.00    -0.520 NA
ATOM      2  C   LIG    1       -0.919  -1.317   7.193  0.00  0.00    +0.160 C 
ATOM      3  C   LIG    1       -1.601  -2.441   6.406  0.00  0.00    +0.310 C 
ATOM      4  N   LIG    1       -0.861  -3.690   6.638  0.00  0.00    -0.600 N 
ATOM      5  C   LIG    1        0.596  -3.684   6.436  0.00  0.00    +0.300 C 
ATOM      6  C   LIG    1       -1.500  -4.811   7.027  0.00  0.00    +0.590 C 
ATOM      7  O   LIG    1       -0.889  -5.859   7.120  0.00  0.00    -0.530 OA
ATOM      8  C   LIG    1        1.192  -2.511   7.222  0.00  0.00    +0.170 C 
ENDROOT
BRANCH   6   9
ATOM      9  C   LIG    1       -2.937  -4.768   7.339  0.00  0.00    -0.250 A 
ATOM     10  C   LIG    1       -3.433  -5.389   8.483  0.00  0.00    +0.240 A 
ATOM     11  C   LIG    1       -4.801  -5.324   8.748  0.00  0.00    -0.300 A 
ATOM     12  C   LIG    1       -5.629  -4.670   7.894  0.00  0.00    +0.420 A 
ATOM     13  N   LIG    1       -5.155  -4.068   6.778  0.00  0.00    -0.590 N 
ATOM     14  H   LIG    1       -5.770  -3.608   6.185  0.00  0.00    +0.430 HD
ATOM     15  C   LIG    1       -3.843  -4.098   6.477  0.00  0.00    +0.530 A 
ATOM     16  O   LIG    1       -3.434  -3.550   5.467  0.00  0.00    -0.500 OA
BRANCH  11  17
ATOM     17  C   LIG    1       -5.360  -5.983   9.982  0.00  0.00    +0.530 C 
ATOM     18  F   LIG    1       -4.771  -5.421  11.120  0.00  0.00    -0.170 F 
ATOM     19  F   LIG    1       -5.084  -7.354   9.944  0.00  0.00    -0.170 F 
ATOM     20  F   LIG    1       -6.745  -5.788  10.028  0.00  0.00    -0.180 F 
ENDBRANCH  11  17
ENDBRANCH   6   9
BRANCH   1  21
ATOM     21  C   LIG    1        1.159  -0.100   7.439  0.00  0.00    +0.210 C 
BRANCH  21  24
ATOM     22  N   LIG    1        1.043   2.363   7.239  0.00  0.00    -0.730 N 
ATOM     23  H   LIG    1        1.734   2.420   7.916  0.00  0.00    +0.400 HD
ATOM     24  C   LIG    1        0.590   1.159   6.837  0.00  0.00    +0.510 C 
ATOM     25  O   LIG    1       -0.275   1.088   5.989  0.00  0.00    -0.520 OA
BRANCH  22  26
ATOM     26  C   LIG    1        0.489   3.586   6.652  0.00  0.00    +0.230 C 
ATOM     27  C   LIG    1        1.227   3.907   5.351  0.00  0.00    +0.030 C 
BRANCH  26  29
ATOM     28  C   LIG    1       -0.177   4.482   8.887  0.00  0.00    +0.020 C 
ATOM     29  C   LIG    1        0.661   4.746   7.635  0.00  0.00    +0.020 C 
ENDBRANCH  26  29
ENDBRANCH  22  26
ENDBRANCH  21  24
ENDBRANCH   1  21
TORSDOF 6
