REMARK  Name = ZINCrD000000fl10.0
REMARK                            x       y       z     vdW  Elec       q    Type
REMARK                         _______ _______ _______ _____ _____    ______ ____
ROOT
ATOM      1  C   LIG    1       -8.169  -2.348   1.472  0.00  0.00    +0.310 A 
ATOM      2  N   LIG    1       -7.027  -1.735   1.449  0.00  0.00    -0.460 NA
ATOM      3  C   LIG    1       -6.997  -0.539   0.879  0.00  0.00    +0.120 A 
ATOM      4  C   LIG    1       -8.169  -0.108   0.380  0.00  0.00    -0.060 A 
ATOM      5  S   LIG    1       -9.386  -1.347   0.684  0.00  0.00    +0.120 S 
ENDROOT
BRANCH   3   6
ATOM      6  C   LIG    1       -5.755   0.267   0.792  0.00  0.00    +0.030 A 
ATOM      7  C   LIG    1       -4.564  -0.224   1.325  0.00  0.00    +0.050 A 
ATOM      8  C   LIG    1       -3.411   0.530   1.242  0.00  0.00    +0.120 A 
ATOM      9  C   LIG    1       -3.436   1.772   0.631  0.00  0.00    -0.660 A 
ATOM     10  C   LIG    1       -4.616   2.266   0.105  0.00  0.00    +0.130 A 
ATOM     11  C   LIG    1       -5.774   1.518   0.177  0.00  0.00    +0.020 A 
BRANCH   9  12
ATOM     12  S   LIG    1       -1.960   2.729   0.528  0.00  0.00    +2.500 S 
ATOM     13  O   LIG    1       -2.419   4.072   0.451  0.00  0.00    -0.940 OA
ATOM     14  O   LIG    1       -1.177   2.285   1.628  0.00  0.00    -0.940 OA
ATOM     15  C   LIG    1       -1.201   2.224  -1.040  0.00  0.00    -0.260 C 
ENDBRANCH   9  12
ENDBRANCH   3   6
BRANCH   1  16
ATOM     16  N   LIG    1       -8.397  -3.600   2.026  0.00  0.00    -0.510 N 
ATOM     17  C   LIG    1       -7.385  -4.276   2.604  0.00  0.00    +0.600 C 
ATOM     18  O   LIG    1       -6.297  -3.748   2.732  0.00  0.00    -0.450 OA
BRANCH  17  19
ATOM     19  C   LIG    1       -7.597  -5.662   3.086  0.00  0.00    -0.020 A 
ATOM     20  N   LIG    1       -8.668  -6.398   2.917  0.00  0.00    -0.330 NA
ATOM     21  O   LIG    1       -8.539  -7.487   3.426  0.00  0.00    +0.120 OA
ATOM     22  C   LIG    1       -7.343  -7.625   4.014  0.00  0.00    -0.020 A 
ATOM     23  C   LIG    1       -6.834  -8.841   4.745  0.00  0.00    +0.210 C 
ATOM     24  C   LIG    1       -6.678  -6.463   3.818  0.00  0.00    +0.000 A 
ENDBRANCH  17  19
BRANCH  16  25
ATOM     25  C   LIG    1       -9.739  -4.188   1.981  0.00  0.00    +0.330 C 
BRANCH  25  27
ATOM     26  C   LIG    1      -10.281  -6.176   0.671  0.00  0.00    +0.070 C 
ATOM     27  C   LIG    1       -9.925  -4.915   0.674  0.00  0.00    -0.090 C 
ENDBRANCH  25  27
ENDBRANCH  16  25
ENDBRANCH   1  16
TORSDOF 6
