REMARK  Name = ZINCqH0000034LDB.0
REMARK                            x       y       z     vdW  Elec       q    Type
REMARK                         _______ _______ _______ _____ _____    ______ ____
ROOT
ATOM      1  C   LIG    1       -0.526   0.675  -0.354  0.00  0.00    +0.020 A 
ATOM      2  C   LIG    1       -0.366   2.023  -0.299  0.00  0.00    +0.060 A 
ATOM      3  C   LIG    1        1.022   2.290  -0.223  0.00  0.00    -0.100 A 
ATOM      4  C   LIG    1        1.770   3.472  -0.145  0.00  0.00    +0.060 A 
ATOM      5  C   LIG    1        3.147   3.406  -0.081  0.00  0.00    +0.110 A 
ATOM      6  C   LIG    1        3.794   2.170  -0.092  0.00  0.00    +0.050 A 
ATOM      7  C   LIG    1        3.071   1.002  -0.168  0.00  0.00    +0.020 A 
ATOM      8  C   LIG    1        1.682   1.046  -0.234  0.00  0.00    +0.110 A 
ATOM      9  N   LIG    1        0.714   0.069  -0.315  0.00  0.00    -0.580 N 
ATOM     10  H   LIG    1        0.877  -0.887  -0.340  0.00  0.00    +0.420 HD
ENDROOT
BRANCH   1  14
ATOM     11  C   LIG    1       -3.132  -2.074  -0.576  0.00  0.00    +0.310 C 
ATOM     12  N   LIG    1       -1.847  -1.374  -0.489  0.00  0.00    -0.730 N 
ATOM     13  H   LIG    1       -1.020  -1.880  -0.467  0.00  0.00    +0.400 HD
ATOM     14  C   LIG    1       -1.816  -0.028  -0.441  0.00  0.00    +0.580 C 
ATOM     15  O   LIG    1       -2.853   0.607  -0.469  0.00  0.00    -0.520 OA
ENDBRANCH   1  14
BRANCH   5  16
ATOM     16  N   LIG    1        3.898   4.585  -0.004  0.00  0.00    -1.050 N 
ATOM     17  H   LIG    1        3.632   5.290   0.606  0.00  0.00    +0.430 HD
BRANCH  16  18
ATOM     18  S   LIG    1        5.241   4.774  -0.955  0.00  0.00    +2.700 S 
ATOM     19  O   LIG    1        6.032   3.609  -0.769  0.00  0.00    -0.950 OA
ATOM     20  O   LIG    1        5.723   6.088  -0.710  0.00  0.00    -0.940 OA
BRANCH  18  21
ATOM     21  C   LIG    1        4.701   4.747  -2.632  0.00  0.00    -0.660 A 
ATOM     22  C   LIG    1        5.084   3.712  -3.464  0.00  0.00    +0.140 A 
ATOM     23  C   LIG    1        4.660   3.689  -4.779  0.00  0.00    -0.080 A 
ATOM     24  C   LIG    1        3.852   4.703  -5.263  0.00  0.00    -0.040 A 
ATOM     25  C   LIG    1        3.469   5.738  -4.429  0.00  0.00    +0.030 A 
ATOM     26 BR   LIG    1        3.272   4.673  -7.063  0.00  0.00    -0.030 Br
ATOM     27  C   LIG    1        5.077   2.561  -5.687  0.00  0.00    +0.110 C 
ATOM     28  C   LIG    1        3.889   5.757  -3.113  0.00  0.00    +0.020 A 
ATOM     29  C   LIG    1        3.467   6.882  -2.204  0.00  0.00    +0.120 C 
ENDBRANCH  18  21
ENDBRANCH  16  18
ENDBRANCH   5  16
TORSDOF 4
