REMARK  Name = ZINCrD00000lbNmI.0
REMARK                            x       y       z     vdW  Elec       q    Type
REMARK                         _______ _______ _______ _____ _____    ______ ____
ROOT
ATOM      1  O   LIG    1        3.023  -1.836  -1.600  0.00  0.00    -0.520 OA
ATOM      2  C   LIG    1        3.121  -0.629  -1.529  0.00  0.00    +0.520 C 
ATOM      3  N   LIG    1        2.018   0.128  -1.367  0.00  0.00    -0.610 N 
ATOM      4  C   LIG    1        2.120   1.591  -1.279  0.00  0.00    +0.260 C 
ATOM      5  C   LIG    1        1.417   2.058  -0.000  0.00  0.00    +0.030 C 
ATOM      6  C   LIG    1       -0.019   1.526   0.010  0.00  0.00    +0.040 C 
ATOM      7  C   LIG    1        0.002  -0.004   0.002  0.00  0.00    +0.090 C 
ATOM      8  C   LIG    1        0.690  -0.494  -1.276  0.00  0.00    +0.280 C 
ENDROOT
BRANCH   7   9
ATOM      9  C   LIG    1       -1.411  -0.526   0.046  0.00  0.00    +0.290 A 
ATOM     10  N   LIG    1       -2.042  -0.877   1.128  0.00  0.00    -0.490 NA
ATOM     11  C   LIG    1       -3.293  -1.300   0.810  0.00  0.00    +0.050 A 
ATOM     12  C   LIG    1       -4.369  -1.777   1.563  0.00  0.00    +0.070 A 
ATOM     13  C   LIG    1       -5.531  -2.133   0.939  0.00  0.00    +0.000 A 
ATOM     14  C   LIG    1       -5.656  -2.027  -0.439  0.00  0.00    +0.030 A 
ATOM     15  C   LIG    1       -4.607  -1.560  -1.202  0.00  0.00    +0.010 A 
ATOM     16  C   LIG    1       -3.419  -1.193  -0.585  0.00  0.00    +0.050 A 
ATOM     17  N   LIG    1       -2.214  -0.695  -1.039  0.00  0.00    -0.600 N 
ATOM     18  H   LIG    1       -1.982  -0.503  -1.961  0.00  0.00    +0.420 HD
ENDBRANCH   7   9
BRANCH   2  19
ATOM     19  C   LIG    1        4.476   0.023  -1.620  0.00  0.00    +0.120 C 
BRANCH  19  20
ATOM     20  C   LIG    1        5.533  -1.036  -1.798  0.00  0.00    -0.080 A 
ATOM     21  C   LIG    1        6.138  -1.595  -0.682  0.00  0.00    +0.050 A 
ATOM     22  C   LIG    1        7.105  -2.568  -0.825  0.00  0.00    +0.010 A 
ATOM     23  C   LIG    1        7.479  -2.984  -2.095  0.00  0.00    +0.050 A 
ATOM     24  N   LIG    1        8.387  -3.905  -2.577  0.00  0.00    -0.600 N 
ATOM     25  H   LIG    1        8.971  -4.469  -2.045  0.00  0.00    +0.420 HD
ATOM     26  C   LIG    1        8.313  -3.875  -3.935  0.00  0.00    +0.480 A 
ATOM     27  N   LIG    1        7.425  -3.003  -4.315  0.00  0.00    -0.500 NA
ATOM     28  C   LIG    1        6.869  -2.413  -3.225  0.00  0.00    +0.050 A 
ATOM     29  C   LIG    1        5.889  -1.432  -3.056  0.00  0.00    +0.080 A 
ENDBRANCH  19  20
ENDBRANCH   2  19
TORSDOF 3
