REMARK  Name = ZINCrD00000lbNmI.1
REMARK                            x       y       z     vdW  Elec       q    Type
REMARK                         _______ _______ _______ _____ _____    ______ ____
ROOT
ATOM      1  O   LIG    1        1.153   3.295   2.351  0.00  0.00    -0.520 OA
ATOM      2  C   LIG    1        1.122   4.087   1.434  0.00  0.00    +0.520 C 
ATOM      3  N   LIG    1        1.085   5.410   1.687  0.00  0.00    -0.610 N 
ATOM      4  C   LIG    1        1.047   6.383   0.586  0.00  0.00    +0.260 C 
ATOM      5  C   LIG    1        2.187   7.388   0.776  0.00  0.00    +0.030 C 
ATOM      6  C   LIG    1        2.084   8.012   2.170  0.00  0.00    +0.040 C 
ATOM      7  C   LIG    1        2.223   6.919   3.231  0.00  0.00    +0.090 C 
ATOM      8  C   LIG    1        1.077   5.908   3.069  0.00  0.00    +0.290 C 
ENDROOT
BRANCH   7   9
ATOM      9  C   LIG    1        2.155   7.539   4.603  0.00  0.00    +0.290 A 
ATOM     10  N   LIG    1        3.187   7.890   5.314  0.00  0.00    -0.490 NA
ATOM     11  C   LIG    1        2.770   8.414   6.496  0.00  0.00    +0.050 A 
ATOM     12  C   LIG    1        3.436   8.936   7.607  0.00  0.00    +0.070 A 
ATOM     13  C   LIG    1        2.720   9.400   8.674  0.00  0.00    +0.000 A 
ATOM     14  C   LIG    1        1.334   9.359   8.668  0.00  0.00    +0.030 A 
ATOM     15  C   LIG    1        0.655   8.847   7.582  0.00  0.00    +0.010 A 
ATOM     16  C   LIG    1        1.365   8.371   6.489  0.00  0.00    +0.050 A 
ATOM     17  N   LIG    1        1.006   7.818   5.276  0.00  0.00    -0.600 N 
ATOM     18  H   LIG    1        0.102   7.657   4.963  0.00  0.00    +0.420 HD
ENDBRANCH   7   9
BRANCH   2  19
ATOM     19  C   LIG    1        1.123   3.592   0.010  0.00  0.00    +0.120 C 
BRANCH  19  20
ATOM     20  C   LIG    1        1.167   2.086   0.002  0.00  0.00    -0.050 A 
ATOM     21  C   LIG    1       -0.017   1.362   0.009  0.00  0.00    +0.020 A 
ATOM     22  C   LIG    1        0.002  -0.004   0.002  0.00  0.00    +0.070 A 
ATOM     23  C   LIG    1        1.223  -0.684  -0.013  0.00  0.00    +0.050 A 
ATOM     24  N   LIG    1        1.562  -1.998  -0.024  0.00  0.00    -0.500 NA
ATOM     25  C   LIG    1        2.858  -2.115  -0.037  0.00  0.00    +0.480 A 
ATOM     26  N   LIG    1        3.439  -0.885  -0.036  0.00  0.00    -0.600 N 
ATOM     27  H   LIG    1        4.391  -0.698  -0.044  0.00  0.00    +0.420 HD
ATOM     28  C   LIG    1        2.422   0.049  -0.021  0.00  0.00    +0.050 A 
ATOM     29  C   LIG    1        2.383   1.437  -0.013  0.00  0.00    +0.020 A 
ENDBRANCH  19  20
ENDBRANCH   2  19
TORSDOF 3
