REMARK  Name = ZINCpk00000xIcsf.0
REMARK                            x       y       z     vdW  Elec       q    Type
REMARK                         _______ _______ _______ _____ _____    ______ ____
ROOT
ATOM      1  C   LIG    1        2.347   0.673  -0.528  0.00  0.00    +0.030 C 
ATOM      2  C   LIG    1        1.137  -0.168  -0.950  0.00  0.00    +0.100 C 
ATOM      3  C   LIG    1       -0.052   0.163  -0.008  0.00  0.00    -0.280 C 
ATOM      4  S   LIG    1        0.104   1.990   0.140  0.00  0.00    +2.390 S 
ATOM      5  O   LIG    1       -0.345   2.405   1.423  0.00  0.00    -0.920 OA
ATOM      6  O   LIG    1       -0.406   2.610  -1.032  0.00  0.00    -0.910 OA
ATOM      7  C   LIG    1        1.928   2.001   0.096  0.00  0.00    -0.570 C 
ATOM      8  C   LIG    1        2.605   2.374   1.414  0.00  0.00    +0.360 C 
ATOM      9  N   LIG    1        3.550   3.149   0.582  0.00  0.00    -0.640 N 
ATOM     10  C   LIG    1        4.815   3.582   0.748  0.00  0.00    +0.540 C 
ATOM     11  O   LIG    1        5.359   4.217  -0.130  0.00  0.00    -0.530 OA
ATOM     12  C   LIG    1        2.553   3.260  -0.504  0.00  0.00    +0.360 C 
ENDROOT
BRANCH   1  15
ATOM     13  C   LIG    1        5.374   1.148  -2.820  0.00  0.00    +0.290 C 
ATOM     14  N   LIG    1        4.533   0.767  -1.683  0.00  0.00    -0.610 N 
ATOM     15  C   LIG    1        3.199   0.950  -1.740  0.00  0.00    +0.530 C 
ATOM     16  O   LIG    1        2.684   1.337  -2.768  0.00  0.00    -0.520 OA
ATOM     17  C   LIG    1        5.142   0.188  -0.483  0.00  0.00    +0.280 C 
ENDBRANCH   1  15
BRANCH  10  18
ATOM     18  C   LIG    1        5.555   3.277   2.025  0.00  0.00    +0.040 C 
BRANCH  18  19
ATOM     19  C   LIG    1        6.960   3.877   1.957  0.00  0.00    +0.040 C 
BRANCH  19  20
ATOM     20  C   LIG    1        7.711   3.567   3.253  0.00  0.00    +0.010 C 
BRANCH  20  21
ATOM     21  C   LIG    1        9.117   4.168   3.185  0.00  0.00    -0.020 C 
ATOM     22  C   LIG    1        9.950   3.442   2.109  0.00  0.00    +0.010 C 
ATOM     23  C   LIG    1       11.375   3.374   2.714  0.00  0.00    +0.000 C 
ATOM     24  C   LIG    1       11.097   3.109   4.215  0.00  0.00    -0.010 C 
ATOM     25  C   LIG    1        9.845   3.957   4.524  0.00  0.00    +0.000 C 
ENDBRANCH  20  21
ENDBRANCH  19  20
ENDBRANCH  18  19
ENDBRANCH  10  18
TORSDOF 5
