REMARK  Name = ZINCrD00000hQ6Dc.0
REMARK                            x       y       z     vdW  Elec       q    Type
REMARK                         _______ _______ _______ _____ _____    ______ ____
ROOT
ATOM      1  C   LIG    1       -1.305   6.701  -2.349  0.00  0.00    +0.340 C 
ATOM      2  C   LIG    1       -0.838   7.123  -3.758  0.00  0.00    +0.060 C 
ATOM      3  C   LIG    1        0.601   6.548  -3.833  0.00  0.00    +0.040 C 
ATOM      4  C   LIG    1        1.087   6.739  -2.373  0.00  0.00    +0.280 C 
ATOM      5  N   LIG    1       -0.099   6.458  -1.544  0.00  0.00    -0.990 NA
ENDROOT
BRANCH   1   8
ATOM      6  C   LIG    1       -4.379   6.709  -1.932  0.00  0.00    +0.320 C 
ATOM      7  N   LIG    1       -3.464   7.789  -1.554  0.00  0.00    -0.440 N 
ATOM      8  C   LIG    1       -2.122   7.804  -1.728  0.00  0.00    +0.180 A 
ATOM      9  N   LIG    1       -1.652   8.937  -1.273  0.00  0.00    -0.460 NA
ATOM     10  C   LIG    1       -2.662   9.670  -0.796  0.00  0.00    +0.010 A 
ATOM     11  C   LIG    1       -2.600  11.044  -0.176  0.00  0.00    +0.120 C 
ATOM     12  C   LIG    1       -4.015  11.636  -0.171  0.00  0.00    +0.010 C 
ATOM     13  C   LIG    1       -4.993  10.621   0.427  0.00  0.00    +0.030 C 
ATOM     14  C   LIG    1       -5.168   9.447  -0.545  0.00  0.00    +0.110 C 
ATOM     15  C   LIG    1       -3.802   8.966  -0.959  0.00  0.00    -0.020 A 
ENDBRANCH   1   8
BRANCH   5  16
ATOM     16  S   LIG    1       -0.077   5.960   0.035  0.00  0.00    +2.700 S 
ATOM     17  O   LIG    1        1.173   6.374   0.570  0.00  0.00    -0.940 OA
ATOM     18  O   LIG    1       -1.326   6.342   0.594  0.00  0.00    -0.930 OA
BRANCH  16  19
ATOM     19  C   LIG    1       -0.055   4.198   0.026  0.00  0.00    -0.650 A 
ATOM     20  C   LIG    1        1.154   3.525   0.010  0.00  0.00    +0.150 A 
ATOM     21  C   LIG    1        1.180   2.146   0.002  0.00  0.00    +0.080 A 
ATOM     22  C   LIG    1       -0.017   1.428   0.010  0.00  0.00    +0.040 A 
ATOM     23  C   LIG    1       -1.235   2.114   0.019  0.00  0.00    -0.020 A 
ATOM     24 CL   LIG    1       -2.731   1.232   0.021  0.00  0.00    -0.030 Cl
ATOM     25  C   LIG    1       -1.246   3.494   0.033  0.00  0.00    +0.150 A 
BRANCH  22  26
ATOM     26  C   LIG    1        0.002  -0.004   0.002  0.00  0.00    +0.240 C 
ATOM     27  N   LIG    1        0.018  -1.140  -0.004  0.00  0.00    -0.370 NA
ENDBRANCH  22  26
ENDBRANCH  16  19
ENDBRANCH   5  16
TORSDOF 4
