REMARK  Name = ZINCrH000004rjPW.0
REMARK                            x       y       z     vdW  Elec       q    Type
REMARK                         _______ _______ _______ _____ _____    ______ ____
ROOT
ATOM      1  N   LIG    1        1.776   4.160   0.975  0.00  0.00    -0.540 N 
ATOM      2  C   LIG    1        2.810   4.861   0.468  0.00  0.00    +0.530 C 
ATOM      3  O   LIG    1        3.750   5.152   1.176  0.00  0.00    -0.490 OA
ENDROOT
BRANCH   2   4
ATOM      4  C   LIG    1        2.797   5.283  -0.979  0.00  0.00    +0.000 C 
ATOM      5  C   LIG    1        3.013   4.057  -1.869  0.00  0.00    -0.020 C 
ATOM      6  C   LIG    1        4.362   3.416  -1.537  0.00  0.00    +0.020 C 
ATOM      7  C   LIG    1        5.482   4.429  -1.783  0.00  0.00    -0.010 C 
ATOM      8  C   LIG    1        5.469   4.857  -3.252  0.00  0.00    +0.010 C 
ATOM      9  C   LIG    1        4.120   5.498  -3.584  0.00  0.00    -0.020 C 
ATOM     10  C   LIG    1        3.905   6.723  -2.694  0.00  0.00    +0.020 C 
ATOM     11  C   LIG    1        5.266   5.654  -0.892  0.00  0.00    +0.030 C 
ATOM     12  C   LIG    1        3.000   4.485  -3.338  0.00  0.00    +0.030 C 
ATOM     13  C   LIG    1        3.917   6.295  -1.225  0.00  0.00    +0.020 C 
ENDBRANCH   2   4
BRANCH   1  18
ATOM     14  C   LIG    1        1.568   3.029   6.530  0.00  0.00    +0.100 C 
ATOM     15  C   LIG    1        1.623   3.329   5.054  0.00  0.00    -0.100 A 
ATOM     16  C   LIG    1        2.591   4.184   4.560  0.00  0.00    +0.040 A 
ATOM     17  C   LIG    1        2.645   4.461   3.208  0.00  0.00    +0.030 A 
ATOM     18  C   LIG    1        1.725   3.881   2.345  0.00  0.00    +0.140 A 
ATOM     19  C   LIG    1        0.750   3.027   2.845  0.00  0.00    -0.060 A 
ATOM     20  C   LIG    1        0.706   2.750   4.197  0.00  0.00    +0.040 A 
ENDBRANCH   1  18
BRANCH   1  21
ATOM     21  C   LIG    1        0.707   3.690   0.091  0.00  0.00    +0.290 C 
ATOM     22  C   LIG    1        0.706   2.194   0.063  0.00  0.00    +0.080 C 
ATOM     23  C   LIG    1       -0.432   1.560   0.092  0.00  0.00    -0.450 C 
ATOM     24  S   LIG    1       -1.725   2.778   0.162  0.00  0.00    +2.440 S 
ATOM     25  O   LIG    1       -2.559   2.387   1.244  0.00  0.00    -0.920 OA
ATOM     26  O   LIG    1       -2.217   2.890  -1.166  0.00  0.00    -0.920 OA
ATOM     27  C   LIG    1       -0.657   4.206   0.615  0.00  0.00    -0.290 C 
ENDBRANCH   1  21
TORSDOF 3
