REMARK  Name = ZINCvU0000000E8q.0
REMARK                            x       y       z     vdW  Elec       q    Type
REMARK                         _______ _______ _______ _____ _____    ______ ____
ROOT
ATOM      1  C   LIG    1        1.104   2.066  -0.229  0.00  0.00    -0.120 A 
ATOM      2  C   LIG    1       -0.043   1.271  -0.267  0.00  0.00    +0.040 A 
ATOM      3  C   LIG    1        0.056  -0.087  -0.045  0.00  0.00    +0.010 A 
ATOM      4  C   LIG    1        1.287  -0.662   0.215  0.00  0.00    +0.040 A 
ATOM      5  C   LIG    1        2.428   0.121   0.254  0.00  0.00    +0.030 A 
ATOM      6  C   LIG    1        2.344   1.480   0.034  0.00  0.00    -0.030 A 
ENDROOT
BRANCH   1   8
ATOM      7  O   LIG    1        2.016   4.194  -0.541  0.00  0.00    -0.510 OA
ATOM      8  C   LIG    1        1.006   3.522  -0.466  0.00  0.00    +0.550 C 
ATOM      9  N   LIG    1       -0.202   4.103  -0.599  0.00  0.00    -0.730 N 
ATOM     10  H   LIG    1       -1.008   3.567  -0.539  0.00  0.00    +0.400 HD
BRANCH   9  11
ATOM     11  C   LIG    1       -0.299   5.546  -0.834  0.00  0.00    +0.260 C 
BRANCH  11  12
ATOM     12  C   LIG    1       -1.771   5.947  -0.947  0.00  0.00    -0.010 C 
BRANCH  12  13
ATOM     13  C   LIG    1       -1.872   7.454  -1.192  0.00  0.00    +0.290 C 
BRANCH  13  14
ATOM     14  N   LIG    1       -3.282   7.838  -1.300  0.00  0.00    -0.610 N 
ATOM     15  C   LIG    1       -3.942   7.832  -2.615  0.00  0.00    +0.280 C 
ATOM     16  C   LIG    1       -4.918   6.648  -2.662  0.00  0.00    +0.010 C 
ATOM     17  C   LIG    1       -6.267   7.038  -2.087  0.00  0.00    +0.020 C 
ATOM     18  C   LIG    1       -6.238   7.329  -0.597  0.00  0.00    +0.030 C 
ATOM     19  C   LIG    1       -5.416   8.586  -0.306  0.00  0.00    +0.050 C 
ATOM     20  C   LIG    1       -3.957   8.195  -0.206  0.00  0.00    +0.520 C 
ATOM     21  O   LIG    1       -3.400   8.205   0.871  0.00  0.00    -0.540 OA
ENDBRANCH  13  14
ENDBRANCH  12  13
ENDBRANCH  11  12
ENDBRANCH   9  11
ENDBRANCH   1   8
BRANCH   6  22
ATOM     22  C   LIG    1        3.587   2.330   0.077  0.00  0.00    +0.160 C 
BRANCH  22  23
ATOM     23  S   LIG    1        4.207   2.578  -1.606  0.00  0.00    +0.040 S 
BRANCH  23  24
ATOM     24  C   LIG    1        5.620   3.574  -1.268  0.00  0.00    +0.100 A 
ATOM     25  N   LIG    1        5.989   3.954  -0.091  0.00  0.00    -0.470 NA
ATOM     26  C   LIG    1        7.099   4.712   0.006  0.00  0.00    +0.090 A 
ATOM     27  C   LIG    1        7.705   5.245   1.164  0.00  0.00    +0.060 A 
ATOM     28  C   LIG    1        8.841   6.008   1.065  0.00  0.00    +0.040 A 
ATOM     29  C   LIG    1        9.411   6.269  -0.172  0.00  0.00    +0.040 A 
ATOM     30  C   LIG    1        8.837   5.759  -1.316  0.00  0.00    +0.060 A 
ATOM     31  C   LIG    1        7.684   4.982  -1.234  0.00  0.00    -0.180 A 
ATOM     32  S   LIG    1        6.723   4.199  -2.486  0.00  0.00    +0.090 S 
ENDBRANCH  23  24
ENDBRANCH  22  23
ENDBRANCH   6  22
TORSDOF 8
