REMARK  Name = ZINCrD000000ArKw.0
REMARK                            x       y       z     vdW  Elec       q    Type
REMARK                         _______ _______ _______ _____ _____    ______ ____
ROOT
ATOM      1  N   LIG    1        1.030  10.266   0.044  0.00  0.00    -0.520 N 
ATOM      2  H   LIG    1        1.877   9.792   0.034  0.00  0.00    +0.430 HD
ATOM      3  C   LIG    1       -0.128   9.576   0.052  0.00  0.00    +0.570 C 
ATOM      4  O   LIG    1       -1.189  10.170   0.065  0.00  0.00    -0.530 OA
ENDROOT
BRANCH   3   5
ATOM      5  C   LIG    1       -0.108   8.099   0.044  0.00  0.00    -0.130 A 
ATOM      6  C   LIG    1       -1.308   7.384   0.051  0.00  0.00    +0.090 A 
ATOM      7  C   LIG    1       -1.288   6.007   0.044  0.00  0.00    +0.020 A 
ATOM      8  C   LIG    1       -0.070   5.327   0.029  0.00  0.00    -0.010 A 
ATOM      9  C   LIG    1        1.129   6.040   0.027  0.00  0.00    +0.020 A 
ATOM     10  C   LIG    1        1.111   7.417   0.029  0.00  0.00    +0.050 A 
BRANCH   8  11
ATOM     11  C   LIG    1       -0.050   3.844   0.022  0.00  0.00    -0.060 A 
ATOM     12  C   LIG    1        1.165   3.161   0.007  0.00  0.00    +0.030 A 
ATOM     13  C   LIG    1        1.177   1.781   0.000  0.00  0.00    +0.010 A 
ATOM     14  C   LIG    1       -0.013   1.076   0.008  0.00  0.00    +0.020 A 
ATOM     15  C   LIG    1       -1.221   1.748   0.017  0.00  0.00    +0.010 A 
ATOM     16  C   LIG    1       -1.246   3.128   0.030  0.00  0.00    +0.030 A 
ENDBRANCH   8  11
ENDBRANCH   3   5
BRANCH   1  19
ATOM     17  O   LIG    1        3.227  11.764   0.032  0.00  0.00    -0.510 OA
ATOM     18  C   LIG    1        2.169  12.357   0.045  0.00  0.00    +0.520 C 
ATOM     19  N   LIG    1        1.011  11.667   0.052  0.00  0.00    -0.520 N 
ATOM     20  H   LIG    1        0.165  12.140   0.063  0.00  0.00    +0.440 HD
BRANCH  18  21
ATOM     21  C   LIG    1        2.148  13.863   0.053  0.00  0.00    +0.250 C 
BRANCH  21  22
ATOM     22  O   LIG    1        3.489  14.358   0.043  0.00  0.00    -0.280 OA
BRANCH  22  23
ATOM     23  C   LIG    1        3.649  15.708   0.049  0.00  0.00    +0.090 A 
ATOM     24  C   LIG    1        2.539  16.539   0.064  0.00  0.00    -0.040 A 
ATOM     25  C   LIG    1        2.704  17.911   0.070  0.00  0.00    +0.050 A 
ATOM     26  C   LIG    1        3.974  18.457   0.060  0.00  0.00    +0.020 A 
ATOM     27  C   LIG    1        5.084  17.632   0.045  0.00  0.00    +0.030 A 
ATOM     28  C   LIG    1        4.925  16.258   0.045  0.00  0.00    +0.080 A 
ATOM     29  F   LIG    1        6.009  15.452   0.036  0.00  0.00    -0.130 F 
ENDBRANCH  22  23
ENDBRANCH  21  22
ENDBRANCH  18  21
ENDBRANCH   1  19
TORSDOF 6
