REMARK  Name = ZINCqH0000004Uop.0
REMARK                            x       y       z     vdW  Elec       q    Type
REMARK                         _______ _______ _______ _____ _____    ______ ____
ROOT
ATOM      1  N   LIG    1        5.160  -3.507  -0.366  0.00  0.00    -0.680 N 
ATOM      2  H   LIG    1        5.635  -4.110  -0.959  0.00  0.00    +0.410 HD
ATOM      3  C   LIG    1        5.806  -2.925   0.663  0.00  0.00    +0.590 C 
ATOM      4  O   LIG    1        5.234  -2.105   1.356  0.00  0.00    -0.510 OA
ENDROOT
BRANCH   3   5
ATOM      5  C   LIG    1        7.202  -3.281   0.949  0.00  0.00    -0.230 A 
ATOM      6  C   LIG    1        7.973  -4.176   0.266  0.00  0.00    +0.290 A 
ATOM      7  N   LIG    1        9.206  -4.237   0.823  0.00  0.00    -0.470 N 
ATOM      8  C   LIG    1        9.292  -3.378   1.900  0.00  0.00    +0.080 A 
ATOM      9  C   LIG    1       10.313  -3.070   2.792  0.00  0.00    -0.010 A 
ATOM     10  C   LIG    1       10.101  -2.135   3.782  0.00  0.00    +0.030 A 
ATOM     11  C   LIG    1        8.872  -1.504   3.908  0.00  0.00    -0.010 A 
ATOM     12  C   LIG    1        7.847  -1.800   3.036  0.00  0.00    +0.080 A 
ATOM     13  C   LIG    1       10.296  -5.095   0.349  0.00  0.00    +0.330 C 
ATOM     14  C   LIG    1        8.049  -2.736   2.026  0.00  0.00    -0.060 A 
ENDBRANCH   3   5
BRANCH   1  19
ATOM     15  C   LIG    1        1.940  -1.721  -0.530  0.00  0.00    +0.000 A 
ATOM     16  C   LIG    1        1.108  -2.733  -1.008  0.00  0.00    +0.000 A 
ATOM     17  C   LIG    1        1.624  -3.986  -1.268  0.00  0.00    +0.030 A 
ATOM     18  C   LIG    1        2.965  -4.244  -1.056  0.00  0.00    +0.000 A 
ATOM     19  C   LIG    1        3.803  -3.242  -0.579  0.00  0.00    +0.150 A 
ATOM     20  C   LIG    1        3.294  -1.978  -0.320  0.00  0.00    +0.080 A 
BRANCH  15  25
ATOM     21  N   LIG    1        0.205   0.131  -0.715  0.00  0.00    -0.470 N 
ATOM     22  C   LIG    1        0.116   1.389  -0.205  0.00  0.00    +0.380 A 
ATOM     23  N   LIG    1        1.187   1.598   0.513  0.00  0.00    -0.290 NA
ATOM     24  N   LIG    1        1.943   0.558   0.489  0.00  0.00    -0.270 NA
ATOM     25  C   LIG    1        1.389  -0.376  -0.251  0.00  0.00    +0.220 A 
BRANCH  21  27
ATOM     26  C   LIG    1       -1.755  -1.331  -0.723  0.00  0.00    +0.050 C 
ATOM     27  C   LIG    1       -0.765  -0.542  -1.582  0.00  0.00    +0.290 C 
ENDBRANCH  21  27
ENDBRANCH  15  25
ENDBRANCH   1  19
TORSDOF 4
