REMARK  Name = ZINCah0000002lYb.0
REMARK                            x       y       z     vdW  Elec       q    Type
REMARK                         _______ _______ _______ _____ _____    ______ ____
ROOT
ATOM      1  C   LIG    1        2.298  -0.066  -0.020  0.00  0.00    +0.110 A 
ATOM      2  N   LIG    1        1.130  -0.686  -0.012  0.00  0.00    -0.470 NA
ATOM      3  C   LIG    1        0.002  -0.004   0.002  0.00  0.00    +0.420 A 
ATOM      4  N   LIG    1       -0.016   1.314   0.009  0.00  0.00    -0.480 NA
ATOM      5  C   LIG    1        1.110   2.008   0.002  0.00  0.00    +0.230 A 
ATOM      6  C   LIG    1        2.324   1.327  -0.013  0.00  0.00    +0.120 A 
ENDROOT
BRANCH   1   8
ATOM      7  C   LIG    1        3.651  -1.742   1.209  0.00  0.00    +0.040 C 
ATOM      8  C   LIG    1        3.582  -0.855  -0.035  0.00  0.00    +0.040 C 
ATOM      9  C   LIG    1        3.628  -1.730  -1.289  0.00  0.00    +0.040 C 
ENDBRANCH   1   8
BRANCH   6  10
ATOM     10  N   LIG    1        3.537   2.021  -0.020  0.00  0.00    -0.860 N 
ATOM     11  H   LIG    1        3.540   2.991  -0.015  0.00  0.00    +0.400 HD
ATOM     12  H   LIG    1        4.375   1.534  -0.030  0.00  0.00    +0.400 HD
ENDBRANCH   6  10
TORSDOF 2
