REMARK  Name = ZINCah0000002BKc.0
REMARK                            x       y       z     vdW  Elec       q    Type
REMARK                         _______ _______ _______ _____ _____    ______ ____
ROOT
ATOM      1  C   LIG    1       -0.433   1.737  -2.523  0.00  0.00    +0.180 A 
ATOM      2  C   LIG    1       -1.363   2.259  -3.413  0.00  0.00    +0.170 A 
ATOM      3  N   LIG    1       -2.559   2.625  -2.997  0.00  0.00    -0.440 NA
ATOM      4  C   LIG    1       -2.920   2.513  -1.734  0.00  0.00    +0.200 A 
ATOM      5  C   LIG    1       -2.049   2.002  -0.787  0.00  0.00    -0.100 A 
ATOM      6  C   LIG    1       -2.214   1.773   0.698  0.00  0.00    +0.080 C 
ATOM      7  C   LIG    1       -0.777   1.605   1.245  0.00  0.00    +0.030 C 
ATOM      8  C   LIG    1       -0.013   1.086   0.008  0.00  0.00    +0.080 C 
ATOM      9  C   LIG    1       -0.784   1.606  -1.182  0.00  0.00    -0.140 A 
ENDROOT
BRANCH   1  10
ATOM     10  N   LIG    1        0.834   1.351  -2.967  0.00  0.00    -0.870 N 
ATOM     11  H   LIG    1        1.070   1.445  -3.903  0.00  0.00    +0.400 HD
ATOM     12  H   LIG    1        1.478   0.988  -2.338  0.00  0.00    +0.400 HD
ENDBRANCH   1  10
TORSDOF 1
