REMARK  Name = ZINCpe000027pGYF.0
REMARK                            x       y       z     vdW  Elec       q    Type
REMARK                         _______ _______ _______ _____ _____    ______ ____
ROOT
ATOM      1  N   LIG    1        0.503   4.059  -1.041  0.00  0.00    -0.530 NA
ATOM      2  C   LIG    1        1.284   3.537   0.089  0.00  0.00    +0.200 C 
ATOM      3  C   LIG    1        1.347   2.010   0.000  0.00  0.00    +0.200 C 
ATOM      4  N   LIG    1       -0.018   1.465   0.010  0.00  0.00    -0.520 NA
ATOM      5  C   LIG    1       -0.799   1.987  -1.120  0.00  0.00    +0.200 C 
ATOM      6  C   LIG    1       -0.862   3.514  -1.031  0.00  0.00    +0.180 C 
ENDROOT
BRANCH   1   7
ATOM      7  C   LIG    1        0.483   5.528  -1.033  0.00  0.00    +0.270 C 
ATOM      8  C   LIG    1        1.914   6.058  -1.139  0.00  0.00    +0.080 C 
BRANCH   7  13
ATOM      9  C   LIG    1       -2.737   8.029  -3.939  0.00  0.00    +0.210 C 
ATOM     10  C   LIG    1       -1.682   7.074  -3.443  0.00  0.00    +0.170 A 
ATOM     11  N   LIG    1       -1.043   6.196  -4.156  0.00  0.00    -0.390 NA
ATOM     12  O   LIG    1       -0.259   5.583  -3.462  0.00  0.00    +0.090 OA
ATOM     13  C   LIG    1       -0.326   6.026  -2.203  0.00  0.00    +0.190 A 
ATOM     14  N   LIG    1       -1.232   6.972  -2.179  0.00  0.00    -0.480 NA
ENDBRANCH   7  13
ENDBRANCH   1   7
BRANCH   4  15
ATOM     15  C   LIG    1        0.002  -0.004   0.002  0.00  0.00    +0.220 C 
BRANCH  15  16
ATOM     16  C   LIG    1       -1.388  -0.527   0.259  0.00  0.00    +0.520 C 
ATOM     17  N   LIG    1       -1.612  -1.855   0.297  0.00  0.00    -0.720 N 
ATOM     18  H   LIG    1       -0.879  -2.475   0.159  0.00  0.00    +0.410 HD
ATOM     19  O   LIG    1       -2.305   0.248   0.432  0.00  0.00    -0.500 OA
BRANCH  17  20
ATOM     20  C   LIG    1       -2.963  -2.363   0.547  0.00  0.00    +0.320 C 
ATOM     21  C   LIG    1       -3.908  -1.860  -0.546  0.00  0.00    +0.080 C 
BRANCH  20  22
ATOM     22  C   LIG    1       -2.942  -3.893   0.539  0.00  0.00    -0.050 C 
ATOM     23  C   LIG    1       -3.746  -4.604  -0.552  0.00  0.00    +0.050 C 
ATOM     24  C   LIG    1       -4.241  -4.619   0.896  0.00  0.00    +0.030 C 
ENDBRANCH  20  22
BRANCH  20  25
ATOM     25  C   LIG    1       -3.432  -1.886   1.858  0.00  0.00    +0.200 C 
ATOM     26  N   LIG    1       -3.794  -1.518   2.870  0.00  0.00    -0.410 NA
ENDBRANCH  20  25
ENDBRANCH  17  20
ENDBRANCH  15  16
ENDBRANCH   4  15
TORSDOF 7
