REMARK  Name = ZINCkj000018RBTr.0
REMARK                            x       y       z     vdW  Elec       q    Type
REMARK                         _______ _______ _______ _____ _____    ______ ____
ROOT
ATOM      1  C   LIG    1        0.059  -4.189  -0.022  0.00  0.00    +0.360 C 
ENDROOT
BRANCH   1   2
ATOM      2  C   LIG    1        0.038  -2.682  -0.014  0.00  0.00    -0.310 A 
ATOM      3  C   LIG    1       -1.164  -1.990   0.002  0.00  0.00    +0.380 A 
ATOM      4  N   LIG    1       -1.148  -0.669   0.009  0.00  0.00    -0.510 NA
ATOM      5  C   LIG    1        0.002  -0.004   0.002  0.00  0.00    +0.450 A 
ATOM      6  N   LIG    1        1.170  -0.637  -0.018  0.00  0.00    -0.500 NA
ATOM      7  C   LIG    1        1.222  -1.958  -0.021  0.00  0.00    +0.380 A 
BRANCH   5   8
ATOM      8  C   LIG    1       -0.018   1.471   0.010  0.00  0.00    -0.210 A 
ATOM      9  C   LIG    1        1.073   2.265   0.004  0.00  0.00    +0.100 A 
ATOM     10  C   LIG    1        0.802   3.616   0.013  0.00  0.00    +0.000 A 
ATOM     11  C   LIG    1       -0.497   3.934   0.027  0.00  0.00    +0.000 A 
ATOM     12  S   LIG    1       -1.468   2.467   0.022  0.00  0.00    +0.200 S 
ENDBRANCH   5   8
ENDBRANCH   1   2
BRANCH   1  13
ATOM     13  N   LIG    1        0.052  -4.671  -1.409  0.00  0.00    -0.510 N 
ATOM     14  H   LIG    1        0.866  -4.321  -1.891  0.00  0.00    +0.430 HD
ATOM     15  H   LIG    1       -0.781  -4.344  -1.875  0.00  0.00    +0.430 HD
BRANCH  13  20
ATOM     16  C   LIG    1        0.143  -6.673  -2.866  0.00  0.00    -0.010 C 
ATOM     17  C   LIG    1       -1.156  -7.494  -3.029  0.00  0.00    +0.250 C 
ATOM     18  O   LIG    1       -1.524  -7.870  -1.684  0.00  0.00    -0.340 OA
ATOM     19  C   LIG    1       -1.260  -6.702  -0.873  0.00  0.00    +0.240 C 
ATOM     20  C   LIG    1        0.072  -6.140  -1.418  0.00  0.00    +0.170 C 
BRANCH  16  21
ATOM     21  C   LIG    1        0.171  -5.512  -3.863  0.00  0.00    +0.170 C 
BRANCH  21  22
ATOM     22  O   LIG    1        0.354  -6.024  -5.185  0.00  0.00    -0.550 OA
ATOM     23  H   LIG    1        0.382  -5.343  -5.870  0.00  0.00    +0.400 HD
ENDBRANCH  21  22
ENDBRANCH  16  21
ENDBRANCH  13  20
ENDBRANCH   1  13
TORSDOF 6
