REMARK  Name = ZINCnE000001HeCd.0
REMARK                            x       y       z     vdW  Elec       q    Type
REMARK                         _______ _______ _______ _____ _____    ______ ____
ROOT
ATOM      1  C   LIG    1        4.485  -0.327  -1.273  0.00  0.00    +0.070 A 
ATOM      2  N   LIG    1        4.878   0.870  -1.596  0.00  0.00    -0.250 NA
ATOM      3  N   LIG    1        5.511   0.828  -2.715  0.00  0.00    -0.430 NA
ATOM      4  C   LIG    1        5.544  -0.408  -3.148  0.00  0.00    +0.490 A 
ATOM      5  O   LIG    1        4.900  -1.166  -2.242  0.00  0.00    -0.250 OA
ENDROOT
BRANCH   1   6
ATOM      6  C   LIG    1        3.711  -0.707  -0.037  0.00  0.00    +0.170 C 
BRANCH   6   7
ATOM      7  C   LIG    1        2.396   0.029  -0.021  0.00  0.00    -0.070 A 
ATOM      8  C   LIG    1        1.208  -0.679  -0.013  0.00  0.00    +0.010 A 
ATOM      9  C   LIG    1        0.002  -0.004   0.002  0.00  0.00    -0.010 A 
ATOM     10  C   LIG    1       -0.017   1.378   0.010  0.00  0.00    +0.000 A 
ATOM     11  C   LIG    1        1.171   2.086   0.002  0.00  0.00    +0.000 A 
ATOM     12  C   LIG    1        2.377   1.411  -0.015  0.00  0.00    +0.050 A 
ENDBRANCH   6   7
BRANCH   6  14
ATOM     13  C   LIG    1        3.793  -0.830   2.457  0.00  0.00    +0.020 C 
ATOM     14  C   LIG    1        4.520  -0.332   1.207  0.00  0.00    +0.040 C 
ENDBRANCH   6  14
ENDBRANCH   1   6
BRANCH   4  15
ATOM     15  N   LIG    1        6.136  -0.852  -4.316  0.00  0.00    -1.060 NA
BRANCH  15  16
ATOM     16  S   LIG    1        6.898   0.223  -5.319  0.00  0.00    +2.680 S 
ATOM     17  O   LIG    1        8.030   0.704  -4.607  0.00  0.00    -1.010 OA
ATOM     18  O   LIG    1        5.885   1.076  -5.836  0.00  0.00    -1.000 OA
BRANCH  16  19
ATOM     19  C   LIG    1        7.523  -0.693  -6.688  0.00  0.00    -0.640 A 
ATOM     20  C   LIG    1        8.744  -1.229  -6.695  0.00  0.00    +0.090 A 
ATOM     21  S   LIG    1        9.013  -2.065  -8.219  0.00  0.00    +0.100 S 
ATOM     22  C   LIG    1        7.407  -1.619  -8.781  0.00  0.00    -0.060 A 
ATOM     23  C   LIG    1        6.786  -0.906  -7.840  0.00  0.00    +0.090 A 
ENDBRANCH  16  19
ENDBRANCH  15  16
ENDBRANCH   4  15
TORSDOF 6
