REMARK  Name = ZINCrg00001JduUM.0
REMARK                            x       y       z     vdW  Elec       q    Type
REMARK                         _______ _______ _______ _____ _____    ______ ____
ROOT
ATOM      1  C   LIG    1        1.034   3.909  -1.169  0.00  0.00    +0.190 C 
ENDROOT
BRANCH   1   2
ATOM      2  N   LIG    1        1.466   5.314  -1.166  0.00  0.00    -0.520 NA
ATOM      3  C   LIG    1        2.905   5.423  -1.442  0.00  0.00    +0.190 C 
BRANCH   2   4
ATOM      4  C   LIG    1        0.684   6.107  -2.124  0.00  0.00    +0.220 C 
BRANCH   4   6
ATOM      5  N   LIG    1        0.370   8.493  -2.694  0.00  0.00    -0.620 N 
ATOM      6  C   LIG    1        0.978   7.571  -1.922  0.00  0.00    +0.520 C 
ATOM      7  O   LIG    1        1.762   7.919  -1.064  0.00  0.00    -0.500 OA
BRANCH   5   9
ATOM      8  C   LIG    1       -1.986   8.011  -3.139  0.00  0.00    +0.020 C 
ATOM      9  C   LIG    1       -0.576   8.072  -3.730  0.00  0.00    +0.280 C 
ENDBRANCH   5   9
BRANCH   5  10
ATOM     10  C   LIG    1        0.656   9.916  -2.498  0.00  0.00    +0.330 C 
BRANCH  10  11
ATOM     11  C   LIG    1        1.836  10.327  -3.381  0.00  0.00    +0.430 C 
ATOM     12  F   LIG    1        2.962   9.573  -3.035  0.00  0.00    -0.170 F 
ATOM     13  F   LIG    1        2.109  11.686  -3.194  0.00  0.00    -0.180 F 
ATOM     14  F   LIG    1        1.515  10.096  -4.724  0.00  0.00    -0.180 F 
ENDBRANCH  10  11
ENDBRANCH   5  10
ENDBRANCH   4   6
ENDBRANCH   2   4
ENDBRANCH   1   2
BRANCH   1  15
ATOM     15  C   LIG    1        1.687   3.173   0.003  0.00  0.00    +0.140 C 
BRANCH  15  16
ATOM     16  C   LIG    1        1.244   1.732  -0.001  0.00  0.00    -0.010 A 
ATOM     17  C   LIG    1        2.043   0.640  -0.014  0.00  0.00    +0.150 A 
ATOM     18  N   LIG    1        1.216  -0.432  -0.012  0.00  0.00    -0.290 N 
ATOM     19  N   LIG    1        0.002  -0.004   0.002  0.00  0.00    -0.080 NA
ATOM     20  N   LIG    1       -0.015   1.282   0.009  0.00  0.00    -0.250 NA
BRANCH  18  21
ATOM     21  C   LIG    1        1.631  -1.836  -0.023  0.00  0.00    +0.340 C 
BRANCH  21  22
ATOM     22  C   LIG    1        0.994  -2.566   1.161  0.00  0.00    +0.220 C 
BRANCH  22  23
ATOM     23  C   LIG    1        1.325  -4.057   1.080  0.00  0.00    +0.430 C 
ATOM     24  F   LIG    1        0.824  -4.582  -0.116  0.00  0.00    -0.170 F 
ATOM     25  F   LIG    1        0.742  -4.724   2.163  0.00  0.00    -0.160 F 
ATOM     26  F   LIG    1        2.713  -4.229   1.120  0.00  0.00    -0.180 F 
ENDBRANCH  22  23
BRANCH  22  27
ATOM     27  O   LIG    1        1.506  -2.030   2.383  0.00  0.00    -0.520 OA
ATOM     28  H   LIG    1        2.464  -2.114   2.478  0.00  0.00    +0.390 HD
ENDBRANCH  22  27
ENDBRANCH  21  22
ENDBRANCH  18  21
ENDBRANCH  15  16
ENDBRANCH   1  15
TORSDOF 12
