REMARK  Name = ZINCqH0000007uUg.0
REMARK                            x       y       z     vdW  Elec       q    Type
REMARK                         _______ _______ _______ _____ _____    ______ ____
ROOT
ATOM      1  S   LIG    1        0.404  -3.409   0.108  0.00  0.00    +2.700 S 
ATOM      2  O   LIG    1       -0.081  -2.835  -1.098  0.00  0.00    -0.930 OA
ATOM      3  O   LIG    1       -0.408  -4.177   0.985  0.00  0.00    -0.940 OA
ENDROOT
BRANCH   1   9
ATOM      4  C   LIG    1        2.709  -3.981  -1.247  0.00  0.00    +0.270 A 
ATOM      5  C   LIG    1        3.777  -4.794  -1.599  0.00  0.00    -0.060 A 
ATOM      6  C   LIG    1        3.895  -6.055  -1.048  0.00  0.00    +0.210 A 
ATOM      7  C   LIG    1        2.950  -6.508  -0.147  0.00  0.00    -0.100 A 
ATOM      8  C   LIG    1        1.887  -5.698   0.211  0.00  0.00    +0.260 A 
ATOM      9  C   LIG    1        1.762  -4.438  -0.342  0.00  0.00    -0.720 A 
BRANCH   7  10
ATOM     10  N   LIG    1        3.078  -7.860   0.442  0.00  0.00    +0.030 N 
ATOM     11  O   LIG    1        2.245  -8.260   1.236  0.00  0.00    -0.150 OA
ATOM     12  O   LIG    1        4.016  -8.573   0.132  0.00  0.00    -0.150 OA
ENDBRANCH   7  10
BRANCH   4  14
ATOM     13  C   LIG    1        3.603  -2.336  -2.712  0.00  0.00    +0.280 C 
ATOM     14  O   LIG    1        2.591  -2.740  -1.788  0.00  0.00    -0.300 OA
ENDBRANCH   4  14
ENDBRANCH   1   9
BRANCH   1  15
ATOM     15  N   LIG    1        1.013  -2.160   1.008  0.00  0.00    -1.110 NA
ATOM     16  H   LIG    1        0.799  -2.093   1.952  0.00  0.00    +0.430 HD
BRANCH  15  17
ATOM     17  C   LIG    1        1.875  -1.156   0.380  0.00  0.00    +0.320 C 
ATOM     18  C   LIG    1        3.294  -1.350   0.883  0.00  0.00    +0.030 C 
ATOM     19  C   LIG    1        4.210  -0.323   0.203  0.00  0.00    +0.110 C 
ATOM     20  S   LIG    1        3.839   1.298   0.931  0.00  0.00    -0.100 S 
ATOM     21  C   LIG    1        2.075   1.336   0.910  0.00  0.00    -0.070 A 
ATOM     22  C   LIG    1        1.448   2.559   1.152  0.00  0.00    +0.050 A 
ATOM     23  C   LIG    1        0.074   2.655   1.159  0.00  0.00    +0.050 A 
ATOM     24  C   LIG    1       -0.690   1.524   0.928  0.00  0.00    -0.040 A 
ATOM     25  C   LIG    1       -0.073   0.315   0.686  0.00  0.00    +0.050 A 
ATOM     26 CL   LIG    1       -2.422   1.629   0.942  0.00  0.00    -0.060 Cl
ATOM     27  C   LIG    1        1.315   0.206   0.670  0.00  0.00    -0.090 A 
ENDBRANCH  15  17
ENDBRANCH   1  15
TORSDOF 5
