REMARK  Name = ZINCtV00000vqcOt.0
REMARK                            x       y       z     vdW  Elec       q    Type
REMARK                         _______ _______ _______ _____ _____    ______ ____
ROOT
ATOM      1  C   LIG    1        7.095   5.279   0.229  0.00  0.00    +0.510 C 
ATOM      2  O   LIG    1        7.071   4.065   0.281  0.00  0.00    -0.480 OA
ENDROOT
BRANCH   1   3
ATOM      3  C   LIG    1        8.388   5.994   0.259  0.00  0.00    -0.110 A 
ATOM      4  C   LIG    1        8.418   7.388   0.199  0.00  0.00    +0.090 A 
ATOM      5  C   LIG    1        9.627   8.053   0.228  0.00  0.00    +0.040 A 
ATOM      6  C   LIG    1       10.810   7.343   0.317  0.00  0.00    +0.060 A 
ATOM      7  C   LIG    1       10.790   5.955   0.377  0.00  0.00    +0.080 A 
ATOM      8  C   LIG    1        9.582   5.278   0.354  0.00  0.00    +0.080 A 
BRANCH   7   9
ATOM      9  O   LIG    1       11.955   5.262   0.465  0.00  0.00    -0.250 OA
BRANCH   9  10
ATOM     10  C   LIG    1       12.431   4.669  -0.662  0.00  0.00    +0.120 A 
ATOM     11  C   LIG    1       11.687   4.705  -1.833  0.00  0.00    -0.070 A 
ATOM     12  C   LIG    1       12.175   4.105  -2.978  0.00  0.00    +0.050 A 
ATOM     13  C   LIG    1       13.398   3.460  -2.954  0.00  0.00    -0.020 A 
ATOM     14  C   LIG    1       14.138   3.418  -1.787  0.00  0.00    +0.050 A 
ATOM     15  C   LIG    1       13.657   4.020  -0.641  0.00  0.00    -0.010 A 
ENDBRANCH   9  10
ENDBRANCH   7   9
ENDBRANCH   1   3
BRANCH   1  16
ATOM     16  O   LIG    1        5.944   5.972   0.143  0.00  0.00    -0.290 OA
BRANCH  16  20
ATOM     17  C   LIG    1        2.432   3.821   0.445  0.00  0.00    -0.040 A 
ATOM     18  C   LIG    1        3.252   3.981   1.561  0.00  0.00    +0.030 A 
ATOM     19  C   LIG    1        4.426   4.695   1.456  0.00  0.00    +0.010 A 
ATOM     20  C   LIG    1        4.788   5.264   0.242  0.00  0.00    +0.080 A 
ATOM     21  C   LIG    1        3.971   5.111  -0.870  0.00  0.00    +0.030 A 
ATOM     22  C   LIG    1        2.798   4.393  -0.772  0.00  0.00    +0.040 A 
BRANCH  17  27
ATOM     23  C   LIG    1       -2.459   0.810   0.865  0.00  0.00    +0.090 C 
ATOM     24  C   LIG    1       -1.181   1.601   0.755  0.00  0.00    -0.080 A 
ATOM     25  C   LIG    1       -0.370   1.757   1.866  0.00  0.00    +0.010 A 
ATOM     26  C   LIG    1        0.804   2.475   1.770  0.00  0.00    +0.030 A 
ATOM     27  C   LIG    1        1.171   3.048   0.554  0.00  0.00    -0.060 A 
ATOM     28  C   LIG    1        0.348   2.892  -0.560  0.00  0.00    +0.030 A 
ATOM     29  C   LIG    1       -0.825   2.172  -0.453  0.00  0.00    +0.010 A 
ENDBRANCH  17  27
ENDBRANCH  16  20
ENDBRANCH   1  16
TORSDOF 6
