REMARK  Name = ZINCqH00000355x2.0
REMARK                            x       y       z     vdW  Elec       q    Type
REMARK                         _______ _______ _______ _____ _____    ______ ____
ROOT
ATOM      1  N   LIG    1        0.472   5.996   0.209  0.00  0.00    -1.050 N 
ATOM      2  H   LIG    1        0.968   6.753  -0.140  0.00  0.00    +0.430 HD
ENDROOT
BRANCH   1   5
ATOM      3  C   LIG    1        1.340   2.596   1.342  0.00  0.00    -0.140 A 
ATOM      4  C   LIG    1        0.743   3.858   1.289  0.00  0.00    +0.100 A 
ATOM      5  C   LIG    1        1.073   4.733   0.269  0.00  0.00    +0.120 A 
ATOM      6  C   LIG    1        2.003   4.358  -0.698  0.00  0.00    +0.150 A 
ATOM      7  C   LIG    1        2.601   3.111  -0.643  0.00  0.00    +0.000 A 
ATOM      8  F   LIG    1        2.323   5.215  -1.692  0.00  0.00    -0.110 F 
ATOM      9  C   LIG    1        2.279   2.230   0.371  0.00  0.00    +0.180 A 
ATOM     10  F   LIG    1        2.864   1.013   0.421  0.00  0.00    -0.100 F 
BRANCH   3  11
ATOM     11  C   LIG    1        0.988   1.656   2.422  0.00  0.00    +0.510 C 
ATOM     12  O   LIG    1        1.513   0.561   2.470  0.00  0.00    -0.480 OA
BRANCH  11  14
ATOM     13  C   LIG    1       -0.214   1.035   4.390  0.00  0.00    +0.280 C 
ATOM     14  O   LIG    1        0.084   2.011   3.357  0.00  0.00    -0.350 OA
ENDBRANCH  11  14
ENDBRANCH   3  11
ENDBRANCH   1   5
BRANCH   1  15
ATOM     15  S   LIG    1       -1.086   6.197   0.734  0.00  0.00    +2.680 S 
ATOM     16  O   LIG    1       -1.835   5.119   0.192  0.00  0.00    -0.930 OA
ATOM     17  O   LIG    1       -1.412   7.562   0.507  0.00  0.00    -0.940 OA
BRANCH  15  18
ATOM     18  C   LIG    1       -1.081   5.971   2.482  0.00  0.00    -0.690 A 
ATOM     19  C   LIG    1       -1.732   4.887   3.040  0.00  0.00    +0.020 A 
ATOM     20  C   LIG    1       -1.724   4.707   4.410  0.00  0.00    -0.100 A 
ATOM     21  C   LIG    1       -1.073   5.616   5.223  0.00  0.00    +0.080 A 
ATOM     22  C   LIG    1       -0.426   6.703   4.665  0.00  0.00    -0.110 A 
ATOM     23  C   LIG    1        0.283   7.694   5.551  0.00  0.00    +0.100 C 
ATOM     24  C   LIG    1       -2.429   3.522   5.019  0.00  0.00    +0.100 C 
ATOM     25  C   LIG    1       -2.446   3.899   2.154  0.00  0.00    +0.130 C 
ATOM     26  C   LIG    1       -0.430   6.880   3.294  0.00  0.00    +0.020 A 
ATOM     27  C   LIG    1        0.275   8.066   2.686  0.00  0.00    +0.110 C 
ENDBRANCH  15  18
ENDBRANCH   1  15
TORSDOF 5
