REMARK  Name = ZINCrH000001lPCA.0
REMARK                            x       y       z     vdW  Elec       q    Type
REMARK                         _______ _______ _______ _____ _____    ______ ____
ROOT
ATOM      1  O   LIG    1       -0.068   0.037  -0.511  0.00  0.00    -0.560 OA
ATOM      2  C   LIG    1       -0.048   1.228  -0.262  0.00  0.00    +0.710 C 
ATOM      3  N   LIG    1        1.121   1.898  -0.273  0.00  0.00    -0.620 N 
ATOM      4  C   LIG    1        1.159   3.357  -0.083  0.00  0.00    +0.250 C 
ATOM      5  C   LIG    1        2.187   3.677   1.009  0.00  0.00    +0.210 C 
ATOM      6  O   LIG    1        3.429   3.047   0.685  0.00  0.00    -0.350 OA
ATOM      7  C   LIG    1        3.365   1.620   0.633  0.00  0.00    +0.070 C 
ATOM      8  C   LIG    1        2.868   1.081   1.977  0.00  0.00    +0.000 C 
ATOM      9  C   LIG    1        3.883   1.442   3.067  0.00  0.00    +0.000 C 
ATOM     10  C   LIG    1        5.254   0.878   2.682  0.00  0.00    +0.210 C 
ATOM     11  O   LIG    1        5.642   1.399   1.410  0.00  0.00    -0.370 OA
ATOM     12  C   LIG    1        4.756   1.054   0.343  0.00  0.00    +0.260 C 
ATOM     13  C   LIG    1        2.398   1.193  -0.469  0.00  0.00    +0.300 C 
ATOM     14  N   LIG    1       -1.195   1.877   0.020  0.00  0.00    -0.670 N 
ATOM     15  H   LIG    1       -1.189   2.838   0.147  0.00  0.00    +0.420 HD
ENDROOT
BRANCH  14  16
ATOM     16  C   LIG    1       -2.396   1.162   0.128  0.00  0.00    +0.210 A 
ATOM     17  C   LIG    1       -2.374  -0.209   0.329  0.00  0.00    +0.040 A 
ATOM     18  C   LIG    1       -3.561  -0.912   0.437  0.00  0.00    -0.010 A 
ATOM     19  C   LIG    1       -4.772  -0.250   0.344  0.00  0.00    +0.000 A 
ATOM     20  C   LIG    1       -4.803   1.118   0.143  0.00  0.00    +0.020 A 
ATOM     21 CL   LIG    1       -3.530  -2.629   0.689  0.00  0.00    -0.060 Cl
ATOM     22  C   LIG    1       -3.618   1.830   0.040  0.00  0.00    +0.050 A 
BRANCH  22  23
ATOM     23  N   LIG    1       -3.647   3.216  -0.158  0.00  0.00    -0.500 N 
ATOM     24  C   LIG    1       -4.247   3.899   0.995  0.00  0.00    +0.180 C 
ATOM     25  C   LIG    1       -4.131   5.414   0.809  0.00  0.00    +0.020 C 
ATOM     26  C   LIG    1       -4.849   5.822  -0.480  0.00  0.00    +0.010 C 
ATOM     27  C   LIG    1       -4.236   5.060  -1.659  0.00  0.00    +0.020 C 
ATOM     28  C   LIG    1       -4.350   3.556  -1.402  0.00  0.00    +0.180 C 
ENDBRANCH  22  23
ENDBRANCH  14  16
TORSDOF 2
