REMARK  Name = ZINCrH000004mphP.0
REMARK                            x       y       z     vdW  Elec       q    Type
REMARK                         _______ _______ _______ _____ _____    ______ ____
ROOT
ATOM      1  C   LIG    1       -2.649   5.268  -0.832  0.00  0.00    +0.110 C 
ATOM      2  C   LIG    1       -1.407   6.155  -0.725  0.00  0.00    +0.040 C 
ATOM      3  C   LIG    1       -0.152   5.309  -0.952  0.00  0.00    +0.030 C 
ATOM      4  C   LIG    1       -0.068   4.226   0.135  0.00  0.00    +0.270 C 
ATOM      5  N   LIG    1       -1.322   3.460   0.129  0.00  0.00    -0.610 N 
ATOM      6  C   LIG    1       -1.305   2.116   0.020  0.00  0.00    +0.560 C 
ATOM      7  O   LIG    1       -2.349   1.502  -0.086  0.00  0.00    -0.530 OA
ATOM      8  C   LIG    1       -2.594   4.185   0.250  0.00  0.00    +0.300 C 
ENDROOT
BRANCH   6   9
ATOM      9  C   LIG    1       -0.018   1.390   0.029  0.00  0.00    -0.130 A 
ATOM     10  C   LIG    1        0.193   0.326  -0.850  0.00  0.00    +0.060 A 
ATOM     11  C   LIG    1        1.395  -0.351  -0.833  0.00  0.00    +0.010 A 
ATOM     12  C   LIG    1        2.390   0.022   0.053  0.00  0.00    +0.030 A 
ATOM     13  C   LIG    1        2.187   1.075   0.927  0.00  0.00    +0.000 A 
ATOM     14  C   LIG    1        0.990   1.761   0.920  0.00  0.00    +0.040 A 
ENDBRANCH   6   9
BRANCH   1  18
ATOM     15  C   LIG    1       -5.742   7.098  -0.903  0.00  0.00    +0.220 A 
ATOM     16  N   LIG    1       -5.257   7.392   0.276  0.00  0.00    -0.380 NA
ATOM     17  O   LIG    1       -4.194   6.832   0.441  0.00  0.00    +0.080 OA
ATOM     18  C   LIG    1       -3.885   6.108  -0.640  0.00  0.00    +0.190 A 
ATOM     19  N   LIG    1       -4.856   6.272  -1.504  0.00  0.00    -0.470 NA
BRANCH  15  23
ATOM     20  C   LIG    1       -9.408   8.496  -2.544  0.00  0.00    +0.150 A 
ATOM     21  C   LIG    1       -9.022   8.895  -1.271  0.00  0.00    -0.010 A 
ATOM     22  C   LIG    1       -7.834   8.443  -0.736  0.00  0.00    +0.100 A 
ATOM     23  C   LIG    1       -7.021   7.586  -1.475  0.00  0.00    -0.070 A 
ATOM     24  C   LIG    1       -7.408   7.192  -2.755  0.00  0.00    +0.110 A 
ATOM     25  C   LIG    1       -8.600   7.642  -3.282  0.00  0.00    -0.070 A 
BRANCH  20  27
ATOM     26  C   LIG    1      -10.915   8.493  -4.382  0.00  0.00    +0.240 C 
ATOM     27  O   LIG    1      -10.579   8.943  -3.068  0.00  0.00    -0.310 OA
ENDBRANCH  20  27
ENDBRANCH  15  23
ENDBRANCH   1  18
TORSDOF 4
