REMARK  Name = ZINCqH0000005B6k.0
REMARK                            x       y       z     vdW  Elec       q    Type
REMARK                         _______ _______ _______ _____ _____    ______ ____
ROOT
ATOM      1  N   LIG    1       -2.978   1.169   1.420  0.00  0.00    -0.720 N 
ATOM      2  H   LIG    1       -2.291   1.274   2.097  0.00  0.00    +0.400 HD
ATOM      3  C   LIG    1       -4.068   0.419   1.677  0.00  0.00    +0.520 C 
ATOM      4  O   LIG    1       -4.927   0.288   0.831  0.00  0.00    -0.500 OA
ENDROOT
BRANCH   3   5
ATOM      5  C   LIG    1       -4.220  -0.255   3.016  0.00  0.00    +0.160 C 
ATOM      6  C   LIG    1       -4.355   0.807   4.110  0.00  0.00    +0.060 C 
BRANCH   5   7
ATOM      7  O   LIG    1       -5.389  -1.078   3.005  0.00  0.00    -0.270 OA
BRANCH   7   8
ATOM      8  C   LIG    1       -5.415  -2.124   3.873  0.00  0.00    +0.150 A 
ATOM      9  C   LIG    1       -4.392  -2.288   4.794  0.00  0.00    -0.040 A 
ATOM     10  C   LIG    1       -4.420  -3.352   5.675  0.00  0.00    +0.080 A 
ATOM     11  C   LIG    1       -5.469  -4.253   5.640  0.00  0.00    -0.060 A 
ATOM     12  C   LIG    1       -6.492  -4.092   4.722  0.00  0.00    +0.090 A 
ATOM     13 CL   LIG    1       -5.503  -5.588   6.749  0.00  0.00    -0.050 Cl
ATOM     14  C   LIG    1       -6.470  -3.026   3.842  0.00  0.00    -0.060 A 
ATOM     15 CL   LIG    1       -7.757  -2.820   2.695  0.00  0.00    -0.040 Cl
ENDBRANCH   7   8
ENDBRANCH   5   7
ENDBRANCH   3   5
BRANCH   1  16
ATOM     16  C   LIG    1       -2.829   1.824   0.118  0.00  0.00    +0.320 C 
BRANCH  16  22
ATOM     17  C   LIG    1       -0.343   1.933  -0.148  0.00  0.00    -0.060 A 
ATOM     18  C   LIG    1        0.844   2.640  -0.181  0.00  0.00    +0.030 A 
ATOM     19  C   LIG    1        0.841   4.007   0.027  0.00  0.00    +0.020 A 
ATOM     20  C   LIG    1       -0.349   4.667   0.268  0.00  0.00    +0.020 A 
ATOM     21  C   LIG    1       -1.537   3.960   0.302  0.00  0.00    +0.030 A 
ATOM     22  C   LIG    1       -1.534   2.594   0.088  0.00  0.00    -0.090 A 
BRANCH  17  23
ATOM     23  C   LIG    1       -0.339   0.444  -0.374  0.00  0.00    +0.150 C 
BRANCH  23  24
ATOM     24  C   LIG    1       -0.626   0.156  -1.826  0.00  0.00    +0.460 C 
ATOM     25  O   LIG    1       -0.814   1.067  -2.597  0.00  0.00    -0.490 OA
BRANCH  24  27
ATOM     26  C   LIG    1       -0.954  -1.315  -3.672  0.00  0.00    +0.260 C 
ATOM     27  O   LIG    1       -0.673  -1.113  -2.262  0.00  0.00    -0.360 OA
ENDBRANCH  24  27
ENDBRANCH  23  24
ENDBRANCH  17  23
ENDBRANCH  16  22
ENDBRANCH   1  16
TORSDOF 8
