REMARK  Name = ZINCrD00000F5Lqa.1
REMARK                            x       y       z     vdW  Elec       q    Type
REMARK                         _______ _______ _______ _____ _____    ______ ____
ROOT
ATOM      1  C   LIG    1        6.291  -6.152  -0.285  0.00  0.00    +0.050 A 
ATOM      2  C   LIG    1        7.522  -6.781  -0.392  0.00  0.00    -0.010 A 
ATOM      3  C   LIG    1        8.684  -6.031  -0.391  0.00  0.00    -0.010 A 
ATOM      4  C   LIG    1        8.622  -4.654  -0.283  0.00  0.00    +0.030 A 
ATOM      5  C   LIG    1        7.399  -4.018  -0.182  0.00  0.00    +0.020 A 
ATOM      6  C   LIG    1        6.229  -4.763  -0.177  0.00  0.00    +0.170 A 
ENDROOT
BRANCH   1  10
ATOM      7  N   LIG    1        3.592  -9.314  -0.357  0.00  0.00    -0.540 NA
ATOM      8  C   LIG    1        3.650  -8.428  -1.528  0.00  0.00    +0.180 C 
ATOM      9  C   LIG    1        4.984  -7.679  -1.532  0.00  0.00    +0.190 C 
ATOM     10  N   LIG    1        5.114  -6.909  -0.286  0.00  0.00    -0.500 N 
ATOM     11  C   LIG    1        5.056  -7.794   0.885  0.00  0.00    +0.190 C 
ATOM     12  C   LIG    1        3.721  -8.544   0.889  0.00  0.00    +0.180 C 
BRANCH   7  14
ATOM     13  C   LIG    1        2.209 -10.826   0.985  0.00  0.00    +0.020 C 
ATOM     14  C   LIG    1        2.356 -10.108  -0.358  0.00  0.00    +0.160 C 
ENDBRANCH   7  14
ENDBRANCH   1  10
BRANCH   6  15
ATOM     15  N   LIG    1        4.989  -4.121  -0.068  0.00  0.00    -0.650 N 
ATOM     16  H   LIG    1        4.190  -4.549  -0.413  0.00  0.00    +0.420 HD
ATOM     17  C   LIG    1        4.906  -2.909   0.514  0.00  0.00    +0.540 C 
ATOM     18  O   LIG    1        5.889  -2.416   1.036  0.00  0.00    -0.520 OA
BRANCH  17  19
ATOM     19  C   LIG    1        3.633  -2.184   0.520  0.00  0.00    -0.050 C 
ATOM     20  C   LIG    1        3.550  -0.971   1.104  0.00  0.00    +0.110 C 
BRANCH  20  21
ATOM     21  C   LIG    1        2.272  -0.244   1.109  0.00  0.00    -0.030 A 
ATOM     22  C   LIG    1        1.141  -0.804   0.512  0.00  0.00    +0.040 A 
ATOM     23  C   LIG    1       -0.055  -0.117   0.521  0.00  0.00    +0.050 A 
ATOM     24  C   LIG    1       -0.145   1.129   1.119  0.00  0.00    +0.030 A 
ATOM     25  C   LIG    1        0.961   1.702   1.715  0.00  0.00    +0.070 A 
ATOM     26  C   LIG    1        2.180   1.026   1.718  0.00  0.00    -0.000 A 
BRANCH  26  27
ATOM     27  C   LIG    1        3.330   1.615   2.336  0.00  0.00    +0.240 C 
ATOM     28  N   LIG    1        4.242   2.083   2.825  0.00  0.00    -0.400 NA
ENDBRANCH  26  27
ENDBRANCH  20  21
ENDBRANCH  17  19
ENDBRANCH   6  15
TORSDOF 6
