REMARK  Name = ZINCpk000000mGWK.0
REMARK                            x       y       z     vdW  Elec       q    Type
REMARK                         _______ _______ _______ _____ _____    ______ ____
ROOT
ATOM      1  C   LIG    1       -2.206   0.990   6.975  0.00  0.00    -0.050 C 
ATOM      2  C   LIG    1       -2.930   2.082   7.784  0.00  0.00    +0.300 C 
ATOM      3  N   LIG    1       -2.448   1.367   8.985  0.00  0.00    -0.630 N 
ATOM      4  C   LIG    1       -2.866   1.280  10.263  0.00  0.00    +0.680 C 
ATOM      5  O   LIG    1       -2.255   0.593  11.057  0.00  0.00    -0.570 OA
ATOM      6  C   LIG    1       -1.326   0.786   8.222  0.00  0.00    +0.320 C 
ENDROOT
BRANCH   1   8
ATOM      7  C   LIG    1       -2.972  -0.775   5.473  0.00  0.00    +0.030 C 
ATOM      8  C   LIG    1       -3.074  -0.196   6.643  0.00  0.00    -0.020 C 
ENDBRANCH   1   8
BRANCH   4   9
ATOM      9  O   LIG    1       -3.962   1.955  10.660  0.00  0.00    -0.360 OA
BRANCH   9  10
ATOM     10  C   LIG    1       -4.354   1.814  12.051  0.00  0.00    +0.140 C 
ATOM     11  C   LIG    1       -4.645   0.343  12.353  0.00  0.00    +0.040 C 
ATOM     12  C   LIG    1       -5.610   2.647  12.313  0.00  0.00    +0.080 C 
ATOM     13  C   LIG    1       -3.220   2.305  12.953  0.00  0.00    +0.040 C 
ENDBRANCH   9  10
ENDBRANCH   4   9
BRANCH   1  14
ATOM     14  C   LIG    1       -1.441   1.527   5.763  0.00  0.00    +0.080 C 
BRANCH  14  15
ATOM     15  C   LIG    1       -2.398   1.735   4.617  0.00  0.00    +0.520 C 
ATOM     16  N   LIG    1       -1.945   2.206   3.438  0.00  0.00    -0.620 N 
ATOM     17  C   LIG    1       -0.547   2.639   3.272  0.00  0.00    +0.290 C 
ATOM     18  C   LIG    1        0.103   1.754   2.207  0.00  0.00    +0.260 C 
ATOM     19  N   LIG    1       -0.761   1.628   1.042  0.00  0.00    -0.610 N 
ATOM     20  C   LIG    1       -2.079   1.835   1.050  0.00  0.00    +0.510 C 
ATOM     21  O   LIG    1       -2.704   1.627   0.032  0.00  0.00    -0.530 OA
ATOM     22  C   LIG    1       -0.139   1.254  -0.231  0.00  0.00    +0.290 C 
ATOM     23  C   LIG    1       -2.827   2.308   2.266  0.00  0.00    +0.240 C 
ATOM     24  C   LIG    1       -4.069   1.441   2.481  0.00  0.00    +0.090 C 
ATOM     25  O   LIG    1       -3.575   1.479   4.756  0.00  0.00    -0.500 OA
ENDBRANCH  14  15
ENDBRANCH   1  14
TORSDOF 5
