REMARK  Name = ZINCqH00000o6wyD.1
REMARK                            x       y       z     vdW  Elec       q    Type
REMARK                         _______ _______ _______ _____ _____    ______ ____
ROOT
ATOM      1  C   LIG    1        1.193   1.785   0.000  0.00  0.00    -0.140 A 
ATOM      2  C   LIG    1       -0.013   1.076   0.008  0.00  0.00    +0.130 A 
ATOM      3  C   LIG    1       -1.212   1.738   0.017  0.00  0.00    +0.000 A 
ATOM      4  C   LIG    1       -1.264   3.144   0.031  0.00  0.00    +0.190 A 
ATOM      5  N   LIG    1       -2.388   3.943   0.046  0.00  0.00    -0.630 N 
ATOM      6  H   LIG    1       -3.277   3.555   0.053  0.00  0.00    +0.420 HD
ATOM      7  C   LIG    1       -2.214   5.296   0.052  0.00  0.00    +0.390 A 
ATOM      8  S   LIG    1       -0.463   5.561   0.037  0.00  0.00    +0.000 S 
ATOM      9  N   LIG    1       -3.148   6.209   0.066  0.00  0.00    -0.540 NA
ATOM     10  C   LIG    1       -0.052   3.840   0.023  0.00  0.00    -0.170 A 
ATOM     11  C   LIG    1        1.160   3.182   0.008  0.00  0.00    +0.180 A 
ENDROOT
BRANCH   1  12
ATOM     12  C   LIG    1        2.481   1.068  -0.016  0.00  0.00    +0.520 C 
ATOM     13  O   LIG    1        3.524   1.692  -0.023  0.00  0.00    -0.500 OA
BRANCH  12  14
ATOM     14  O   LIG    1        2.503  -0.279  -0.024  0.00  0.00    -0.350 OA
BRANCH  14  16
ATOM     15  C   LIG    1        3.630  -2.438  -0.048  0.00  0.00    +0.070 C 
ATOM     16  C   LIG    1        3.807  -0.918  -0.041  0.00  0.00    +0.200 C 
ENDBRANCH  14  16
ENDBRANCH  12  14
ENDBRANCH   1  12
BRANCH   9  17
ATOM     17  C   LIG    1       -2.785   7.628   0.071  0.00  0.00    +0.290 C 
BRANCH  17  18
ATOM     18  C   LIG    1       -3.254   8.271  -1.209  0.00  0.00    -0.100 A 
ATOM     19  C   LIG    1       -4.518   8.836  -1.288  0.00  0.00    +0.090 A 
ATOM     20  C   LIG    1       -4.907   9.417  -2.486  0.00  0.00    +0.040 A 
ATOM     21  C   LIG    1       -4.028   9.413  -3.553  0.00  0.00    -0.490 A 
ATOM     22  N   LIG    1       -2.834   8.866  -3.441  0.00  0.00    -0.430 NA
ATOM     23  C   LIG    1       -2.428   8.310  -2.317  0.00  0.00    +0.250 A 
BRANCH  21  24
ATOM     24  P   LIG    1       -4.524  10.169  -5.125  0.00  0.00    +2.570 P 
ATOM     25  O   LIG    1       -4.827  11.602  -4.910  0.00  0.00    -1.000 OA
ATOM     26  C   LIG    1       -6.008   9.325  -5.765  0.00  0.00    -0.500 C 
ATOM     27  C   LIG    1       -3.167  10.010  -6.331  0.00  0.00    -0.490 C 
ENDBRANCH  21  24
ENDBRANCH  17  18
ENDBRANCH   9  17
TORSDOF 6
