REMARK  Name = ZINCqH00000o6wyD.0
REMARK                            x       y       z     vdW  Elec       q    Type
REMARK                         _______ _______ _______ _____ _____    ______ ____
ROOT
ATOM      1  C   LIG    1       -1.300   1.930   0.019  0.00  0.00    -0.140 A 
ATOM      2  C   LIG    1       -1.324   3.332   0.026  0.00  0.00    +0.110 A 
ATOM      3  C   LIG    1       -2.503   4.003   0.036  0.00  0.00    +0.040 A 
ATOM      4  C   LIG    1       -3.733   3.304   0.037  0.00  0.00    +0.170 A 
ATOM      5  N   LIG    1       -4.981   3.804   0.045  0.00  0.00    -0.550 NA
ATOM      6  C   LIG    1       -5.966   2.970   0.045  0.00  0.00    +0.390 A 
ATOM      7  S   LIG    1       -5.370   1.317   0.034  0.00  0.00    +0.060 S 
ATOM      8  C   LIG    1       -3.708   1.903   0.030  0.00  0.00    -0.210 A 
ATOM      9  C   LIG    1       -2.500   1.220   0.015  0.00  0.00    +0.160 A 
ENDROOT
BRANCH   1  10
ATOM     10  C   LIG    1       -0.014   1.211   0.009  0.00  0.00    +0.520 C 
ATOM     11  O   LIG    1        0.002  -0.004   0.002  0.00  0.00    -0.510 OA
BRANCH  10  12
ATOM     12  O   LIG    1        1.143   1.901   0.001  0.00  0.00    -0.350 OA
BRANCH  12  14
ATOM     13  C   LIG    1        3.572   2.075  -0.021  0.00  0.00    +0.070 C 
ATOM     14  C   LIG    1        2.372   1.127  -0.015  0.00  0.00    +0.200 C 
ENDBRANCH  12  14
ENDBRANCH  10  12
ENDBRANCH   1  10
BRANCH   6  15
ATOM     15  N   LIG    1       -7.298   3.326   0.054  0.00  0.00    -0.680 N 
ATOM     16  H   LIG    1       -7.983   2.640   0.054  0.00  0.00    +0.420 HD
BRANCH  15  17
ATOM     17  C   LIG    1       -7.677   4.741   0.063  0.00  0.00    +0.350 C 
BRANCH  17  18
ATOM     18  C   LIG    1       -9.180   4.858   0.071  0.00  0.00    -0.140 A 
ATOM     19  C   LIG    1       -9.873   4.907   1.270  0.00  0.00    +0.090 A 
ATOM     20  C   LIG    1      -11.255   5.015   1.230  0.00  0.00    +0.040 A 
ATOM     21  C   LIG    1      -11.890   5.071   0.004  0.00  0.00    -0.480 A 
ATOM     22  N   LIG    1      -11.198   5.022  -1.118  0.00  0.00    -0.430 NA
ATOM     23  C   LIG    1       -9.883   4.925  -1.117  0.00  0.00    +0.280 A 
BRANCH  21  24
ATOM     24  P   LIG    1      -13.698   5.212  -0.064  0.00  0.00    +2.570 P 
ATOM     25  O   LIG    1      -14.121   6.454   0.621  0.00  0.00    -0.990 OA
ATOM     26  C   LIG    1      -14.451   3.774   0.764  0.00  0.00    -0.490 C 
ATOM     27  C   LIG    1      -14.238   5.263  -1.805  0.00  0.00    -0.490 C 
ENDBRANCH  21  24
ENDBRANCH  17  18
ENDBRANCH  15  17
ENDBRANCH   6  15
TORSDOF 7
