REMARK  Name = ZINCrm00000IgnIb.1
REMARK                            x       y       z     vdW  Elec       q    Type
REMARK                         _______ _______ _______ _____ _____    ______ ____
ROOT
ATOM      1  N   LIG    1       -2.456  -3.832   0.223  0.00  0.00    -0.460 NA
ATOM      2  C   LIG    1       -3.124  -4.311  -1.014  0.00  0.00    +0.230 C 
ATOM      3  C   LIG    1       -3.345  -5.820  -0.778  0.00  0.00    +0.200 C 
ATOM      4  C   LIG    1       -3.358  -5.988   0.755  0.00  0.00    +0.190 C 
ATOM      5  C   LIG    1       -3.144  -4.566   1.317  0.00  0.00    +0.250 C 
ENDROOT
BRANCH   1   8
ATOM      6  C   LIG    1       -1.688  -0.358   0.566  0.00  0.00    +0.630 C 
ATOM      7  N   LIG    1       -1.545  -1.667   0.419  0.00  0.00    -0.490 NA
ATOM      8  C   LIG    1       -2.609  -2.463   0.372  0.00  0.00    +0.470 C 
ATOM      9  C   LIG    1       -3.882  -1.898   0.468  0.00  0.00    -0.090 C 
ATOM     10  C   LIG    1       -3.987  -0.529   0.616  0.00  0.00    +0.470 C 
ATOM     11  N   LIG    1       -2.884   0.204   0.660  0.00  0.00    -0.550 NA
ATOM     12  H   LIG    1       -2.953   1.166   0.764  0.00  0.00    +0.450 HD
BRANCH   6  14
ATOM     13  C   LIG    1       -0.698   1.892   0.774  0.00  0.00    +0.350 C 
ATOM     14  N   LIG    1       -0.560   0.442   0.617  0.00  0.00    -0.650 NA
ATOM     15  H   LIG    1        0.321   0.043   0.549  0.00  0.00    +0.450 HD
ENDBRANCH   6  14
ENDBRANCH   1   8
BRANCH   4  16
ATOM     16  N   LIG    1       -4.652  -6.522   1.200  0.00  0.00    -0.500 N 
ATOM     17  H   LIG    1       -4.840  -7.391   0.722  0.00  0.00    +0.440 HD
ATOM     18  H   LIG    1       -5.381  -5.857   0.987  0.00  0.00    +0.430 HD
BRANCH  16  19
ATOM     19  C   LIG    1       -4.613  -6.759   2.649  0.00  0.00    +0.160 C 
ATOM     20  C   LIG    1       -6.025  -7.031   3.130  0.00  0.00    +0.040 C 
ATOM     21  C   LIG    1       -6.084  -7.057   4.660  0.00  0.00    +0.120 C 
ATOM     22  C   LIG    1       -5.725  -8.451   5.128  0.00  0.00    -0.150 A 
ATOM     23  C   LIG    1       -6.704  -9.269   5.668  0.00  0.00    +0.080 A 
ATOM     24  C   LIG    1       -6.332 -10.537   6.093  0.00  0.00    -0.020 A 
ATOM     25  C   LIG    1       -5.013 -10.930   5.961  0.00  0.00    +0.270 A 
ATOM     26  N   LIG    1       -4.113 -10.119   5.438  0.00  0.00    -0.470 NA
ATOM     27  C   LIG    1       -4.437  -8.907   5.024  0.00  0.00    +0.120 A 
ATOM     28  C   LIG    1       -3.365  -8.016   4.428  0.00  0.00    +0.140 C 
ATOM     29  C   LIG    1       -3.630  -7.878   2.927  0.00  0.00    +0.060 C 
ENDBRANCH  16  19
ENDBRANCH   4  16
BRANCH   3  30
ATOM     30  O   LIG    1       -4.596  -6.232  -1.333  0.00  0.00    -0.400 OA
ATOM     31  C   LIG    1       -4.509  -6.694  -2.682  0.00  0.00    +0.260 C 
ENDBRANCH   3  30
TORSDOF 5
