REMARK  Name = ZINCpe000000UxPF.0
REMARK                            x       y       z     vdW  Elec       q    Type
REMARK                         _______ _______ _______ _____ _____    ______ ____
ROOT
ATOM      1  N   LIG    1       -2.349   6.377  -1.603  0.00  0.00    -0.560 N 
ATOM      2  C   LIG    1       -1.635   5.263  -1.345  0.00  0.00    +0.510 C 
ATOM      3  O   LIG    1       -1.248   4.566  -2.259  0.00  0.00    -0.510 OA
ATOM      4  C   LIG    1       -2.816   7.219  -0.499  0.00  0.00    +0.310 C 
ENDROOT
BRANCH   1  10
ATOM      5  C   LIG    1       -1.732   7.467  -3.685  0.00  0.00    +0.310 A 
ATOM      6  N   LIG    1       -2.009   7.795  -4.936  0.00  0.00    -0.510 NA
ATOM      7  C   LIG    1       -3.148   7.451  -5.508  0.00  0.00    +0.280 A 
ATOM      8  C   LIG    1       -4.098   6.726  -4.818  0.00  0.00    -0.030 A 
ATOM      9  C   LIG    1       -3.850   6.354  -3.504  0.00  0.00    +0.080 A 
ATOM     10  C   LIG    1       -2.644   6.729  -2.927  0.00  0.00    +0.120 A 
BRANCH   5  12
ATOM     11  C   LIG    1        0.612   7.400  -3.938  0.00  0.00    +0.210 C 
ATOM     12  N   LIG    1       -0.521   7.857  -3.121  0.00  0.00    -0.490 N 
ATOM     13  C   LIG    1       -0.475   9.312  -2.924  0.00  0.00    +0.220 C 
ENDBRANCH   5  12
ENDBRANCH   1  10
BRANCH   2  14
ATOM     14  C   LIG    1       -1.317   4.885   0.079  0.00  0.00    +0.400 C 
BRANCH  14  15
ATOM     15  N   LIG    1       -0.537   3.645   0.092  0.00  0.00    -0.450 N 
ATOM     16  N   LIG    1       -1.052   2.339   0.147  0.00  0.00    -0.270 NA
ATOM     17  C   LIG    1       -0.063   1.520   0.144  0.00  0.00    +0.280 A 
ATOM     18  C   LIG    1       -0.089   0.006   0.193  0.00  0.00    +0.170 C 
ATOM     19  C   LIG    1        0.426  -0.513  -1.154  0.00  0.00    +0.030 C 
ATOM     20  C   LIG    1        1.936  -0.514  -1.206  0.00  0.00    +0.020 C 
ATOM     21  C   LIG    1        2.577   0.852  -1.270  0.00  0.00    +0.020 C 
ATOM     22  C   LIG    1        2.442   1.605   0.057  0.00  0.00    +0.320 C 
ATOM     23  N   LIG    1        1.115   2.244   0.080  0.00  0.00    -0.560 N 
ATOM     24  C   LIG    1        0.811   3.546   0.048  0.00  0.00    +0.660 A 
ATOM     25  O   LIG    1        1.601   4.471  -0.012  0.00  0.00    -0.550 OA
ENDBRANCH  14  15
ENDBRANCH   2  14
TORSDOF 4
