REMARK  Name = ZINCpe00000c9v9C.0
REMARK                            x       y       z     vdW  Elec       q    Type
REMARK                         _______ _______ _______ _____ _____    ______ ____
ROOT
ATOM      1  O   UNK A  1       -1.460   3.756  -5.430  0.00  0.00    -0.360 OA
ENDROOT
BRANCH   1   3
ATOM      2  O   UNK A  1        0.160   4.970  -6.316  0.00  0.00    -0.480 OA
ATOM      3  C   UNK A  1       -0.983   4.583  -6.374  0.00  0.00    +0.460 C 
BRANCH   3   4
ATOM      4  C   UNK A  1       -1.873   5.028  -7.506  0.00  0.00    +0.240 C 
BRANCH   4   5
ATOM      5  C   UNK A  1       -1.102   5.944  -8.421  0.00  0.00    -0.000 A 
ATOM      6  C   UNK A  1       -0.379   5.563  -9.489  0.00  0.00    +0.020 A 
ATOM      7  C   UNK A  1        0.170   6.738 -10.052  0.00  0.00    -0.280 A 
ATOM      8  C   UNK A  1       -0.251   7.767  -9.294  0.00  0.00    +0.280 A 
ATOM      9  O   UNK A  1       -1.026   7.281  -8.311  0.00  0.00    -0.150 OA
BRANCH   7  10
ATOM     10  C   UNK A  1        1.057   6.822 -11.268  0.00  0.00    +0.540 C 
ATOM     11  F   UNK A  1        1.810   5.648 -11.377  0.00  0.00    -0.170 F 
ATOM     12  F   UNK A  1        1.917   7.918 -11.143  0.00  0.00    -0.180 F 
ATOM     13  F   UNK A  1        0.266   6.977 -12.412  0.00  0.00    -0.170 F 
ENDBRANCH   7  10
ENDBRANCH   4   5
ENDBRANCH   3   4
ENDBRANCH   1   3
BRANCH   1  14
ATOM     14  C   UNK A  1       -0.546   3.369  -4.370  0.00  0.00    +0.270 C 
BRANCH  14  15
ATOM     15  C   UNK A  1       -1.263   2.432  -3.396  0.00  0.00    +0.250 C 
ATOM     16  N   UNK A  1       -2.348   3.156  -2.736  0.00  0.00    -0.720 N 
ATOM     17  H   UNK A  1       -2.755   3.909  -3.193  0.00  0.00    +0.410 HD
ATOM     18  C   PRO A  2       -2.800   2.812  -1.518  0.00  0.00    +0.520 C 
ATOM     19  CA  PRO A  2       -2.173   1.667  -0.762  0.00  0.00    +0.230 C 
ATOM     20  CB  PRO A  2       -2.173   1.986   0.744  0.00  0.00    +0.060 C 
ATOM     21  CG  PRO A  2       -0.767   1.599   1.249  0.00  0.00    +0.040 C 
ATOM     22  CD  PRO A  2       -0.013   1.086   0.008  0.00  0.00    +0.280 C 
ATOM     23  N   PRO A  2       -0.752   1.587  -1.153  0.00  0.00    -0.610 N 
ATOM     24  O   PRO A  2       -3.719   3.428  -1.022  0.00  0.00    -0.520 OA
ATOM     25  C   UNK A  1       -0.279   1.933  -2.364  0.00  0.00    +0.530 C 
ATOM     26  O   UNK A  1        0.904   1.846  -2.619  0.00  0.00    -0.510 OA
ENDBRANCH  14  15
ENDBRANCH   1  14
TORSDOF 6
