REMARK  Name = ZINCrH00000No562.0
REMARK                            x       y       z     vdW  Elec       q    Type
REMARK                         _______ _______ _______ _____ _____    ______ ____
ROOT
ATOM      1  C   LIG    1       -2.182   4.630  -0.453  0.00  0.00    +0.350 C 
ATOM      2  C   LIG    1       -1.164   3.567  -0.198  0.00  0.00    -0.240 A 
ATOM      3  C   LIG    1        0.066   4.162  -0.190  0.00  0.00    +0.090 A 
ATOM      4  C   LIG    1       -0.116   5.602  -0.444  0.00  0.00    +0.570 C 
ATOM      5  O   LIG    1        0.784   6.416  -0.506  0.00  0.00    -0.480 OA
ATOM      6  O   LIG    1        1.205   3.474   0.022  0.00  0.00    -0.180 OA
ATOM      7  C   LIG    1        1.183   2.121   0.002  0.00  0.00    +0.160 A 
ATOM      8  C   LIG    1        2.391   1.426  -0.022  0.00  0.00    +0.030 A 
ATOM      9  C   LIG    1        2.398   0.049  -0.031  0.00  0.00    +0.120 A 
ATOM     10  C   LIG    1        1.209  -0.669  -0.018  0.00  0.00    -0.120 A 
ATOM     11  C   LIG    1        0.002  -0.004   0.002  0.00  0.00    +0.160 A 
ATOM     12 BR   LIG    1        1.247  -2.559  -0.029  0.00  0.00    -0.030 Br
ATOM     13  C   LIG    1       -0.017   1.390   0.010  0.00  0.00    -0.210 A 
ATOM     14  C   LIG    1       -1.308   2.124   0.020  0.00  0.00    +0.460 A 
ATOM     15  O   LIG    1       -2.384   1.579   0.192  0.00  0.00    -0.420 OA
ATOM     16  N   LIG    1       -1.425   5.884  -0.597  0.00  0.00    -0.590 N 
ATOM     17  C   LIG    1       -1.995   7.208  -0.862  0.00  0.00    +0.360 C 
ENDROOT
BRANCH   1  21
ATOM     18  C   LIG    1       -4.882   4.909   2.852  0.00  0.00    +0.110 A 
ATOM     19  C   LIG    1       -3.635   5.508   2.920  0.00  0.00    -0.030 A 
ATOM     20  C   LIG    1       -2.764   5.416   1.850  0.00  0.00    +0.030 A 
ATOM     21  C   LIG    1       -3.135   4.727   0.711  0.00  0.00    -0.100 A 
ATOM     22  C   LIG    1       -4.381   4.132   0.634  0.00  0.00    +0.000 A 
ATOM     23  C   LIG    1       -5.256   4.215   1.704  0.00  0.00    +0.100 A 
BRANCH  18  25
ATOM     24  C   LIG    1       -5.290   5.728   5.047  0.00  0.00    +0.240 C 
ATOM     25  O   LIG    1       -5.740   4.999   3.903  0.00  0.00    -0.300 OA
ENDBRANCH  18  25
BRANCH  23  26
ATOM     26  O   LIG    1       -6.479   3.625   1.632  0.00  0.00    -0.300 OA
ATOM     27  C   LIG    1       -6.794   2.930   0.424  0.00  0.00    +0.230 C 
ENDBRANCH  23  26
ENDBRANCH   1  21
TORSDOF 3
