REMARK  Name = ZINCpe00000bBirE.0
REMARK                            x       y       z     vdW  Elec       q    Type
REMARK                         _______ _______ _______ _____ _____    ______ ____
ROOT
ATOM      1  C   LIG    1       -0.321   1.552  -0.137  0.00  0.00    +0.410 A 
ATOM      2  N   LIG    1        0.568   2.475   0.154  0.00  0.00    -0.360 NA
ATOM      3  N   LIG    1        0.067   3.647  -0.003  0.00  0.00    -0.040 NA
ATOM      4  N   LIG    1       -1.157   3.562  -0.399  0.00  0.00    -0.030 NA
ATOM      5  N   LIG    1       -1.454   2.192  -0.507  0.00  0.00    -0.370 N 
ENDROOT
BRANCH   1   7
ATOM      6  C   LIG    1       -0.811  -0.397   1.085  0.00  0.00    +0.250 C 
ATOM      7  N   LIG    1       -0.132   0.182  -0.082  0.00  0.00    -0.450 N 
BRANCH   7   8
ATOM      8  C   LIG    1        1.299  -0.152  -0.077  0.00  0.00    +0.260 C 
BRANCH   8   9
ATOM      9  C   LIG    1        1.471  -1.660  -0.266  0.00  0.00    +0.210 C 
BRANCH   9  10
ATOM     10  O   LIG    1        1.000  -2.035  -1.562  0.00  0.00    -0.300 OA
BRANCH  10  11
ATOM     11  C   LIG    1        1.083  -3.351  -1.892  0.00  0.00    +0.120 A 
ATOM     12  C   LIG    1        1.611  -4.261  -0.989  0.00  0.00    -0.040 A 
ATOM     13  C   LIG    1        1.691  -5.599  -1.325  0.00  0.00    +0.030 A 
ATOM     14  C   LIG    1        1.252  -6.030  -2.565  0.00  0.00    +0.060 A 
ATOM     15  C   LIG    1        0.728  -5.121  -3.469  0.00  0.00    +0.030 A 
ATOM     16  F   LIG    1        1.334  -7.338  -2.893  0.00  0.00    -0.140 F 
ATOM     17  C   LIG    1        0.643  -3.784  -3.135  0.00  0.00    +0.020 A 
ENDBRANCH  10  11
ENDBRANCH   9  10
ENDBRANCH   8   9
ENDBRANCH   7   8
ENDBRANCH   1   7
BRANCH   5  18
ATOM     18  C   LIG    1       -2.721   1.587  -0.926  0.00  0.00    +0.370 C 
BRANCH  18  19
ATOM     19  C   LIG    1       -2.649   1.234  -2.413  0.00  0.00    +0.000 C 
ATOM     20  C   LIG    1       -3.910   0.464  -2.814  0.00  0.00    +0.050 C 
ATOM     21  C   LIG    1       -3.950   0.361  -4.343  0.00  0.00    +0.030 C 
ATOM     22  C   LIG    1       -4.171   1.760  -4.922  0.00  0.00    +0.260 C 
ATOM     23  N   LIG    1       -3.217   2.704  -4.353  0.00  0.00    -0.720 N 
ATOM     24  H   LIG    1       -3.062   3.535  -4.828  0.00  0.00    +0.400 HD
ATOM     25  C   LIG    1       -2.543   2.495  -3.221  0.00  0.00    +0.510 C 
ATOM     26  O   LIG    1       -1.805   3.371  -2.823  0.00  0.00    -0.530 OA
ENDBRANCH  18  19
ENDBRANCH   5  18
TORSDOF 7
