REMARK  Name = ZINCpk00000Fbhgl.2
REMARK                            x       y       z     vdW  Elec       q    Type
REMARK                         _______ _______ _______ _____ _____    ______ ____
ROOT
ATOM      1  C   LIG    1        1.286   1.562  -0.002  0.00  0.00    +0.230 C 
ATOM      2  C   LIG    1        2.041   1.127  -1.261  0.00  0.00    +0.000 C 
ATOM      3  C   LIG    1        1.287   1.629  -2.497  0.00  0.00    +0.040 C 
ATOM      4  C   LIG    1        1.147   3.151  -2.420  0.00  0.00    +0.170 C 
ATOM      5  N   LIG    1        0.418   3.515  -1.198  0.00  0.00    -0.510 NA
ATOM      6  C   LIG    1        1.146   3.086   0.003  0.00  0.00    +0.230 C 
ENDROOT
BRANCH   1   9
ATOM      7  N   LIG    1        3.058  -0.063   2.725  0.00  0.00    -0.280 N 
ATOM      8  C   LIG    1        2.370  -0.147   1.563  0.00  0.00    +0.150 A 
ATOM      9  C   LIG    1        2.052   1.123   1.220  0.00  0.00    -0.050 A 
ATOM     10  N   LIG    1        2.545   1.911   2.181  0.00  0.00    -0.250 NA
ATOM     11  N   LIG    1        3.135   1.178   3.059  0.00  0.00    -0.080 NA
BRANCH   7  13
ATOM     12  C   LIG    1        2.530  -1.782   4.383  0.00  0.00    +0.060 C 
ATOM     13  C   LIG    1        3.613  -1.190   3.478  0.00  0.00    +0.250 C 
ATOM     14  C   LIG    1        4.104  -2.262   2.503  0.00  0.00    +0.060 C 
ENDBRANCH   7  13
ENDBRANCH   1   9
BRANCH   1  15
ATOM     15  O   LIG    1       -0.011   0.963   0.007  0.00  0.00    -0.530 OA
ATOM     16  H   LIG    1        0.002  -0.004   0.002  0.00  0.00    +0.370 HD
ENDBRANCH   1  15
BRANCH   5  17
ATOM     17  C   LIG    1        0.143   4.957  -1.160  0.00  0.00    +0.270 C 
BRANCH  17  18
ATOM     18  C   LIG    1        1.441   5.713  -1.041  0.00  0.00    -0.130 A 
ATOM     19  C   LIG    1        2.117   6.107  -2.182  0.00  0.00    +0.050 A 
ATOM     20  C   LIG    1        3.310   6.802  -2.082  0.00  0.00    +0.000 A 
ATOM     21  C   LIG    1        3.833   7.105  -0.842  0.00  0.00    +0.040 A 
ATOM     22  C   LIG    1        3.156   6.711   0.313  0.00  0.00    -0.140 A 
ATOM     23  C   LIG    1        1.950   6.016   0.205  0.00  0.00    +0.100 A 
BRANCH  22  24
ATOM     24  C   LIG    1        3.710   7.033   1.645  0.00  0.00    +0.560 C 
ATOM     25  O   LIG    1        3.119   6.688   2.649  0.00  0.00    -0.530 OA
ATOM     26  N   LIG    1        4.872   7.709   1.746  0.00  0.00    -0.850 N 
ATOM     27  H   LIG    1        5.235   7.921   2.620  0.00  0.00    +0.410 HD
ATOM     28  H   LIG    1        5.344   7.984   0.945  0.00  0.00    +0.400 HD
ENDBRANCH  22  24
ENDBRANCH  17  18
ENDBRANCH   5  17
TORSDOF 6
