REMARK  Name = ZINCtV000002uvIZ.0
REMARK                            x       y       z     vdW  Elec       q    Type
REMARK                         _______ _______ _______ _____ _____    ______ ____
ROOT
ATOM      1  N   LIG    1        2.686  -0.763   3.688  0.00  0.00    -0.740 N 
ATOM      2  H   LIG    1        3.107  -1.053   2.864  0.00  0.00    +0.400 HD
ENDROOT
BRANCH   1   3
ATOM      3  C   LIG    1        1.535   0.027   3.643  0.00  0.00    +0.250 A 
ATOM      4  C   LIG    1        0.930   0.444   4.823  0.00  0.00    -0.110 A 
ATOM      5  C   LIG    1       -0.208   1.225   4.778  0.00  0.00    +0.090 A 
ATOM      6  C   LIG    1       -0.745   1.600   3.562  0.00  0.00    -0.170 A 
ATOM      7  C   LIG    1       -0.149   1.182   2.380  0.00  0.00    +0.180 A 
ATOM      8  C   LIG    1       -1.983   2.458   3.518  0.00  0.00    +0.080 C 
ATOM      9  C   LIG    1        0.993   0.398   2.420  0.00  0.00    -0.160 A 
BRANCH   7  10
ATOM     10  O   LIG    1       -0.682   1.547   1.184  0.00  0.00    -0.310 OA
BRANCH  10  11
ATOM     11  C   LIG    1       -0.013   1.086   0.008  0.00  0.00    +0.180 C 
BRANCH  11  12
ATOM     12  C   LIG    1       -0.753   1.593  -1.232  0.00  0.00    +0.040 C 
BRANCH  12  13
ATOM     13  C   LIG    1       -0.037   1.099  -2.490  0.00  0.00    +0.030 C 
BRANCH  13  14
ATOM     14  C   LIG    1       -0.777   1.606  -3.730  0.00  0.00    +0.020 C 
BRANCH  14  15
ATOM     15  C   LIG    1       -0.060   1.113  -4.989  0.00  0.00    +0.170 C 
BRANCH  15  16
ATOM     16  O   LIG    1       -0.752   1.586  -6.146  0.00  0.00    -0.580 OA
ATOM     17  H   LIG    1       -0.352   1.311  -6.983  0.00  0.00    +0.380 HD
ENDBRANCH  15  16
ENDBRANCH  14  15
ENDBRANCH  13  14
ENDBRANCH  12  13
ENDBRANCH  11  12
ENDBRANCH  10  11
ENDBRANCH   7  10
ENDBRANCH   1   3
BRANCH   1  18
ATOM     18  C   LIG    1        3.256  -1.153   4.979  0.00  0.00    +0.310 C 
BRANCH  18  23
ATOM     19  C   LIG    1        6.854  -2.173   4.436  0.00  0.00    +0.130 A 
ATOM     20  C   LIG    1        6.736  -3.551   4.333  0.00  0.00    -0.070 A 
ATOM     21  C   LIG    1        5.494  -4.147   4.439  0.00  0.00    +0.050 A 
ATOM     22  C   LIG    1        4.370  -3.371   4.653  0.00  0.00    -0.010 A 
ATOM     23  C   LIG    1        4.484  -1.996   4.751  0.00  0.00    -0.070 A 
ATOM     24  C   LIG    1        5.724  -1.396   4.646  0.00  0.00    +0.000 A 
BRANCH  19  25
ATOM     25  O   LIG    1        8.075  -1.585   4.333  0.00  0.00    -0.310 OA
BRANCH  25  26
ATOM     26  C   LIG    1        9.194  -2.446   4.117  0.00  0.00    +0.180 C 
BRANCH  26  27
ATOM     27  C   LIG    1       10.472  -1.610   4.028  0.00  0.00    +0.020 C 
BRANCH  27  28
ATOM     28  C   LIG    1       11.671  -2.533   3.797  0.00  0.00    +0.020 C 
BRANCH  28  29
ATOM     29  C   LIG    1       12.948  -1.696   3.707  0.00  0.00    +0.000 C 
BRANCH  29  31
ATOM     30  C   LIG    1       15.425  -1.782   3.387  0.00  0.00    +0.000 C 
ATOM     31  C   LIG    1       14.147  -2.619   3.476  0.00  0.00    -0.010 C 
ENDBRANCH  29  31
ENDBRANCH  28  29
ENDBRANCH  27  28
ENDBRANCH  26  27
ENDBRANCH  25  26
ENDBRANCH  19  25
ENDBRANCH  18  23
ENDBRANCH   1  18
TORSDOF 16
