REMARK  Name = ZINCqH00000397mr.0
REMARK                            x       y       z     vdW  Elec       q    Type
REMARK                         _______ _______ _______ _____ _____    ______ ____
ROOT
ATOM      1  C   LIG    1        5.729  -1.365  -0.053  0.00  0.00    +0.590 C 
ATOM      2  N   LIG    1        6.087  -2.660  -0.152  0.00  0.00    -0.600 N 
ATOM      3  C   LIG    1        5.162  -3.807  -0.194  0.00  0.00    +0.270 C 
ATOM      4  C   LIG    1        5.952  -4.928  -0.913  0.00  0.00    +0.040 C 
ATOM      5  C   LIG    1        7.385  -4.700  -0.365  0.00  0.00    +0.060 C 
ATOM      6  C   LIG    1        7.466  -3.163  -0.243  0.00  0.00    +0.310 C 
ATOM      7  O   LIG    1        4.555  -1.053  -0.103  0.00  0.00    -0.530 OA
ENDROOT
BRANCH   6   8
ATOM      8  C   LIG    1        8.231  -2.790   1.000  0.00  0.00    +0.060 A 
ATOM      9  N   LIG    1        7.715  -2.717   2.168  0.00  0.00    -0.440 NA
ATOM     10  C   LIG    1        8.520  -2.374   3.192  0.00  0.00    +0.080 A 
ATOM     11  C   LIG    1        8.222  -2.225   4.561  0.00  0.00    +0.070 A 
ATOM     12  C   LIG    1        9.194  -1.861   5.443  0.00  0.00    +0.020 A 
ATOM     13  C   LIG    1       10.492  -1.630   5.013  0.00  0.00    +0.030 A 
ATOM     14  C   LIG    1       10.813  -1.768   3.681  0.00  0.00    +0.070 A 
ATOM     15  C   LIG    1        9.832  -2.140   2.765  0.00  0.00    -0.160 A 
ATOM     16  S   LIG    1        9.893  -2.403   1.025  0.00  0.00    +0.120 S 
ENDBRANCH   6   8
BRANCH   1  20
ATOM     17  C   LIG    1        8.702   1.629   0.435  0.00  0.00    +0.190 A 
ATOM     18  C   LIG    1        9.066   0.350   0.025  0.00  0.00    +0.030 A 
ATOM     19  C   LIG    1        8.105  -0.624  -0.128  0.00  0.00    +0.040 A 
ATOM     20  C   LIG    1        6.762  -0.324   0.117  0.00  0.00    -0.150 A 
ATOM     21  C   LIG    1        6.400   0.963   0.523  0.00  0.00    +0.100 A 
ATOM     22  C   LIG    1        7.366   1.931   0.680  0.00  0.00    -0.030 A 
BRANCH  17  27
ATOM     23  N   LIG    1       11.895   3.203   1.024  0.00  0.00    -0.860 N 
ATOM     24  H   LIG    1       11.695   4.123   0.791  0.00  0.00    +0.400 HD
ATOM     25  H   LIG    1       12.793   2.955   1.296  0.00  0.00    +0.420 HD
ATOM     26  C   LIG    1       10.926   2.267   0.968  0.00  0.00    +0.700 C 
ATOM     27  N   LIG    1        9.678   2.612   0.595  0.00  0.00    -0.680 N 
ATOM     28  H   LIG    1        9.458   3.543   0.438  0.00  0.00    +0.410 HD
ATOM     29  O   LIG    1       11.177   1.114   1.260  0.00  0.00    -0.570 OA
ENDBRANCH  17  27
ENDBRANCH   1  20
TORSDOF 3
