REMARK  Name = ZINCpk00000kOFWh.0
REMARK                            x       y       z     vdW  Elec       q    Type
REMARK                         _______ _______ _______ _____ _____    ______ ____
ROOT
ATOM      1  C   LIG    1       -1.638   0.789  -1.783  0.00  0.00    +0.550 C 
ATOM      2  N   LIG    1       -0.497   1.402  -1.409  0.00  0.00    -0.590 N 
ATOM      3  O   LIG    1       -2.361   1.306  -2.611  0.00  0.00    -0.490 OA
ENDROOT
BRANCH   1   8
ATOM      4  C   LIG    1       -5.112  -2.815  -4.313  0.00  0.00    +0.180 C 
ATOM      5  C   LIG    1       -4.233  -2.469  -3.139  0.00  0.00    +0.280 A 
ATOM      6  N   LIG    1       -3.545  -1.351  -3.018  0.00  0.00    -0.510 NA
ATOM      7  C   LIG    1       -2.882  -1.389  -1.852  0.00  0.00    +0.050 A 
ATOM      8  C   LIG    1       -2.010  -0.516  -1.185  0.00  0.00    +0.030 A 
ATOM      9  C   LIG    1       -1.493  -0.908   0.056  0.00  0.00    -0.010 A 
ATOM     10  C   LIG    1       -1.846  -2.107   0.599  0.00  0.00    +0.320 A 
ATOM     11  N   LIG    1       -2.679  -2.949  -0.031  0.00  0.00    -0.470 N 
ATOM     12  H   LIG    1       -2.905  -3.797   0.383  0.00  0.00    +0.430 HD
ATOM     13  C   LIG    1       -3.213  -2.631  -1.243  0.00  0.00    +0.230 A 
ATOM     14  N   LIG    1       -4.042  -3.245  -2.080  0.00  0.00    -0.560 NA
ENDBRANCH   1   8
BRANCH   2  15
ATOM     15  C   LIG    1       -0.145   2.705  -1.977  0.00  0.00    +0.320 C 
BRANCH  15  16
ATOM     16  C   LIG    1        0.683   2.502  -3.248  0.00  0.00    +0.150 C 
ATOM     17  C   LIG    1        1.055   3.864  -3.839  0.00  0.00    +0.160 C 
ATOM     18  N   LIG    1        1.914   3.663  -5.015  0.00  0.00    -0.540 NA
ATOM     19  C   LIG    1        3.131   2.921  -4.651  0.00  0.00    +0.150 C 
ATOM     20  C   LIG    1        2.737   1.569  -4.052  0.00  0.00    +0.220 C 
ATOM     21  C   LIG    1        2.249   4.946  -5.647  0.00  0.00    +0.190 C 
ATOM     22  O   LIG    1        1.877   1.783  -2.929  0.00  0.00    -0.380 OA
ENDBRANCH  15  16
ENDBRANCH   2  15
BRANCH   2  23
ATOM     23  C   LIG    1        0.391   0.764  -0.434  0.00  0.00    +0.320 C 
BRANCH  23  24
ATOM     24  C   LIG    1        0.157   1.378   0.948  0.00  0.00    -0.080 C 
ATOM     25  C   LIG    1        1.321   2.134   1.591  0.00  0.00    +0.030 C 
ATOM     26  C   LIG    1        0.909   0.763   2.130  0.00  0.00    +0.020 C 
ENDBRANCH  23  24
ENDBRANCH   2  23
TORSDOF 5
