REMARK  Name = ZINCpk00000kOFWh.1
REMARK                            x       y       z     vdW  Elec       q    Type
REMARK                         _______ _______ _______ _____ _____    ______ ____
ROOT
ATOM      1  C   LIG    1        3.939  -0.735   0.019  0.00  0.00    +0.580 C 
ATOM      2  N   LIG    1        5.003   0.091   0.045  0.00  0.00    -0.600 N 
ATOM      3  O   LIG    1        2.813  -0.278   0.029  0.00  0.00    -0.510 OA
ENDROOT
BRANCH   1   8
ATOM      4  C   LIG    1        1.381  -3.947  -3.774  0.00  0.00    +0.190 C 
ATOM      5  C   LIG    1        2.318  -3.843  -2.598  0.00  0.00    +0.300 A 
ATOM      6  N   LIG    1        2.633  -2.734  -1.990  0.00  0.00    -0.470 NA
ATOM      7  C   LIG    1        3.490  -2.996  -0.985  0.00  0.00    +0.070 A 
ATOM      8  C   LIG    1        4.141  -2.199  -0.022  0.00  0.00    -0.000 A 
ATOM      9  C   LIG    1        4.984  -2.836   0.891  0.00  0.00    -0.010 A 
ATOM     10  C   LIG    1        5.148  -4.207   0.820  0.00  0.00    +0.300 A 
ATOM     11  N   LIG    1        4.526  -4.930  -0.089  0.00  0.00    -0.470 NA
ATOM     12  C   LIG    1        3.716  -4.386  -0.980  0.00  0.00    +0.240 A 
ATOM     13  N   LIG    1        2.958  -4.892  -2.016  0.00  0.00    -0.590 N 
ATOM     14  H   LIG    1        2.893  -5.823  -2.279  0.00  0.00    +0.430 HD
ENDBRANCH   1   8
BRANCH   2  15
ATOM     15  C   LIG    1        6.359  -0.458  -0.023  0.00  0.00    +0.300 C 
BRANCH  15  16
ATOM     16  C   LIG    1        6.763  -0.639  -1.488  0.00  0.00    +0.140 C 
ATOM     17  C   LIG    1        8.181  -1.213  -1.560  0.00  0.00    +0.170 C 
ATOM     18  N   LIG    1        8.534  -1.457  -2.966  0.00  0.00    -0.540 NA
ATOM     19  C   LIG    1        7.581  -2.388  -3.588  0.00  0.00    +0.140 C 
ATOM     20  C   LIG    1        6.169  -1.802  -3.496  0.00  0.00    +0.220 C 
ATOM     21  C   LIG    1        9.910  -1.956  -3.084  0.00  0.00    +0.190 C 
ATOM     22  O   LIG    1        5.855  -1.542  -2.125  0.00  0.00    -0.360 OA
ENDBRANCH  15  16
ENDBRANCH   2  15
BRANCH   2  23
ATOM     23  C   LIG    1        4.803   1.540   0.142  0.00  0.00    +0.320 C 
BRANCH  23  24
ATOM     24  C   LIG    1        4.879   1.968   1.609  0.00  0.00    -0.070 C 
ATOM     25  C   LIG    1        3.622   2.577   2.233  0.00  0.00    +0.020 C 
ATOM     26  C   LIG    1        4.824   3.467   1.911  0.00  0.00    +0.030 C 
ENDBRANCH  23  24
ENDBRANCH   2  23
TORSDOF 5
