REMARK  Name = ZINCqH0000038JGy.0
REMARK                            x       y       z     vdW  Elec       q    Type
REMARK                         _______ _______ _______ _____ _____    ______ ____
ROOT
ATOM      1  C   LIG    1       -0.332  -0.919  -1.265  0.00  0.00    +0.620 C 
ATOM      2  N   LIG    1       -0.056  -2.179  -0.877  0.00  0.00    -0.610 N 
ATOM      3  C   LIG    1        1.264  -2.754  -0.527  0.00  0.00    +0.270 C 
ATOM      4  C   LIG    1        0.976  -3.671   0.686  0.00  0.00    +0.080 C 
ATOM      5  C   LIG    1       -0.518  -4.037   0.561  0.00  0.00    -0.070 C 
ATOM      6  C   LIG    1       -0.685  -5.549   0.403  0.00  0.00    +0.040 C 
ATOM      7  C   LIG    1       -1.290  -3.542   1.786  0.00  0.00    +0.040 C 
ATOM      8  C   LIG    1       -1.002  -3.307  -0.710  0.00  0.00    +0.280 C 
ATOM      9  O   LIG    1       -1.485  -0.577  -1.447  0.00  0.00    -0.510 OA
ENDROOT
BRANCH   1  14
ATOM     10  C   LIG    1        3.176   2.685  -0.606  0.00  0.00    +0.170 C 
ATOM     11  C   LIG    1        2.296   1.615  -1.198  0.00  0.00    +0.060 A 
ATOM     12  N   LIG    1        2.340   1.175  -2.429  0.00  0.00    -0.270 NA
ATOM     13  N   LIG    1        1.460   0.260  -2.623  0.00  0.00    -0.250 N 
ATOM     14  C   LIG    1        0.760   0.044  -1.469  0.00  0.00    +0.020 A 
ATOM     15  C   LIG    1        1.288   0.915  -0.529  0.00  0.00    -0.170 A 
ATOM     16 BR   LIG    1        0.752   1.119   1.273  0.00  0.00    +0.000 Br
BRANCH  13  17
ATOM     17  C   LIG    1        1.239  -0.445  -3.888  0.00  0.00    +0.170 C 
ATOM     18  C   LIG    1        1.449  -1.946  -3.679  0.00  0.00    +0.060 C 
ATOM     19  C   LIG    1        2.229   0.067  -4.937  0.00  0.00    +0.080 C 
ATOM     20  C   LIG    1       -0.191  -0.192  -4.370  0.00  0.00    +0.070 C 
ENDBRANCH  13  17
ENDBRANCH   1  14
BRANCH   4  21
ATOM     21  C   LIG    1        1.827  -4.912   0.616  0.00  0.00    -0.220 A 
ATOM     22  C   LIG    1        2.526  -5.457   1.639  0.00  0.00    +0.230 A 
ATOM     23  N   LIG    1        3.153  -6.556   1.169  0.00  0.00    -0.370 N 
ATOM     24  N   LIG    1        2.829  -6.691  -0.187  0.00  0.00    -0.290 NA
ATOM     25  C   LIG    1        4.020  -7.450   1.941  0.00  0.00    +0.360 C 
ATOM     26  C   LIG    1        2.030  -5.709  -0.516  0.00  0.00    +0.240 A 
ENDBRANCH   4  21
TORSDOF 3
