REMARK  Name = ZINCrD00000hQ6zW.0
REMARK                            x       y       z     vdW  Elec       q    Type
REMARK                         _______ _______ _______ _____ _____    ______ ____
ROOT
ATOM      1  N   LIG    1        1.472   2.085   2.429  0.00  0.00    -0.630 N 
ATOM      2  H   LIG    1        0.649   1.593   2.574  0.00  0.00    +0.420 HD
ATOM      3  C   LIG    1        2.197   2.511   3.483  0.00  0.00    +0.520 C 
ATOM      4  O   LIG    1        3.226   3.126   3.302  0.00  0.00    -0.490 OA
ENDROOT
BRANCH   1   6
ATOM      5  C   LIG    1        1.244   1.962   0.001  0.00  0.00    -0.190 A 
ATOM      6  C   LIG    1        1.904   2.349   1.139  0.00  0.00    +0.050 A 
ATOM      7  S   LIG    1        3.330   3.197   0.749  0.00  0.00    +0.310 S 
ATOM      8  C   LIG    1        3.042   3.044  -0.976  0.00  0.00    -0.250 A 
ATOM      9  C   LIG    1        3.947   3.596  -2.046  0.00  0.00    +0.150 C 
ATOM     10  C   LIG    1        1.920   2.378  -1.209  0.00  0.00    -0.050 A 
ATOM     11  C   LIG    1        1.402   2.084  -2.593  0.00  0.00    +0.120 C 
BRANCH   5  12
ATOM     12  C   LIG    1       -0.014   1.212   0.009  0.00  0.00    +0.540 C 
ATOM     13  O   LIG    1        0.002  -0.004   0.002  0.00  0.00    -0.490 OA
BRANCH  12  14
ATOM     14  O   LIG    1       -1.192   1.871   0.018  0.00  0.00    -0.350 OA
BRANCH  14  16
ATOM     15  C   LIG    1       -3.624   1.979   0.030  0.00  0.00    +0.070 C 
ATOM     16  C   LIG    1       -2.398   1.063   0.019  0.00  0.00    +0.200 C 
ENDBRANCH  14  16
ENDBRANCH  12  14
ENDBRANCH   5  12
ENDBRANCH   1   6
BRANCH   3  17
ATOM     17  C   LIG    1        1.728   2.224   4.886  0.00  0.00    +0.080 C 
BRANCH  17  18
ATOM     18  C   LIG    1        2.723   2.812   5.887  0.00  0.00    +0.300 C 
ATOM     19  N   LIG    1        2.720   4.278   5.781  0.00  0.00    -0.740 N 
ATOM     20  H   LIG    1        3.423   4.745   5.302  0.00  0.00    +0.420 HD
ATOM     21  C   LIG    1        1.672   4.982   6.391  0.00  0.00    +0.160 A 
ATOM     22  C   LIG    1        1.258   6.207   5.900  0.00  0.00    -0.010 A 
ATOM     23  C   LIG    1        0.239   6.893   6.536  0.00  0.00    +0.030 A 
ATOM     24  C   LIG    1       -0.362   6.359   7.661  0.00  0.00    +0.000 A 
ATOM     25  C   LIG    1        0.045   5.133   8.155  0.00  0.00    +0.010 A 
ATOM     26  C   LIG    1        1.056   4.433   7.517  0.00  0.00    +0.090 A 
ATOM     27  N   LIG    1        1.478   3.188   8.000  0.00  0.00    -0.650 N 
ATOM     28  H   LIG    1        1.157   2.875   8.860  0.00  0.00    +0.410 HD
ATOM     29  C   LIG    1        2.322   2.421   7.287  0.00  0.00    +0.510 C 
ATOM     30  O   LIG    1        2.765   1.403   7.776  0.00  0.00    -0.520 OA
ENDBRANCH  17  18
ENDBRANCH   3  17
TORSDOF 6
