REMARK  Name = ZINCqH0000001tgX.0
REMARK                            x       y       z     vdW  Elec       q    Type
REMARK                         _______ _______ _______ _____ _____    ______ ____
ROOT
ATOM      1  N   LIG    1       -1.156  -0.694   0.009  0.00  0.00    -0.720 N 
ATOM      2  H   LIG    1       -2.002  -0.220   0.020  0.00  0.00    +0.400 HD
ATOM      3  C   LIG    1        0.002  -0.004   0.002  0.00  0.00    +0.560 C 
ATOM      4  O   LIG    1        1.063  -0.598  -0.011  0.00  0.00    -0.540 OA
ENDROOT
BRANCH   1   8
ATOM      5  C   LIG    1       -3.508  -2.692  -1.634  0.00  0.00    +0.150 C 
ATOM      6  C   LIG    1       -3.627  -2.191  -0.193  0.00  0.00    +0.020 C 
ATOM      7  C   LIG    1       -2.430  -2.690   0.621  0.00  0.00    +0.030 C 
ATOM      8  C   LIG    1       -1.136  -2.159   0.001  0.00  0.00    +0.230 C 
ATOM      9  C   LIG    1       -1.017  -2.659  -1.440  0.00  0.00    +0.010 C 
ATOM     10  C   LIG    1       -2.213  -2.161  -2.253  0.00  0.00    -0.010 C 
BRANCH   5  11
ATOM     11  O   LIG    1       -4.625  -2.226  -2.393  0.00  0.00    -0.380 OA
BRANCH  11  13
ATOM     12  C   LIG    1       -6.038  -4.106  -2.950  0.00  0.00    +0.010 C 
ATOM     13  C   LIG    1       -5.007  -3.098  -3.460  0.00  0.00    +0.140 C 
ATOM     14  C   LIG    1       -5.616  -2.276  -4.597  0.00  0.00    +0.040 C 
ENDBRANCH  11  13
ENDBRANCH   5  11
ENDBRANCH   1   8
BRANCH   3  15
ATOM     15  C   LIG    1       -0.018   1.472   0.010  0.00  0.00    -0.180 A 
ATOM     16  C   LIG    1       -1.236   2.156   0.020  0.00  0.00    +0.090 A 
ATOM     17  C   LIG    1       -1.251   3.533   0.033  0.00  0.00    -0.090 A 
ATOM     18  C   LIG    1       -0.056   4.242   0.025  0.00  0.00    +0.160 A 
ATOM     19  C   LIG    1        1.159   3.566   0.010  0.00  0.00    -0.020 A 
ATOM     20  C   LIG    1        1.181   2.189   0.003  0.00  0.00    +0.120 A 
BRANCH  18  21
ATOM     21  O   LIG    1       -0.074   5.599   0.033  0.00  0.00    -0.300 OA
BRANCH  21  22
ATOM     22  C   LIG    1       -1.356   6.231   0.049  0.00  0.00    +0.200 C 
BRANCH  22  23
ATOM     23  C   LIG    1       -1.176   7.750   0.055  0.00  0.00    +0.170 C 
ATOM     24  C   LIG    1       -2.551   8.439   0.188  0.00  0.00    +0.020 C 
ATOM     25  C   LIG    1       -2.404   9.654  -0.769  0.00  0.00    +0.010 C 
ATOM     26  C   LIG    1       -1.502   9.050  -1.874  0.00  0.00    +0.190 C 
ATOM     27  O   LIG    1       -0.596   8.176  -1.183  0.00  0.00    -0.370 OA
ENDBRANCH  22  23
ENDBRANCH  21  22
ENDBRANCH  18  21
ENDBRANCH   3  15
TORSDOF 7
