REMARK  Name = ZINCrD000000AdDW.0
REMARK                            x       y       z     vdW  Elec       q    Type
REMARK                         _______ _______ _______ _____ _____    ______ ____
ROOT
ATOM      1  O   LIG    1       -0.112  -2.661  -0.113  0.00  0.00    -0.520 OA
ATOM      2  C   LIG    1       -1.173  -2.073  -0.099  0.00  0.00    +0.510 C 
ATOM      3  N   LIG    1       -1.197  -0.730   0.010  0.00  0.00    -0.670 N 
ATOM      4  H   LIG    1       -2.044  -0.266   0.098  0.00  0.00    +0.410 HD
ENDROOT
BRANCH   3   5
ATOM      5  C   LIG    1        0.002  -0.004  -0.004  0.00  0.00    +0.070 A 
ATOM      6  C   LIG    1        1.087  -0.448  -0.757  0.00  0.00    +0.090 A 
ATOM      7  C   LIG    1        2.250   0.301  -0.742  0.00  0.00    -0.020 A 
ATOM      8  C   LIG    1        2.298   1.463   0.020  0.00  0.00    +0.290 A 
ATOM      9  N   LIG    1        1.247   1.855   0.724  0.00  0.00    -0.500 NA
ATOM     10  C   LIG    1        0.122   1.165   0.732  0.00  0.00    +0.260 A 
BRANCH   8  11
ATOM     11  N   LIG    1        3.464   2.224   0.042  0.00  0.00    -0.470 N 
ATOM     12  C   LIG    1        4.612   1.414   0.474  0.00  0.00    +0.180 C 
ATOM     13  C   LIG    1        5.880   2.271   0.427  0.00  0.00    +0.230 C 
ATOM     14  O   LIG    1        5.696   3.430   1.245  0.00  0.00    -0.380 OA
ATOM     15  C   LIG    1        4.587   4.242   0.852  0.00  0.00    +0.220 C 
ATOM     16  C   LIG    1        3.306   3.405   0.903  0.00  0.00    +0.190 C 
ENDBRANCH   8  11
ENDBRANCH   3   5
BRANCH   2  17
ATOM     17  C   LIG    1       -2.463  -2.844  -0.204  0.00  0.00    +0.060 C 
BRANCH  17  18
ATOM     18  C   LIG    1       -2.156  -4.339  -0.317  0.00  0.00    +0.040 C 
BRANCH  18  19
ATOM     19  C   LIG    1       -3.467  -5.122  -0.423  0.00  0.00    +0.100 C 
BRANCH  19  20
ATOM     20  C   LIG    1       -3.165  -6.594  -0.534  0.00  0.00    -0.170 A 
ATOM     21  C   LIG    1       -3.068  -7.306  -1.667  0.00  0.00    +0.220 A 
ATOM     22  N   LIG    1       -2.778  -8.611  -1.375  0.00  0.00    -0.600 N 
ATOM     23  H   LIG    1       -2.658  -9.316  -2.031  0.00  0.00    +0.420 HD
ATOM     24  C   LIG    1       -2.689  -8.777  -0.011  0.00  0.00    +0.090 A 
ATOM     25  C   LIG    1       -2.428  -9.872   0.805  0.00  0.00    -0.010 A 
ATOM     26  C   LIG    1       -2.407  -9.716   2.174  0.00  0.00    +0.020 A 
ATOM     27  C   LIG    1       -2.643  -8.474   2.748  0.00  0.00    -0.030 A 
ATOM     28  C   LIG    1       -2.900  -7.385   1.965  0.00  0.00    +0.050 A 
ATOM     29  C   LIG    1       -2.927  -7.521   0.576  0.00  0.00    -0.100 A 
ENDBRANCH  19  20
ENDBRANCH  18  19
ENDBRANCH  17  18
ENDBRANCH   2  17
TORSDOF 6
