REMARK  Name = ZINCvU0000000Fvb.0
REMARK                            x       y       z     vdW  Elec       q    Type
REMARK                         _______ _______ _______ _____ _____    ______ ____
ROOT
ATOM      1  O   LIG    1        4.223   8.622   0.742  0.00  0.00    -0.560 OA
ATOM      2  C   LIG    1        4.540   7.582   1.287  0.00  0.00    +0.720 C 
ATOM      3  N   LIG    1        4.951   7.592   2.570  0.00  0.00    -0.570 N 
ATOM      4  C   LIG    1        5.149   6.338   3.318  0.00  0.00    +0.300 C 
ATOM      5  C   LIG    1        4.597   6.561   4.733  0.00  0.00    +0.200 C 
ATOM      6  N   LIG    1        5.357   7.635   5.380  0.00  0.00    -0.480 N 
ATOM      7  C   LIG    1        5.400   8.807   4.623  0.00  0.00    +0.080 A 
ATOM      8  C   LIG    1        5.644  10.015   5.269  0.00  0.00    -0.010 A 
ATOM      9  C   LIG    1        5.714  11.190   4.542  0.00  0.00    +0.020 A 
ATOM     10  C   LIG    1        5.526  11.176   3.172  0.00  0.00    +0.010 A 
ATOM     11  C   LIG    1        5.275   9.982   2.522  0.00  0.00    +0.050 A 
ATOM     12  C   LIG    1        5.212   8.800   3.243  0.00  0.00    +0.140 A 
ATOM     13  N   LIG    1        4.479   6.420   0.607  0.00  0.00    -0.630 N 
ATOM     14  C   LIG    1        3.601   6.281  -0.562  0.00  0.00    +0.310 C 
ATOM     15  C   LIG    1        2.699   5.060  -0.360  0.00  0.00    +0.020 C 
ATOM     16  C   LIG    1        3.567   3.831  -0.076  0.00  0.00    +0.250 C 
ATOM     17  C   LIG    1        4.369   4.057   1.207  0.00  0.00    +0.000 C 
ATOM     18  C   LIG    1        5.290   5.267   1.022  0.00  0.00    +0.260 C 
ENDROOT
BRANCH  16  19
ATOM     19  N   LIG    1        2.709   2.655   0.085  0.00  0.00    -0.740 N 
ATOM     20  H   LIG    1        1.787   2.762   0.367  0.00  0.00    +0.400 HD
BRANCH  19  21
ATOM     21  C   LIG    1        3.218   1.379  -0.168  0.00  0.00    +0.220 A 
ATOM     22  C   LIG    1        4.538   1.224  -0.572  0.00  0.00    -0.060 A 
ATOM     23  C   LIG    1        5.040  -0.038  -0.821  0.00  0.00    +0.070 A 
ATOM     24  C   LIG    1        4.229  -1.148  -0.669  0.00  0.00    -0.020 A 
ATOM     25  C   LIG    1        2.914  -0.998  -0.266  0.00  0.00    -0.040 A 
ATOM     26 BR   LIG    1        1.810  -2.519  -0.059  0.00  0.00    -0.050 Br
ATOM     27  C   LIG    1        2.406   0.262  -0.015  0.00  0.00    -0.040 A 
ENDBRANCH  19  21
ENDBRANCH  16  19
BRANCH   6  28
ATOM     28  C   LIG    1        4.847   7.899   6.732  0.00  0.00    +0.250 C 
BRANCH  28  29
ATOM     29  C   LIG    1        5.086   6.674   7.616  0.00  0.00    +0.460 C 
ATOM     30  F   LIG    1        4.309   5.606   7.154  0.00  0.00    -0.180 F 
ATOM     31  F   LIG    1        4.730   6.973   8.935  0.00  0.00    -0.180 F 
ATOM     32  F   LIG    1        6.439   6.321   7.568  0.00  0.00    -0.170 F 
ENDBRANCH  28  29
ENDBRANCH   6  28
TORSDOF 4
