REMARK  Name = ZINCqH0000006ZOh.0
REMARK                            x       y       z     vdW  Elec       q    Type
REMARK                         _______ _______ _______ _____ _____    ______ ____
ROOT
ATOM      1  C   LIG    1       -1.777   2.858   1.279  0.00  0.00    +0.230 A 
ATOM      2  N   LIG    1       -2.192   2.837   2.525  0.00  0.00    -0.270 NA
ATOM      3  N   LIG    1       -1.345   2.208   3.259  0.00  0.00    -0.290 NA
ATOM      4  C   LIG    1       -0.340   1.783   2.526  0.00  0.00    +0.140 A 
ATOM      5  N   LIG    1       -0.581   2.178   1.241  0.00  0.00    -0.450 N 
ENDROOT
BRANCH   1   9
ATOM      6  C   LIG    1       -3.760   4.670  -2.013  0.00  0.00    +0.150 A 
ATOM      7  C   LIG    1       -2.987   3.533  -2.210  0.00  0.00    -0.010 A 
ATOM      8  C   LIG    1       -2.342   2.942  -1.145  0.00  0.00    +0.060 A 
ATOM      9  C   LIG    1       -2.466   3.489   0.134  0.00  0.00    -0.060 A 
ATOM     10  C   LIG    1       -3.248   4.629   0.329  0.00  0.00    +0.110 A 
ATOM     11  C   LIG    1       -3.885   5.217  -0.742  0.00  0.00    -0.070 A 
BRANCH   6  13
ATOM     12  C   LIG    1       -5.172   6.417  -2.792  0.00  0.00    +0.240 C 
ATOM     13  O   LIG    1       -4.394   5.250  -3.065  0.00  0.00    -0.310 OA
ENDBRANCH   6  13
ENDBRANCH   1   9
BRANCH   5  14
ATOM     14  C   LIG    1        0.261   1.933   0.067  0.00  0.00    +0.240 C 
ATOM     15  C   LIG    1        1.678   2.440   0.342  0.00  0.00    +0.070 C 
ATOM     16  C   LIG    1        0.303   0.432  -0.227  0.00  0.00    +0.070 C 
ENDBRANCH   5  14
BRANCH   4  17
ATOM     17  S   LIG    1        1.057   0.874   3.096  0.00  0.00    +0.090 S 
BRANCH  17  18
ATOM     18  C   LIG    1        0.655   0.750   4.856  0.00  0.00    +0.100 C 
BRANCH  18  19
ATOM     19  C   LIG    1        1.744  -0.012   5.567  0.00  0.00    +0.540 C 
ATOM     20  N   LIG    1        1.658  -0.229   6.895  0.00  0.00    -0.720 N 
ATOM     21  H   LIG    1        0.895   0.105   7.393  0.00  0.00    +0.400 HD
ATOM     22  O   LIG    1        2.697  -0.430   4.945  0.00  0.00    -0.520 OA
BRANCH  20  23
ATOM     23  C   LIG    1        2.716  -0.970   7.586  0.00  0.00    +0.240 C 
ATOM     24  C   LIG    1        2.446  -2.471   7.472  0.00  0.00    +0.020 C 
BRANCH  23  25
ATOM     25  C   LIG    1        2.740  -0.567   9.062  0.00  0.00    -0.020 C 
ATOM     26  C   LIG    1        3.010   0.935   9.176  0.00  0.00    +0.030 C 
ATOM     27  C   LIG    1        3.845  -1.340   9.784  0.00  0.00    +0.030 C 
ENDBRANCH  23  25
ENDBRANCH  20  23
ENDBRANCH  18  19
ENDBRANCH  17  18
ENDBRANCH   4  17
TORSDOF 8
