REMARK  Name = ZINCpe00000MJIcv.1
REMARK                            x       y       z     vdW  Elec       q    Type
REMARK                         _______ _______ _______ _____ _____    ______ ____
ROOT
ATOM      1  C   LIG    1       -1.030  -0.953  -0.295  0.00  0.00    +0.550 C 
ATOM      2  N   LIG    1       -1.069  -2.299  -0.241  0.00  0.00    -0.610 N 
ATOM      3  C   LIG    1        0.164  -3.087  -0.075  0.00  0.00    +0.250 C 
ATOM      4  C   LIG    1       -0.052  -4.076   1.081  0.00  0.00    +0.210 C 
ATOM      5  O   LIG    1       -1.252  -4.817   0.846  0.00  0.00    -0.350 OA
ATOM      6  C   LIG    1       -2.437  -4.018   0.814  0.00  0.00    +0.140 C 
ATOM      7  C   LIG    1       -2.344  -3.025  -0.350  0.00  0.00    +0.260 C 
ATOM      8  O   LIG    1       -2.065  -0.316  -0.344  0.00  0.00    -0.540 OA
ENDROOT
BRANCH   1  10
ATOM      9  C   LIG    1        0.304   1.081  -0.451  0.00  0.00    +0.120 C 
ATOM     10  C   LIG    1        0.261  -0.256  -0.297  0.00  0.00    -0.040 C 
BRANCH   9  17
ATOM     11  C   LIG    1        0.365   3.953  -0.785  0.00  0.00    +0.110 C 
ATOM     12  C   LIG    1        1.640   3.168  -0.613  0.00  0.00    -0.110 A 
ATOM     13  C   LIG    1        2.866   3.810  -0.612  0.00  0.00    +0.060 A 
ATOM     14  C   LIG    1        4.013   3.047  -0.450  0.00  0.00    -0.020 A 
ATOM     15  C   LIG    1        3.902   1.676  -0.296  0.00  0.00    +0.260 A 
ATOM     16  N   LIG    1        2.725   1.088  -0.296  0.00  0.00    -0.470 NA
ATOM     17  C   LIG    1        1.601   1.781  -0.453  0.00  0.00    +0.130 A 
ENDBRANCH   9  17
ENDBRANCH   1  10
BRANCH   6  18
ATOM     18  C   LIG    1       -3.658  -4.920   0.620  0.00  0.00    +0.200 C 
BRANCH  18  19
ATOM     19  N   LIG    1       -3.759  -5.855   1.748  0.00  0.00    -0.530 NA
ATOM     20  C   LIG    1       -4.765  -6.893   1.483  0.00  0.00    +0.180 C 
ATOM     21  C   LIG    1       -4.784  -7.890   2.644  0.00  0.00    +0.180 C 
ATOM     22  N   LIG    1       -5.083  -7.178   3.894  0.00  0.00    -0.550 NA
ATOM     23  C   LIG    1       -4.077  -6.140   4.159  0.00  0.00    +0.180 C 
ATOM     24  C   LIG    1       -5.185  -8.113   5.022  0.00  0.00    +0.190 C 
ATOM     25  C   LIG    1       -4.058  -5.143   2.998  0.00  0.00    +0.170 C 
ENDBRANCH  18  19
ENDBRANCH   6  18
TORSDOF 4
