REMARK  Name = ZINCpe00000MJJu0.2
REMARK                            x       y       z     vdW  Elec       q    Type
REMARK                         _______ _______ _______ _____ _____    ______ ____
ROOT
ATOM      1  N   LIG    1        0.469   3.794   1.448  0.00  0.00    -0.500 NA
ATOM      2  C   LIG    1        1.259   4.483   2.490  0.00  0.00    +0.160 C 
ATOM      3  C   LIG    1        2.434   5.142   1.725  0.00  0.00    +0.180 C 
ATOM      4  C   LIG    1        2.746   4.071   0.647  0.00  0.00    +0.010 C 
ATOM      5  F   LIG    1        3.533   5.340   2.567  0.00  0.00    -0.200 F 
ATOM      6  C   LIG    1        1.351   3.508   0.302  0.00  0.00    +0.180 C 
ENDROOT
BRANCH   1   7
ATOM      7  C   LIG    1       -0.130   2.559   1.972  0.00  0.00    +0.310 C 
BRANCH   7  10
ATOM      8  C   LIG    1       -3.054   3.364   2.162  0.00  0.00    +0.150 C 
ATOM      9  C   LIG    1       -2.149   3.216   3.358  0.00  0.00    +0.080 A 
ATOM     10  C   LIG    1       -0.865   2.861   3.253  0.00  0.00    -0.220 A 
ATOM     11  S   LIG    1       -0.184   2.800   4.877  0.00  0.00    +0.090 S 
ATOM     12  C   LIG    1       -1.691   3.269   5.535  0.00  0.00    +0.220 A 
ATOM     13  N   LIG    1       -2.558   3.427   4.593  0.00  0.00    -0.470 NA
ENDBRANCH   7  10
ENDBRANCH   1   7
BRANCH   6  14
ATOM     14  C   LIG    1        1.440   1.997   0.077  0.00  0.00    +0.160 C 
BRANCH  14  15
ATOM     15  N   LIG    1        0.116   1.478  -0.292  0.00  0.00    -0.520 NA
ATOM     16  C   LIG    1       -0.309   2.001  -1.598  0.00  0.00    +0.210 C 
BRANCH  15  17
ATOM     17  C   LIG    1        0.106   0.009  -0.285  0.00  0.00    +0.240 C 
BRANCH  17  18
ATOM     18  C   LIG    1       -1.312  -0.484  -0.425  0.00  0.00    +0.550 C 
ATOM     19  N   LIG    1       -1.566  -1.807  -0.443  0.00  0.00    -0.580 N 
ATOM     20  C   LIG    1       -2.898  -2.417  -0.567  0.00  0.00    +0.280 C 
ATOM     21  C   LIG    1       -2.615  -3.932  -0.536  0.00  0.00    +0.270 C 
ATOM     22  N   LIG    1       -1.155  -4.014  -0.388  0.00  0.00    -0.730 N 
ATOM     23  H   LIG    1       -0.641  -4.835  -0.332  0.00  0.00    +0.440 HD
ATOM     24  C   LIG    1       -0.646  -2.776  -0.344  0.00  0.00    +0.700 C 
ATOM     25  O   LIG    1        0.542  -2.551  -0.225  0.00  0.00    -0.550 OA
ATOM     26  O   LIG    1       -2.223   0.310  -0.521  0.00  0.00    -0.480 OA
ENDBRANCH  17  18
ENDBRANCH  15  17
ENDBRANCH  14  15
ENDBRANCH   6  14
TORSDOF 6
