REMARK  Name = ZINCrg00000A2sMs.0
REMARK                            x       y       z     vdW  Elec       q    Type
REMARK                         _______ _______ _______ _____ _____    ______ ____
ROOT
ATOM      1  C   LIG    1       -2.551   1.064  -4.788  0.00  0.00    +0.510 C 
ATOM      2  N   LIG    1       -2.025   1.549  -3.646  0.00  0.00    -0.610 N 
ATOM      3  C   LIG    1       -0.627   2.002  -3.591  0.00  0.00    +0.300 C 
ATOM      4  C   LIG    1        0.059   1.323  -2.401  0.00  0.00    +0.170 C 
ATOM      5  N   LIG    1       -0.723   1.572  -1.182  0.00  0.00    -0.530 NA
ATOM      6  C   LIG    1       -2.062   0.976  -1.276  0.00  0.00    +0.170 C 
ATOM      7  C   LIG    1       -2.834   1.641  -2.421  0.00  0.00    +0.290 C 
ATOM      8  O   LIG    1       -1.869   0.996  -5.789  0.00  0.00    -0.520 OA
ENDROOT
BRANCH   1   9
ATOM      9  C   LIG    1       -3.986   0.606  -4.821  0.00  0.00    +0.360 C 
BRANCH   9  15
ATOM     10  C   LIG    1       -5.820  -2.118  -8.180  0.00  0.00    +0.090 C 
ATOM     11  C   LIG    1       -4.624  -1.179  -8.016  0.00  0.00    +0.160 C 
ATOM     12  N   LIG    1       -5.019   0.215  -8.280  0.00  0.00    -0.720 N 
ATOM     13  H   LIG    1       -5.368   0.571  -9.113  0.00  0.00    +0.440 HD
ATOM     14  C   LIG    1       -4.807   0.898  -7.141  0.00  0.00    +0.710 C 
ATOM     15  N   LIG    1       -4.314   0.126  -6.166  0.00  0.00    -0.560 N 
ATOM     16  O   LIG    1       -5.035   2.085  -7.012  0.00  0.00    -0.540 OA
ATOM     17  C   LIG    1       -4.162  -1.151  -6.572  0.00  0.00    +0.540 C 
ATOM     18  O   LIG    1       -3.744  -2.082  -5.919  0.00  0.00    -0.460 OA
BRANCH  11  19
ATOM     19  C   LIG    1       -3.479  -1.601  -8.939  0.00  0.00    -0.040 C 
ATOM     20  C   LIG    1       -2.908  -0.544  -9.886  0.00  0.00    +0.040 C 
ATOM     21  C   LIG    1       -3.772  -1.680 -10.438  0.00  0.00    +0.040 C 
ENDBRANCH  11  19
ENDBRANCH   9  15
ENDBRANCH   1   9
BRANCH   5  22
ATOM     22  C   LIG    1       -0.013   1.086   0.008  0.00  0.00    +0.230 C 
BRANCH  22  23
ATOM     23  C   LIG    1       -0.718   1.572   1.248  0.00  0.00    -0.080 A 
ATOM     24  C   LIG    1       -0.360   2.779   1.819  0.00  0.00    +0.020 A 
ATOM     25  C   LIG    1       -1.010   3.227   2.953  0.00  0.00    +0.000 A 
ATOM     26  C   LIG    1       -2.012   2.463   3.523  0.00  0.00    +0.000 A 
ATOM     27  C   LIG    1       -2.366   1.254   2.955  0.00  0.00    +0.000 A 
ATOM     28  C   LIG    1       -1.719   0.808   1.818  0.00  0.00    +0.000 A 
ENDBRANCH  22  23
ENDBRANCH   5  22
TORSDOF 5
