REMARK  Name = ZINCpk000005aRka.0
REMARK                            x       y       z     vdW  Elec       q    Type
REMARK                         _______ _______ _______ _____ _____    ______ ____
ROOT
ATOM      1  N   LIG    1       -2.564   2.373   4.716  0.00  0.00    -0.450 N 
ATOM      2  C   LIG    1       -2.014   1.424   5.511  0.00  0.00    +0.370 A 
ATOM      3  N   LIG    1       -1.087   0.795   4.834  0.00  0.00    -0.480 NA
ATOM      4  C   LIG    1       -1.020   1.313   3.609  0.00  0.00    +0.010 A 
ATOM      5  C   LIG    1       -0.093   0.902   2.467  0.00  0.00    +0.240 C 
ATOM      6  C   LIG    1        1.262   1.523   2.761  0.00  0.00    -0.020 C 
ATOM      7  C   LIG    1        2.433   0.771   2.143  0.00  0.00    +0.200 C 
ATOM      8  O   LIG    1        2.339  -0.617   2.465  0.00  0.00    -0.370 OA
ATOM      9  C   LIG    1        1.188  -1.235   1.889  0.00  0.00    +0.200 C 
ATOM     10  C   LIG    1       -0.081  -0.619   2.454  0.00  0.00    +0.030 C 
ATOM     11  N   LIG    1       -0.692   1.442   1.248  0.00  0.00    -0.560 NA
ATOM     12  C   LIG    1       -0.979   2.877   1.321  0.00  0.00    +0.200 C 
ATOM     13  C   LIG    1       -2.155   3.128   2.275  0.00  0.00    +0.110 C 
ATOM     14  C   LIG    1       -1.932   2.300   3.514  0.00  0.00    -0.010 A 
ENDROOT
BRANCH   1  16
ATOM     15  C   LIG    1       -4.983   2.725   4.639  0.00  0.00    +0.030 C 
ATOM     16  C   LIG    1       -3.637   3.300   5.084  0.00  0.00    +0.290 C 
ENDBRANCH   1  16
BRANCH  11  17
ATOM     17  C   LIG    1       -0.013   1.086   0.008  0.00  0.00    +0.190 C 
BRANCH  17  18
ATOM     18  C   LIG    1       -0.943   1.352  -1.178  0.00  0.00    +0.190 C 
BRANCH  18  19
ATOM     19  N   LIG    1       -0.252   1.008  -2.428  0.00  0.00    -0.540 NA
ATOM     20  C   LIG    1        0.416  -0.297  -2.319  0.00  0.00    +0.150 C 
ATOM     21  C   LIG    1        1.170  -0.589  -3.619  0.00  0.00    +0.220 C 
ATOM     22  O   LIG    1        0.254  -0.539  -4.717  0.00  0.00    -0.380 OA
ATOM     23  C   LIG    1       -0.414   0.718  -4.853  0.00  0.00    +0.160 C 
ATOM     24  C   LIG    1       -1.390   0.654  -6.029  0.00  0.00    +0.050 C 
ATOM     25  C   LIG    1       -1.184   1.023  -3.565  0.00  0.00    +0.160 C 
ENDBRANCH  18  19
ENDBRANCH  17  18
ENDBRANCH  11  17
TORSDOF 4
