REMARK  Name = ZINCpk00001AZj3N.1
REMARK                            x       y       z     vdW  Elec       q    Type
REMARK                         _______ _______ _______ _____ _____    ______ ____
ROOT
ATOM      1  N   LIG    1       -4.278  -4.633   1.078  0.00  0.00    -0.540 NA
ATOM      2  C   LIG    1       -3.445  -5.011  -0.073  0.00  0.00    +0.200 C 
ATOM      3  C   LIG    1       -2.111  -4.264  -0.001  0.00  0.00    +0.200 C 
ATOM      4  N   LIG    1       -2.364  -2.816   0.009  0.00  0.00    -0.490 N 
ATOM      5  C   LIG    1       -3.196  -2.438   1.160  0.00  0.00    +0.210 C 
ATOM      6  C   LIG    1       -4.530  -3.185   1.088  0.00  0.00    +0.190 C 
ENDROOT
BRANCH   4   7
ATOM      7  C   LIG    1       -1.165  -2.099   0.002  0.00  0.00    +0.110 A 
ATOM      8  C   LIG    1        0.049  -2.773  -0.014  0.00  0.00    +0.000 A 
ATOM      9  C   LIG    1        1.233  -2.061  -0.021  0.00  0.00    +0.050 A 
ATOM     10  C   LIG    1        1.210  -0.678  -0.013  0.00  0.00    +0.040 A 
ATOM     11  C   LIG    1        0.002  -0.004   0.002  0.00  0.00    -0.160 A 
ATOM     12  C   LIG    1       -1.185  -0.710   0.015  0.00  0.00    +0.050 A 
BRANCH  11  13
ATOM     13  C   LIG    1       -0.018   1.503   0.010  0.00  0.00    +0.510 C 
ATOM     14  F   LIG    1       -0.673   1.954   1.161  0.00  0.00    -0.180 F 
ATOM     15  F   LIG    1       -0.695   1.966  -1.123  0.00  0.00    -0.180 F 
ATOM     16  F   LIG    1        1.294   1.987   0.000  0.00  0.00    -0.180 F 
ENDBRANCH  11  13
ENDBRANCH   4   7
BRANCH   1  17
ATOM     17  C   LIG    1       -5.538  -5.387   1.086  0.00  0.00    +0.180 C 
BRANCH  17  18
ATOM     18  C   LIG    1       -6.262  -5.157   2.414  0.00  0.00    +0.020 C 
BRANCH  18  19
ATOM     19  C   LIG    1       -7.575  -5.943   2.422  0.00  0.00    +0.270 C 
BRANCH  19  22
ATOM     20  O   LIG    1       -9.947  -7.038   3.085  0.00  0.00    -0.490 OA
ATOM     21  C   LIG    1       -9.454  -6.319   3.928  0.00  0.00    +0.490 C 
ATOM     22  N   LIG    1       -8.268  -5.722   3.694  0.00  0.00    -0.720 N 
ATOM     23  H   LIG    1       -7.873  -5.147   4.368  0.00  0.00    +0.410 HD
BRANCH  21  24
ATOM     24  C   LIG    1      -10.166  -6.092   5.236  0.00  0.00    +0.290 C 
ATOM     25 CL   LIG    1      -11.638  -7.130   5.306  0.00  0.00    -0.110 Cl
ATOM     26  F   LIG    1       -9.313  -6.420   6.295  0.00  0.00    -0.170 F 
ENDBRANCH  21  24
ENDBRANCH  19  22
ENDBRANCH  18  19
ENDBRANCH  17  18
ENDBRANCH   1  17
TORSDOF 7
