REMARK  Name = ZINCpk00000l7UcB.0
REMARK                            x       y       z     vdW  Elec       q    Type
REMARK                         _______ _______ _______ _____ _____    ______ ____
ROOT
ATOM      1  O   LIG    1        5.696   2.703  -8.107  0.00  0.00    -0.540 OA
ATOM      2  C   LIG    1        5.314   2.491  -6.976  0.00  0.00    +0.520 C 
ATOM      3  C   LIG    1        3.882   2.796  -6.640  0.00  0.00    +0.090 C 
ATOM      4  C   LIG    1        3.486   2.076  -5.349  0.00  0.00    +0.040 C 
ATOM      5  C   LIG    1        4.562   2.349  -4.292  0.00  0.00    +0.100 C 
ATOM      6  C   LIG    1        5.856   1.656  -4.720  0.00  0.00    +0.280 C 
ATOM      7  N   LIG    1        6.188   2.001  -6.096  0.00  0.00    -0.600 N 
ENDROOT
BRANCH   5   8
ATOM      8  C   LIG    1        4.113   1.804  -2.960  0.00  0.00    +0.180 A 
ATOM      9  N   LIG    1        3.816   0.567  -2.696  0.00  0.00    -0.360 NA
ATOM     10  O   LIG    1        3.490   0.452  -1.534  0.00  0.00    +0.100 OA
ATOM     11  C   LIG    1        3.550   1.642  -0.927  0.00  0.00    +0.150 A 
ATOM     12  N   LIG    1        3.941   2.510  -1.828  0.00  0.00    -0.450 NA
BRANCH  11  13
ATOM     13  C   LIG    1        3.225   1.931   0.516  0.00  0.00    +0.490 C 
BRANCH  13  14
ATOM     14  N   LIG    1        1.804   2.266   0.638  0.00  0.00    -0.470 N 
ATOM     15  C   LIG    1        1.254   3.516   0.546  0.00  0.00    +0.130 A 
ATOM     16  C   LIG    1       -0.074   3.371   0.717  0.00  0.00    +0.150 A 
ATOM     17  N   LIG    1       -0.329   2.067   0.903  0.00  0.00    -0.490 NA
ATOM     18  C   LIG    1        0.792   1.400   0.862  0.00  0.00    +0.400 A 
ENDBRANCH  13  14
ENDBRANCH  11  13
ENDBRANCH   5   8
BRANCH   7  19
ATOM     19  C   LIG    1        7.569   1.795  -6.542  0.00  0.00    +0.290 C 
BRANCH  19  20
ATOM     20  C   LIG    1        8.416   3.008  -6.152  0.00  0.00    -0.030 C 
ATOM     21  C   LIG    1        7.939   4.237  -6.931  0.00  0.00    +0.010 C 
ATOM     22  C   LIG    1        8.844   5.426  -6.596  0.00  0.00    +0.200 C 
ATOM     23  O   LIG    1       10.199   5.097  -6.907  0.00  0.00    -0.380 OA
ATOM     24  C   LIG    1       10.713   3.984  -6.172  0.00  0.00    +0.210 C 
ATOM     25  C   LIG    1        9.885   2.737  -6.492  0.00  0.00    +0.000 C 
ENDBRANCH  19  20
ENDBRANCH   7  19
TORSDOF 5
