REMARK  Name = ZINCrD00000l8kB4.0
REMARK                            x       y       z     vdW  Elec       q    Type
REMARK                         _______ _______ _______ _____ _____    ______ ____
ROOT
ATOM      1  N   LIG    1        4.111   4.225   2.723  0.00  0.00    -0.720 N 
ATOM      2  H   LIG    1        3.609   4.976   2.368  0.00  0.00    +0.400 HD
ATOM      3  C   LIG    1        5.409   4.378   3.053  0.00  0.00    +0.560 C 
ATOM      4  O   LIG    1        6.038   3.437   3.498  0.00  0.00    -0.520 OA
ENDROOT
BRANCH   3   5
ATOM      5  C   LIG    1        6.066   5.685   2.873  0.00  0.00    -0.130 A 
ATOM      6  C   LIG    1        5.348   6.769   2.362  0.00  0.00    +0.070 A 
ATOM      7  C   LIG    1        5.967   7.988   2.196  0.00  0.00    +0.040 A 
ATOM      8  C   LIG    1        7.303   8.146   2.535  0.00  0.00    -0.000 A 
ATOM      9  C   LIG    1        8.026   7.083   3.043  0.00  0.00    +0.040 A 
ATOM     10 CL   LIG    1        8.070   9.689   2.321  0.00  0.00    -0.050 Cl
ATOM     11  C   LIG    1        7.416   5.850   3.221  0.00  0.00    +0.220 A 
BRANCH  11  12
ATOM     12  N   LIG    1        8.142   4.779   3.737  0.00  0.00    -0.570 N 
ATOM     13  C   LIG    1        8.896   3.820   2.921  0.00  0.00    +0.270 C 
ATOM     14  C   LIG    1        9.862   3.116   3.903  0.00  0.00    +0.040 C 
ATOM     15  C   LIG    1        9.108   3.267   5.245  0.00  0.00    +0.060 C 
ATOM     16  C   LIG    1        8.236   4.487   5.046  0.00  0.00    +0.540 C 
ATOM     17  O   LIG    1        7.700   5.111   5.937  0.00  0.00    -0.520 OA
ENDBRANCH  11  12
ENDBRANCH   3   5
BRANCH   1  18
ATOM     18  C   LIG    1        3.458   2.926   2.901  0.00  0.00    +0.280 C 
BRANCH  18  19
ATOM     19  C   LIG    1        1.998   3.024   2.454  0.00  0.00    -0.030 C 
ATOM     20  C   LIG    1        1.942   3.302   0.951  0.00  0.00    +0.030 C 
BRANCH  19  21
ATOM     21  C   LIG    1        1.283   1.705   2.756  0.00  0.00    +0.340 C 
BRANCH  21  28
ATOM     22  C   LIG    1       -0.013   1.086   0.008  0.00  0.00    +0.140 C 
ATOM     23  C   LIG    1       -0.718   1.572   1.248  0.00  0.00    +0.090 A 
ATOM     24  C   LIG    1       -2.042   1.825   1.365  0.00  0.00    -0.120 A 
ATOM     25  C   LIG    1       -2.284   2.253   2.675  0.00  0.00    +0.070 A 
ATOM     26  N   LIG    1       -1.145   2.264   3.318  0.00  0.00    -0.300 NA
ATOM     27  C   LIG    1       -3.625   2.639   3.244  0.00  0.00    +0.160 C 
ATOM     28  N   LIG    1       -0.141   1.838   2.438  0.00  0.00    -0.370 N 
ENDBRANCH  21  28
ENDBRANCH  19  21
ENDBRANCH  18  19
ENDBRANCH   1  18
TORSDOF 6
