REMARK  Name = ZINCrD000000C8lr.0
REMARK                            x       y       z     vdW  Elec       q    Type
REMARK                         _______ _______ _______ _____ _____    ______ ____
ROOT
ATOM      1  C   LIG    1       -1.494   1.844   0.216  0.00  0.00    -0.170 A 
ATOM      2  C   LIG    1       -0.353   1.067   0.431  0.00  0.00    +0.150 A 
ATOM      3  C   LIG    1        0.883   1.672   0.518  0.00  0.00    -0.010 A 
ATOM      4  C   LIG    1        0.994   3.048   0.397  0.00  0.00    +0.230 A 
ATOM      5  C   LIG    1       -0.136   3.825   0.189  0.00  0.00    -0.720 A 
ATOM      6  F   LIG    1        2.208   3.635   0.483  0.00  0.00    -0.110 F 
ATOM      7  C   LIG    1       -1.376   3.231   0.101  0.00  0.00    +0.240 A 
ENDROOT
BRANCH   1   9
ATOM      8  O   LIG    1       -3.811   1.880  -0.071  0.00  0.00    -0.500 OA
ATOM      9  C   LIG    1       -2.820   1.202   0.116  0.00  0.00    +0.560 C 
ATOM     10  N   LIG    1       -2.931  -0.137   0.233  0.00  0.00    -0.670 N 
ATOM     11  H   LIG    1       -2.152  -0.670   0.456  0.00  0.00    +0.410 HD
BRANCH  10  12
ATOM     12  C   LIG    1       -4.168  -0.756   0.031  0.00  0.00    +0.140 A 
ATOM     13  C   LIG    1       -5.055  -0.236  -0.899  0.00  0.00    +0.010 A 
ATOM     14  C   LIG    1       -6.277  -0.850  -1.096  0.00  0.00    +0.030 A 
ATOM     15  C   LIG    1       -6.608  -1.972  -0.365  0.00  0.00    -0.010 A 
ATOM     16  C   LIG    1       -5.723  -2.497   0.570  0.00  0.00    -0.060 A 
ATOM     17  C   LIG    1       -6.156  -3.719   1.336  0.00  0.00    +0.080 C 
ATOM     18  C   LIG    1       -4.951  -4.409   1.973  0.00  0.00    +0.020 C 
ATOM     19  C   LIG    1       -4.150  -3.360   2.753  0.00  0.00    +0.020 C 
ATOM     20  C   LIG    1       -3.489  -2.416   1.751  0.00  0.00    +0.060 C 
ATOM     21  C   LIG    1       -4.501  -1.897   0.763  0.00  0.00    -0.100 A 
ENDBRANCH  10  12
ENDBRANCH   1   9
BRANCH   5  22
ATOM     22  S   LIG    1        0.015   5.574   0.037  0.00  0.00    +2.700 S 
ATOM     23  O   LIG    1       -1.303   6.077  -0.131  0.00  0.00    -0.940 OA
ATOM     24  O   LIG    1        1.061   5.807  -0.897  0.00  0.00    -0.940 OA
BRANCH  22  25
ATOM     25  N   LIG    1        0.553   6.148   1.494  0.00  0.00    -1.080 NA
ATOM     26  H   LIG    1        1.426   6.565   1.559  0.00  0.00    +0.420 HD
BRANCH  25  27
ATOM     27  C   LIG    1       -0.291   6.027   2.685  0.00  0.00    +0.220 C 
ATOM     28  C   LIG    1       -0.213   7.149   3.723  0.00  0.00    +0.030 C 
ATOM     29  C   LIG    1        0.408   5.784   4.024  0.00  0.00    +0.010 C 
ENDBRANCH  25  27
ENDBRANCH  22  25
ENDBRANCH   5  22
TORSDOF 5
