REMARK  Name = ZINCrH00000No4x2.0
REMARK                            x       y       z     vdW  Elec       q    Type
REMARK                         _______ _______ _______ _____ _____    ______ ____
ROOT
ATOM      1  C   LIG    1       -1.229   0.527  -2.214  0.00  0.00    +0.560 C 
ATOM      2  N   LIG    1       -0.121   1.180  -1.811  0.00  0.00    -0.620 N 
ATOM      3  C   LIG    1        0.244   2.455  -2.433  0.00  0.00    +0.290 C 
ATOM      4  O   LIG    1       -1.532  -0.533  -1.698  0.00  0.00    -0.540 OA
ENDROOT
BRANCH   1   6
ATOM      5  C   LIG    1       -3.152   0.419  -3.643  0.00  0.00    +0.180 C 
ATOM      6  C   LIG    1       -2.040   1.074  -3.239  0.00  0.00    -0.140 C 
BRANCH   5  10
ATOM      7  C   LIG    1       -4.982   3.499  -7.270  0.00  0.00    +0.140 C 
ATOM      8  C   LIG    1       -4.787   2.358  -6.305  0.00  0.00    +0.020 A 
ATOM      9  C   LIG    1       -3.777   2.246  -5.425  0.00  0.00    -0.030 A 
ATOM     10  C   LIG    1       -3.992   0.985  -4.705  0.00  0.00    -0.180 A 
ATOM     11  C   LIG    1       -5.150   0.444  -5.227  0.00  0.00    +0.070 A 
ATOM     12  C   LIG    1       -5.788  -0.854  -4.803  0.00  0.00    +0.140 C 
ATOM     13  N   LIG    1       -5.610   1.278  -6.181  0.00  0.00    -0.410 N 
BRANCH  13  14
ATOM     14  C   LIG    1       -6.823   1.055  -6.973  0.00  0.00    +0.170 C 
ATOM     15  C   LIG    1       -7.803   2.222  -7.107  0.00  0.00    +0.050 C 
ATOM     16  C   LIG    1       -8.158   1.022  -6.226  0.00  0.00    +0.040 C 
ENDBRANCH  13  14
ENDBRANCH   5  10
ENDBRANCH   1   6
BRANCH   2  17
ATOM     17  C   LIG    1        0.718   0.615  -0.751  0.00  0.00    +0.330 C 
BRANCH  17  18
ATOM     18  C   LIG    1        0.234   1.123   0.608  0.00  0.00    +0.110 C 
ATOM     19  C   LIG    1        1.183   0.635   1.711  0.00  0.00    +0.230 C 
ATOM     20  O   LIG    1        0.695   1.116   2.968  0.00  0.00    -0.310 OA
ATOM     21  C   LIG    1       -0.638   0.967   3.204  0.00  0.00    +0.040 A 
ATOM     22  C   LIG    1       -1.115   1.069   4.502  0.00  0.00    +0.020 A 
ATOM     23  C   LIG    1       -2.466   0.924   4.756  0.00  0.00    +0.010 A 
ATOM     24  C   LIG    1       -3.344   0.676   3.719  0.00  0.00    +0.020 A 
ATOM     25  C   LIG    1       -2.875   0.572   2.422  0.00  0.00    +0.020 A 
ATOM     26  C   LIG    1       -1.521   0.716   2.160  0.00  0.00    +0.060 A 
ATOM     27  O   LIG    1       -1.073   0.605   0.880  0.00  0.00    -0.280 OA
ENDBRANCH  17  18
ENDBRANCH   2  17
TORSDOF 5
