REMARK  Name = ZINCpe000000Y6pM.0
REMARK                            x       y       z     vdW  Elec       q    Type
REMARK                         _______ _______ _______ _____ _____    ______ ____
ROOT
ATOM      1  C   LIG    1        0.934   9.801  -1.233  0.00  0.00    +0.270 C 
ENDROOT
BRANCH   1   3
ATOM      2  C   LIG    1        2.207  11.830  -0.783  0.00  0.00    +0.510 C 
ATOM      3  N   LIG    1        2.080  10.496  -0.641  0.00  0.00    -0.740 N 
ATOM      4  H   LIG    1        2.748   9.996  -0.146  0.00  0.00    +0.400 HD
ATOM      5  O   LIG    1        1.372  12.456  -1.402  0.00  0.00    -0.520 OA
BRANCH   2   6
ATOM      6  C   LIG    1        3.385  12.545  -0.174  0.00  0.00    +0.140 C 
BRANCH   6  14
ATOM      7  C   LIG    1        1.935  14.723   1.614  0.00  0.00    +0.150 C 
ATOM      8  C   LIG    1        2.651  14.980   0.313  0.00  0.00    +0.090 A 
ATOM      9  N   LIG    1        2.781  16.142  -0.275  0.00  0.00    -0.300 NA
ATOM     10  N   LIG    1        3.509  15.956  -1.457  0.00  0.00    -0.370 N 
ATOM     11  C   LIG    1        3.814  14.645  -1.555  0.00  0.00    +0.100 A 
ATOM     12  C   LIG    1        4.595  13.995  -2.668  0.00  0.00    +0.140 C 
ATOM     13  C   LIG    1        3.878  17.001  -2.415  0.00  0.00    +0.350 C 
ATOM     14  C   LIG    1        3.290  14.018  -0.476  0.00  0.00    -0.230 A 
ENDBRANCH   6  14
ENDBRANCH   2   6
ENDBRANCH   1   3
BRANCH   1  15
ATOM     15  C   LIG    1        1.031   8.305  -0.927  0.00  0.00    +0.260 C 
BRANCH  15  16
ATOM     16  N   LIG    1       -0.115   7.611  -1.519  0.00  0.00    -1.120 NA
ATOM     17  H   LIG    1       -0.886   8.116  -1.821  0.00  0.00    +0.420 HD
BRANCH  16  18
ATOM     18  S   LIG    1       -0.094   5.962  -1.674  0.00  0.00    +2.610 S 
ATOM     19  O   LIG    1       -1.332   5.653  -2.299  0.00  0.00    -0.950 OA
ATOM     20  O   LIG    1        1.141   5.687  -2.321  0.00  0.00    -0.950 OA
BRANCH  18  21
ATOM     21  C   LIG    1       -0.070   5.347   0.032  0.00  0.00    -0.300 C 
BRANCH  21  22
ATOM     22  C   LIG    1       -0.050   3.840   0.023  0.00  0.00    -0.100 A 
ATOM     23  C   LIG    1        1.156   3.165   0.008  0.00  0.00    +0.030 A 
ATOM     24  C   LIG    1        1.175   1.783   0.000  0.00  0.00    +0.010 A 
ATOM     25  C   LIG    1       -0.013   1.076   0.008  0.00  0.00    +0.020 A 
ATOM     26  C   LIG    1       -1.219   1.751   0.017  0.00  0.00    +0.010 A 
ATOM     27  C   LIG    1       -1.238   3.133   0.029  0.00  0.00    +0.030 A 
ENDBRANCH  21  22
ENDBRANCH  18  21
ENDBRANCH  16  18
ENDBRANCH  15  16
ENDBRANCH   1  15
TORSDOF 8
