REMARK  Name = ZINCrH000004tcVC.0
REMARK                            x       y       z     vdW  Elec       q    Type
REMARK                         _______ _______ _______ _____ _____    ______ ____
ROOT
ATOM      1  C   LIG    1       -1.222  -0.883   0.009  0.00  0.00    +0.110 C 
ATOM      2  C   LIG    1       -2.073  -0.585  -1.228  0.00  0.00    +0.030 C 
ATOM      3  C   LIG    1       -3.343  -1.439  -1.183  0.00  0.00    +0.050 C 
ATOM      4  C   LIG    1       -4.105  -1.142   0.111  0.00  0.00    +0.210 C 
ATOM      5  N   LIG    1       -3.249  -1.444   1.265  0.00  0.00    -0.450 N 
ATOM      6  C   LIG    1       -2.045  -0.603   1.268  0.00  0.00    +0.240 C 
ENDROOT
BRANCH   5   7
ATOM      7  C   LIG    1       -3.950  -1.312   2.451  0.00  0.00    +0.500 A 
ATOM      8  N   LIG    1       -3.486  -0.497   3.387  0.00  0.00    -0.550 NA
ATOM      9  C   LIG    1       -4.127  -0.343   4.535  0.00  0.00    +0.360 A 
ATOM     10  C   LIG    1       -5.300  -1.045   4.755  0.00  0.00    -0.060 A 
ATOM     11  C   LIG    1       -5.764  -1.897   3.749  0.00  0.00    +0.250 A 
ATOM     12  N   LIG    1       -5.069  -1.998   2.618  0.00  0.00    -0.520 NA
BRANCH  11  13
ATOM     13  C   LIG    1       -7.015  -2.671   3.937  0.00  0.00    +0.100 A 
ATOM     14  C   LIG    1       -7.471  -3.519   2.928  0.00  0.00    +0.280 A 
ATOM     15  N   LIG    1       -8.585  -4.206   3.099  0.00  0.00    -0.440 NA
ATOM     16  C   LIG    1       -9.267  -4.092   4.225  0.00  0.00    +0.250 A 
ATOM     17  C   LIG    1       -8.817  -3.251   5.230  0.00  0.00    +0.240 A 
ATOM     18  N   LIG    1       -7.702  -2.564   5.069  0.00  0.00    -0.420 NA
ENDBRANCH  11  13
ENDBRANCH   5   7
BRANCH   1  22
ATOM     19  C   LIG    1        2.175   0.474  -0.016  0.00  0.00    -0.020 A 
ATOM     20  C   LIG    1        1.740   1.738  -0.005  0.00  0.00    -0.020 A 
ATOM     21  S   LIG    1       -0.021   1.706   0.011  0.00  0.00    +0.200 S 
ATOM     22  C   LIG    1        0.002  -0.004   0.002  0.00  0.00    +0.060 A 
ATOM     23  N   LIG    1        1.219  -0.432  -0.012  0.00  0.00    -0.440 NA
BRANCH  19  25
ATOM     24  F   LIG    1        4.080   0.012  -1.355  0.00  0.00    -0.170 F 
ATOM     25  C   LIG    1        3.639   0.116  -0.032  0.00  0.00    +0.550 C 
ATOM     26  F   LIG    1        3.826  -1.108   0.620  0.00  0.00    -0.160 F 
ATOM     27  F   LIG    1        4.370   1.111   0.626  0.00  0.00    -0.170 F 
ENDBRANCH  19  25
ENDBRANCH   1  22
TORSDOF 4
