REMARK  Name = ZINCqH0000032LVs.0
REMARK                            x       y       z     vdW  Elec       q    Type
REMARK                         _______ _______ _______ _____ _____    ______ ____
ROOT
ATOM      1  N   LIG    1       -3.433   3.447   0.390  0.00  0.00    -0.720 N 
ATOM      2  H   LIG    1       -3.411   2.478   0.437  0.00  0.00    +0.400 HD
ATOM      3  C   LIG    1       -2.283   4.149   0.405  0.00  0.00    +0.560 C 
ATOM      4  O   LIG    1       -2.310   5.363   0.346  0.00  0.00    -0.500 OA
ENDROOT
BRANCH   1   9
ATOM      5  C   LIG    1       -8.665   4.227   1.433  0.00  0.00    +0.520 C 
ATOM      6  N   LIG    1       -7.462   4.497   0.890  0.00  0.00    -0.620 N 
ATOM      7  C   LIG    1       -7.098   3.961  -0.429  0.00  0.00    +0.290 C 
ATOM      8  C   LIG    1       -5.766   3.215  -0.308  0.00  0.00    +0.010 C 
ATOM      9  C   LIG    1       -4.717   4.147   0.303  0.00  0.00    +0.250 C 
ATOM     10  C   LIG    1       -5.163   4.571   1.705  0.00  0.00    +0.000 C 
ATOM     11  C   LIG    1       -6.488   5.332   1.606  0.00  0.00    +0.280 C 
ATOM     12  O   LIG    1       -9.495   3.615   0.794  0.00  0.00    -0.540 OA
BRANCH   5  13
ATOM     13  C   LIG    1       -8.980   4.684   2.834  0.00  0.00    -0.020 C 
BRANCH  13  15
ATOM     14  C   LIG    1       -9.899   6.560   4.204  0.00  0.00    +0.030 C 
ATOM     15  C   LIG    1       -9.691   6.037   2.781  0.00  0.00    +0.030 C 
ENDBRANCH  13  15
BRANCH  13  16
ATOM     16  C   LIG    1       -9.888   3.657   3.514  0.00  0.00    +0.040 C 
ATOM     17  C   LIG    1       -9.129   2.341   3.688  0.00  0.00    +0.010 C 
ENDBRANCH  13  16
ENDBRANCH   5  13
ENDBRANCH   1   9
BRANCH   3  18
ATOM     18  C   LIG    1       -0.991   3.445   0.493  0.00  0.00    -0.190 A 
ATOM     19  C   LIG    1       -0.944   2.047   0.556  0.00  0.00    +0.120 A 
ATOM     20  C   LIG    1        0.294   1.434   0.642  0.00  0.00    -0.050 A 
ATOM     21  C   LIG    1        1.440   2.210   0.653  0.00  0.00    +0.320 A 
ATOM     22  N   LIG    1        1.375   3.525   0.588  0.00  0.00    -0.490 NA
ATOM     23  C   LIG    1        0.217   4.164   0.509  0.00  0.00    +0.160 A 
BRANCH  23  24
ATOM     24  S   LIG    1        0.191   5.924   0.425  0.00  0.00    +0.050 S 
BRANCH  24  25
ATOM     25  C   LIG    1        1.967   6.268   0.482  0.00  0.00    -0.020 C 
ATOM     26  C   LIG    1        2.192   7.780   0.546  0.00  0.00    +0.050 C 
ATOM     27  C   LIG    1        2.637   5.705  -0.773  0.00  0.00    +0.050 C 
ENDBRANCH  24  25
ENDBRANCH  23  24
ENDBRANCH   3  18
TORSDOF 7
