REMARK  Name = ZINCpk00000xIgJC.0
REMARK                            x       y       z     vdW  Elec       q    Type
REMARK                         _______ _______ _______ _____ _____    ______ ____
ROOT
ATOM      1  C   LIG    1       -1.817   2.001   7.387  0.00  0.00    +0.180 C 
ATOM      2  C   LIG    1       -0.353   1.807   6.937  0.00  0.00    +0.280 C 
ATOM      3  N   LIG    1        0.196   3.180   6.847  0.00  0.00    -0.610 N 
ATOM      4  C   LIG    1       -0.909   3.978   6.265  0.00  0.00    +0.270 C 
ATOM      5  C   LIG    1        1.421   3.607   7.210  0.00  0.00    +0.570 C 
ATOM      6  O   LIG    1        2.192   2.844   7.758  0.00  0.00    -0.500 OA
ATOM      7  C   LIG    1       -2.183   3.433   6.944  0.00  0.00    +0.110 C 
ENDROOT
BRANCH   5   8
ATOM      8  C   LIG    1        1.828   5.006   6.943  0.00  0.00    -0.030 A 
ATOM      9  C   LIG    1        1.503   5.630   5.735  0.00  0.00    +0.000 A 
ATOM     10  C   LIG    1        1.903   6.936   5.527  0.00  0.00    +0.310 A 
ATOM     11  N   LIG    1        2.580   7.592   6.448  0.00  0.00    -0.460 NA
ATOM     12  C   LIG    1        2.907   7.041   7.601  0.00  0.00    +0.340 A 
ATOM     13  C   LIG    1        2.543   5.741   7.894  0.00  0.00    -0.200 A 
BRANCH  13  14
ATOM     14  C   LIG    1        2.916   5.122   9.216  0.00  0.00    +0.510 C 
ATOM     15  F   LIG    1        3.717   3.997   8.996  0.00  0.00    -0.150 F 
ATOM     16  F   LIG    1        1.754   4.741   9.897  0.00  0.00    -0.170 F 
ATOM     17  F   LIG    1        3.621   6.054   9.985  0.00  0.00    -0.180 F 
ENDBRANCH  13  14
ENDBRANCH   5   8
BRANCH   7  18
ATOM     18  C   LIG    1       -3.327   3.401   5.963  0.00  0.00    -0.010 A 
ATOM     19  C   LIG    1       -3.247   3.160   4.634  0.00  0.00    +0.140 A 
ATOM     20  N   LIG    1       -4.513   3.231   4.161  0.00  0.00    -0.290 N 
ATOM     21  N   LIG    1       -5.297   3.502   5.146  0.00  0.00    -0.080 NA
ATOM     22  C   LIG    1       -4.921   3.038   2.767  0.00  0.00    +0.370 C 
ATOM     23  N   LIG    1       -4.621   3.604   6.235  0.00  0.00    -0.250 NA
ENDBRANCH   7  18
BRANCH   1  25
ATOM     24  C   LIG    1       -2.270   0.567   9.254  0.00  0.00    +0.200 C 
ATOM     25  O   LIG    1       -1.920   1.879   8.807  0.00  0.00    -0.370 OA
ENDBRANCH   1  25
TORSDOF 4
