REMARK  Name = ZINCvU00000004kS.0
REMARK                            x       y       z     vdW  Elec       q    Type
REMARK                         _______ _______ _______ _____ _____    ______ ____
ROOT
ATOM      1  C   LIG    1        1.572   6.147  -0.040  0.00  0.00    +0.230 A 
ATOM      2  N   LIG    1        0.314   5.803   0.110  0.00  0.00    -0.250 NA
ATOM      3  N   LIG    1        0.216   4.524   0.196  0.00  0.00    -0.280 NA
ATOM      4  C   LIG    1        1.405   3.973   0.105  0.00  0.00    +0.160 A 
ATOM      5  N   LIG    1        2.310   4.986  -0.042  0.00  0.00    -0.450 N 
ENDROOT
BRANCH   1  12
ATOM      6  F   LIG    1       -0.115   8.378  -0.398  0.00  0.00    -0.110 F 
ATOM      7  C   LIG    1        1.218   8.595  -0.351  0.00  0.00    +0.150 A 
ATOM      8  C   LIG    1        1.716   9.877  -0.477  0.00  0.00    +0.000 A 
ATOM      9  C   LIG    1        3.080  10.100  -0.429  0.00  0.00    +0.070 A 
ATOM     10  C   LIG    1        3.955   9.042  -0.255  0.00  0.00    +0.020 A 
ATOM     11  C   LIG    1        3.471   7.756  -0.123  0.00  0.00    +0.040 A 
ATOM     12  C   LIG    1        2.096   7.522  -0.175  0.00  0.00    -0.050 A 
ENDBRANCH   1  12
BRANCH   4  13
ATOM     13  S   LIG    1        1.767   2.250   0.170  0.00  0.00    +0.060 S 
BRANCH  13  14
ATOM     14  C   LIG    1        0.096   1.586   0.381  0.00  0.00    +0.270 C 
BRANCH  14  15
ATOM     15  C   LIG    1        0.160   0.083   0.463  0.00  0.00    +0.190 A 
ATOM     16  N   LIG    1        0.305  -0.630   1.551  0.00  0.00    -0.450 NA
ATOM     17  C   LIG    1        0.304  -1.921   1.143  0.00  0.00    +0.250 A 
ATOM     18  N   LIG    1        0.167  -1.913  -0.161  0.00  0.00    -0.360 NA
ATOM     19  O   LIG    1        0.084  -0.772  -0.562  0.00  0.00    +0.100 OA
BRANCH  17  20
ATOM     20  C   LIG    1        0.437  -3.115   2.003  0.00  0.00    -0.140 A 
ATOM     21  C   LIG    1        0.433  -4.392   1.571  0.00  0.00    +0.070 A 
ATOM     22  C   LIG    1        0.577  -5.337   2.563  0.00  0.00    +0.010 A 
ATOM     23  C   LIG    1        0.688  -4.846   3.801  0.00  0.00    -0.030 A 
ATOM     24  S   LIG    1        0.619  -3.090   3.753  0.00  0.00    +0.190 S 
ENDBRANCH  17  20
ENDBRANCH  14  15
ENDBRANCH  13  14
ENDBRANCH   4  13
BRANCH   5  25
ATOM     25  C   LIG    1        3.764   4.862  -0.177  0.00  0.00    +0.360 C 
BRANCH  25  26
ATOM     26  C   LIG    1        4.387   4.743   1.190  0.00  0.00    -0.130 A 
ATOM     27  C   LIG    1        4.642   5.880   1.934  0.00  0.00    +0.020 A 
ATOM     28  C   LIG    1        5.209   5.770   3.190  0.00  0.00    +0.010 A 
ATOM     29  C   LIG    1        5.531   4.525   3.697  0.00  0.00    +0.030 A 
ATOM     30  C   LIG    1        5.281   3.389   2.951  0.00  0.00    +0.010 A 
ATOM     31  C   LIG    1        4.709   3.498   1.697  0.00  0.00    +0.040 A 
ENDBRANCH  25  26
ENDBRANCH   5  25
TORSDOF 7
