REMARK  Name = ZINCvU00000008E3.0
REMARK                            x       y       z     vdW  Elec       q    Type
REMARK                         _______ _______ _______ _____ _____    ______ ____
ROOT
ATOM      1  C   LIG    1        1.295   1.759  -0.001  0.00  0.00    +0.160 A 
ATOM      2  N   LIG    1        2.023   0.666  -0.014  0.00  0.00    -0.280 NA
ATOM      3  N   LIG    1        1.265  -0.371  -0.012  0.00  0.00    -0.240 NA
ATOM      4  C   LIG    1        0.002  -0.004   0.002  0.00  0.00    +0.260 A 
ATOM      5  N   LIG    1       -0.017   1.373   0.010  0.00  0.00    -0.450 N 
ENDROOT
BRANCH   4   6
ATOM      6  C   LIG    1       -1.168  -0.895   0.009  0.00  0.00    +0.070 A 
ATOM      7  C   LIG    1       -1.163  -2.225  -0.289  0.00  0.00    +0.040 A 
ATOM      8  C   LIG    1       -2.490  -2.676  -0.152  0.00  0.00    +0.020 A 
ATOM      9  C   LIG    1       -3.235  -1.611   0.209  0.00  0.00    -0.020 A 
ATOM     10 BR   LIG    1       -5.099  -1.627   0.527  0.00  0.00    +0.070 Br
ATOM     11  O   LIG    1       -2.434  -0.537   0.306  0.00  0.00    -0.160 OA
ENDBRANCH   4   6
BRANCH   1  12
ATOM     12  S   LIG    1        1.896   3.416   0.002  0.00  0.00    +0.080 S 
BRANCH  12  13
ATOM     13  C   LIG    1        3.679   3.102  -0.016  0.00  0.00    +0.110 C 
BRANCH  13  14
ATOM     14  C   LIG    1        4.420   4.415  -0.016  0.00  0.00    +0.390 C 
ATOM     15  O   LIG    1        3.806   5.455  -0.005  0.00  0.00    -0.400 OA
BRANCH  14  16
ATOM     16  C   LIG    1        5.926   4.430  -0.031  0.00  0.00    +0.240 C 
BRANCH  16  21
ATOM     17  C   LIG    1        8.399   6.966   3.445  0.00  0.00    +0.160 C 
ATOM     18  C   LIG    1        7.522   6.825   2.228  0.00  0.00    +0.070 A 
ATOM     19  C   LIG    1        7.030   7.877   1.566  0.00  0.00    -0.080 A 
ATOM     20  S   LIG    1        6.068   7.269   0.221  0.00  0.00    +0.200 S 
ATOM     21  C   LIG    1        6.423   5.661   0.682  0.00  0.00    +0.010 A 
ATOM     22  N   LIG    1        7.174   5.655   1.731  0.00  0.00    -0.440 NA
ENDBRANCH  16  21
BRANCH  16  23
ATOM     23  C   LIG    1        6.404   4.442  -1.423  0.00  0.00    +0.200 C 
ATOM     24  N   LIG    1        6.772   4.452  -2.498  0.00  0.00    -0.370 NA
ENDBRANCH  16  23
ENDBRANCH  14  16
ENDBRANCH  13  14
ENDBRANCH  12  13
ENDBRANCH   1  12
BRANCH   5  25
ATOM     25  C   LIG    1       -1.196   2.243   0.020  0.00  0.00    +0.370 C 
BRANCH  25  26
ATOM     26  C   LIG    1       -1.593   2.534   1.445  0.00  0.00    -0.130 A 
ATOM     27  C   LIG    1       -2.490   1.706   2.094  0.00  0.00    +0.030 A 
ATOM     28  C   LIG    1       -2.850   1.970   3.402  0.00  0.00    +0.010 A 
ATOM     29  C   LIG    1       -2.322   3.067   4.058  0.00  0.00    +0.030 A 
ATOM     30  C   LIG    1       -1.429   3.897   3.406  0.00  0.00    +0.010 A 
ATOM     31  C   LIG    1       -1.064   3.630   2.100  0.00  0.00    +0.040 A 
ENDBRANCH  25  26
ENDBRANCH   5  25
TORSDOF 9
