REMARK  Name = ZINCnE000005rJb9.0
REMARK                            x       y       z     vdW  Elec       q    Type
REMARK                         _______ _______ _______ _____ _____    ______ ____
ROOT
ATOM      1  C   LIG    1       -1.373   2.418  -0.704  0.00  0.00    +0.600 C 
ATOM      2  N   LIG    1       -2.443   2.044   0.026  0.00  0.00    -0.660 N 
ATOM      3  H   LIG    1       -2.445   1.187   0.479  0.00  0.00    +0.400 HD
ATOM      4  O   LIG    1       -1.408   3.449  -1.350  0.00  0.00    -0.500 OA
ENDROOT
BRANCH   1   8
ATOM      5  C   LIG    1        1.637  -0.075  -0.486  0.00  0.00    +0.070 A 
ATOM      6  N   LIG    1        1.905   0.930  -1.256  0.00  0.00    -0.480 NA
ATOM      7  C   LIG    1        0.973   1.837  -1.409  0.00  0.00    +0.160 A 
ATOM      8  C   LIG    1       -0.167   1.584  -0.718  0.00  0.00    -0.310 A 
ATOM      9  C   LIG    1        1.151   3.057  -2.276  0.00  0.00    +0.170 C 
ATOM     10  S   LIG    1        0.058   0.069   0.153  0.00  0.00    +0.160 S 
BRANCH   5  12
ATOM     11  C   LIG    1        3.428  -0.868   1.035  0.00  0.00    +0.040 C 
ATOM     12  C   LIG    1        2.584  -1.210  -0.194  0.00  0.00    +0.140 C 
ENDBRANCH   5  12
ENDBRANCH   1   8
BRANCH   2  13
ATOM     13  C   LIG    1       -3.550   2.892   0.128  0.00  0.00    +0.120 A 
ATOM     14  C   LIG    1       -3.374   4.270   0.133  0.00  0.00    +0.020 A 
ATOM     15  C   LIG    1       -4.470   5.104   0.229  0.00  0.00    +0.030 A 
ATOM     16  C   LIG    1       -5.741   4.569   0.332  0.00  0.00    -0.040 A 
ATOM     17  C   LIG    1       -5.920   3.198   0.333  0.00  0.00    +0.030 A 
ATOM     18  C   LIG    1       -4.828   2.358   0.232  0.00  0.00    -0.020 A 
BRANCH  16  19
ATOM     19  C   LIG    1       -6.935   5.483   0.443  0.00  0.00    +0.000 C 
ATOM     20  C   LIG    1       -6.700   6.980   0.234  0.00  0.00    +0.020 C 
ATOM     21  C   LIG    1       -6.984   6.439   1.636  0.00  0.00    -0.100 C 
BRANCH  21  22
ATOM     22  C   LIG    1       -8.335   6.734   2.235  0.00  0.00    +0.520 C 
ATOM     23  O   LIG    1       -9.303   6.892   1.510  0.00  0.00    -0.690 OA
ATOM     24  O   LIG    1       -8.461   6.816   3.445  0.00  0.00    -0.700 OA
ENDBRANCH  21  22
ENDBRANCH  16  19
ENDBRANCH   2  13
TORSDOF 5
