REMARK  Name = ZINCpk000000mRdP.0
REMARK                            x       y       z     vdW  Elec       q    Type
REMARK                         _______ _______ _______ _____ _____    ______ ____
ROOT
ATOM      1  C   LIG    1       -2.127   0.375   4.183  0.00  0.00    +0.100 C 
ATOM      2  C   LIG    1       -2.590   1.774   3.870  0.00  0.00    +0.520 C 
ATOM      3  N   LIG    1       -2.631   2.200   2.592  0.00  0.00    -0.610 N 
ATOM      4  C   LIG    1       -3.182   3.539   2.275  0.00  0.00    +0.280 C 
ATOM      5  C   LIG    1       -2.091   4.492   2.015  0.00  0.00    -0.010 C 
ATOM      6  C   LIG    1       -1.192   4.029   0.856  0.00  0.00    +0.280 C 
ATOM      7  N   LIG    1       -0.309   3.016   1.360  0.00  0.00    -0.620 N 
ATOM      8  C   LIG    1       -0.633   1.566   1.262  0.00  0.00    +0.280 C 
ATOM      9  C   LIG    1        0.850   3.388   1.939  0.00  0.00    +0.710 C 
ATOM     10  N   LIG    1        1.117   4.694   2.133  0.00  0.00    -0.740 N 
ATOM     11  H   LIG    1        0.510   5.369   1.792  0.00  0.00    +0.400 HD
ATOM     12  O   LIG    1        1.654   2.544   2.287  0.00  0.00    -0.590 OA
ATOM     13  C   LIG    1       -2.142   1.356   1.538  0.00  0.00    +0.270 C 
ATOM     14  O   LIG    1       -2.927   2.517   4.768  0.00  0.00    -0.540 OA
ENDROOT
BRANCH  10  15
ATOM     15  C   LIG    1        2.325   5.095   2.860  0.00  0.00    +0.350 C 
BRANCH  15  16
ATOM     16  C   LIG    1        2.388   6.598   2.938  0.00  0.00    -0.190 A 
ATOM     17  C   LIG    1        1.806   7.270   4.005  0.00  0.00    +0.110 A 
ATOM     18  C   LIG    1        1.887   8.651   4.039  0.00  0.00    -0.040 A 
ATOM     19  C   LIG    1        2.544   9.315   3.009  0.00  0.00    +0.310 A 
ATOM     20  N   LIG    1        3.086   8.639   2.008  0.00  0.00    -0.520 NA
ATOM     21  C   LIG    1        3.030   7.322   1.953  0.00  0.00    +0.310 A 
BRANCH  19  22
ATOM     22  N   LIG    1        2.633  10.702   3.031  0.00  0.00    -0.460 N 
ATOM     23  C   LIG    1        3.401  11.168   4.214  0.00  0.00    +0.190 C 
ATOM     24  C   LIG    1        3.842  12.598   3.809  0.00  0.00    +0.040 C 
ATOM     25  C   LIG    1        4.153  12.450   2.302  0.00  0.00    +0.020 C 
ATOM     26  C   LIG    1        3.368  11.205   1.849  0.00  0.00    +0.200 C 
ENDBRANCH  19  22
ENDBRANCH  15  16
ENDBRANCH  10  15
TORSDOF 3
