REMARK  Name = ZINCrD0000072NYN.0
REMARK                            x       y       z     vdW  Elec       q    Type
REMARK                         _______ _______ _______ _____ _____    ______ ____
ROOT
ATOM      1  C   LIG    1       -1.192   3.558   0.032  0.00  0.00    +0.470 A 
ATOM      2  N   LIG    1       -0.054   4.195   0.234  0.00  0.00    -0.540 NA
ATOM      3  C   LIG    1        1.115   3.540   0.225  0.00  0.00    +0.310 A 
ATOM      4  C   LIG    1        2.426   3.960   0.406  0.00  0.00    -0.260 A 
ATOM      5  C   LIG    1        3.245   2.845   0.291  0.00  0.00    +0.290 A 
ATOM      6  N   LIG    1        2.499   1.791   0.052  0.00  0.00    -0.320 NA
ATOM      7  C   LIG    1        2.878   5.371   0.680  0.00  0.00    +0.120 C 
ATOM      8  N   LIG    1        1.157   2.188   0.004  0.00  0.00    -0.330 N 
ATOM      9  C   LIG    1       -0.010   1.492  -0.211  0.00  0.00    +0.270 A 
ATOM     10  C   LIG    1       -1.195   2.171  -0.204  0.00  0.00    -0.090 A 
ENDROOT
BRANCH   1  15
ATOM     11  C   LIG    1       -4.560   3.969   1.120  0.00  0.00    +0.020 C 
ATOM     12  C   LIG    1       -4.684   5.495   1.141  0.00  0.00    +0.060 C 
ATOM     13  C   LIG    1       -3.300   6.117   1.337  0.00  0.00    -0.020 C 
ATOM     14  C   LIG    1       -2.396   5.722   0.165  0.00  0.00    +0.300 C 
ATOM     15  N   LIG    1       -2.388   4.258   0.047  0.00  0.00    -0.580 N 
ATOM     16  C   LIG    1       -2.691   5.609   2.645  0.00  0.00    +0.020 C 
ATOM     17  C   LIG    1       -3.671   3.550  -0.060  0.00  0.00    +0.310 C 
BRANCH  11  18
ATOM     18  C   LIG    1       -5.928   3.356   0.960  0.00  0.00    +0.470 C 
ATOM     19  O   LIG    1       -6.901   4.066   0.872  0.00  0.00    -0.500 OA
BRANCH  18  21
ATOM     20  C   LIG    1       -7.410   1.501   0.759  0.00  0.00    +0.260 C 
ATOM     21  O   LIG    1       -6.064   2.022   0.915  0.00  0.00    -0.360 OA
ENDBRANCH  18  21
ENDBRANCH  11  18
ENDBRANCH   1  15
BRANCH   9  22
ATOM     22  C   LIG    1        0.019   0.035  -0.451  0.00  0.00    -0.070 A 
ATOM     23  C   LIG    1        0.455  -0.833   0.552  0.00  0.00    +0.050 A 
ATOM     24  C   LIG    1        0.474  -2.193   0.323  0.00  0.00    +0.010 A 
ATOM     25  C   LIG    1        0.073  -2.697  -0.901  0.00  0.00    +0.030 A 
ATOM     26  C   LIG    1       -0.355  -1.843  -1.902  0.00  0.00    +0.010 A 
ATOM     27  C   LIG    1       -0.385  -0.481  -1.684  0.00  0.00    +0.050 A 
ENDBRANCH   9  22
TORSDOF 4
