REMARK  Name = ZINCvU0000000DTu.0
REMARK                            x       y       z     vdW  Elec       q    Type
REMARK                         _______ _______ _______ _____ _____    ______ ____
ROOT
ATOM      1  C   LIG    1       -0.885   1.311  -0.930  0.00  0.00    +0.280 C 
ENDROOT
BRANCH   1   2
ATOM      2  C   LIG    1       -0.319   0.884   0.425  0.00  0.00    -0.010 C 
ATOM      3  C   LIG    1       -0.938   1.733   1.559  0.00  0.00    +0.060 C 
ATOM      4  C   LIG    1        0.263   1.970   2.509  0.00  0.00    +0.230 C 
ATOM      5  N   LIG    1        1.405   2.149   1.576  0.00  0.00    -0.420 N 
ATOM      6  C   LIG    1        1.193   1.170   0.488  0.00  0.00    +0.110 C 
ATOM      7  C   LIG    1        1.668   1.753  -0.844  0.00  0.00    +0.060 C 
ATOM      8  C   LIG    1        1.955  -0.121   0.793  0.00  0.00    +0.020 C 
BRANCH   5   9
ATOM      9  C   LIG    1        2.609   1.924   2.217  0.00  0.00    +0.350 A 
ATOM     10  N   LIG    1        2.767   1.515   3.452  0.00  0.00    -0.320 NA
ATOM     11  N   LIG    1        4.024   1.413   3.709  0.00  0.00    -0.270 NA
ATOM     12  C   LIG    1        4.712   1.758   2.660  0.00  0.00    +0.170 A 
ATOM     13  O   LIG    1        3.836   2.090   1.691  0.00  0.00    -0.220 OA
BRANCH  12  14
ATOM     14  C   LIG    1        6.214   1.784   2.550  0.00  0.00    +0.030 C 
ATOM     15  C   LIG    1        6.786   2.747   3.591  0.00  0.00    +0.070 C 
ATOM     16  C   LIG    1        6.615   2.250   1.149  0.00  0.00    +0.050 C 
ATOM     17  C   LIG    1        6.767   0.379   2.797  0.00  0.00    +0.070 C 
ENDBRANCH  12  14
ENDBRANCH   5   9
ENDBRANCH   1   2
BRANCH   1  19
ATOM     18  C   LIG    1       -3.015   1.235  -2.112  0.00  0.00    +0.520 C 
ATOM     19  N   LIG    1       -2.304   0.953  -1.002  0.00  0.00    -0.730 N 
ATOM     20  H   LIG    1       -2.732   0.513  -0.251  0.00  0.00    +0.400 HD
ATOM     21  O   LIG    1       -2.461   1.707  -3.083  0.00  0.00    -0.530 OA
BRANCH  18  22
ATOM     22  C   LIG    1       -4.497   0.965  -2.147  0.00  0.00    -0.010 C 
BRANCH  22  24
ATOM     23  C   LIG    1       -6.237  -0.827  -2.203  0.00  0.00    +0.030 C 
ATOM     24  C   LIG    1       -4.738  -0.538  -2.302  0.00  0.00    -0.010 C 
ATOM     25  C   LIG    1       -4.218  -0.999  -3.666  0.00  0.00    +0.020 C 
ENDBRANCH  22  24
BRANCH  22  26
ATOM     26  C   LIG    1       -5.123   1.707  -3.329  0.00  0.00    +0.050 C 
BRANCH  26  27
ATOM     27  C   LIG    1       -4.993   3.216  -3.111  0.00  0.00    -0.010 C 
ATOM     28  C   LIG    1       -5.783   3.621  -1.865  0.00  0.00    +0.000 C 
ATOM     29  C   LIG    1       -5.653   5.130  -1.646  0.00  0.00    +0.000 C 
ATOM     30  C   LIG    1       -6.207   5.871  -2.865  0.00  0.00    +0.000 C 
ATOM     31  C   LIG    1       -5.417   5.466  -4.111  0.00  0.00    +0.000 C 
ATOM     32  C   LIG    1       -5.547   3.957  -4.329  0.00  0.00    +0.010 C 
ENDBRANCH  26  27
ENDBRANCH  22  26
ENDBRANCH  18  22
ENDBRANCH   1  19
TORSDOF 8
