REMARK  Name = ZINCvU0000000Ea4.0
REMARK                            x       y       z     vdW  Elec       q    Type
REMARK                         _______ _______ _______ _____ _____    ______ ____
ROOT
ATOM      1  N   LIG    1        3.948  -1.153   1.368  0.00  0.00    -0.480 N 
ATOM      2  C   LIG    1        4.795  -0.306   2.054  0.00  0.00    +0.060 A 
ATOM      3  C   LIG    1        5.441   0.880   1.737  0.00  0.00    +0.010 A 
ATOM      4  C   LIG    1        6.242   1.495   2.677  0.00  0.00    +0.030 A 
ATOM      5  C   LIG    1        6.404   0.935   3.936  0.00  0.00    +0.000 A 
ATOM      6  C   LIG    1        5.770  -0.229   4.268  0.00  0.00    +0.070 A 
ATOM      7  C   LIG    1        4.957  -0.871   3.331  0.00  0.00    +0.050 A 
ATOM      8  N   LIG    1        4.223  -2.013   3.354  0.00  0.00    -0.480 NA
ATOM      9  C   LIG    1        3.634  -2.178   2.206  0.00  0.00    +0.290 A 
ENDROOT
BRANCH   9  10
ATOM     10  C   LIG    1        2.734  -3.335   1.855  0.00  0.00    +0.090 C 
ATOM     11  C   LIG    1        1.573  -3.460   2.869  0.00  0.00    +0.090 C 
ATOM     12  C   LIG    1        1.379  -4.953   3.027  0.00  0.00    +0.530 C 
ATOM     13  N   LIG    1        2.450  -5.611   2.553  0.00  0.00    -0.580 N 
ATOM     14  O   LIG    1        0.399  -5.478   3.510  0.00  0.00    -0.510 OA
ATOM     15  C   LIG    1        3.466  -4.681   2.045  0.00  0.00    +0.300 C 
BRANCH  13  16
ATOM     16  C   LIG    1        2.581  -7.005   2.544  0.00  0.00    +0.140 A 
ATOM     17  C   LIG    1        3.152  -7.657   3.628  0.00  0.00    +0.020 A 
ATOM     18  C   LIG    1        3.280  -9.032   3.617  0.00  0.00    +0.020 A 
ATOM     19  C   LIG    1        2.838  -9.759   2.527  0.00  0.00    +0.020 A 
ATOM     20  C   LIG    1        2.268  -9.113   1.445  0.00  0.00    -0.080 A 
ATOM     21  C   LIG    1        1.789  -9.910   0.259  0.00  0.00    +0.090 C 
ATOM     22  C   LIG    1        2.134  -7.739   1.453  0.00  0.00    -0.080 A 
ATOM     23  C   LIG    1        1.507  -7.036   0.277  0.00  0.00    +0.090 C 
ENDBRANCH  13  16
ENDBRANCH   9  10
BRANCH   1  24
ATOM     24  C   LIG    1        3.479  -0.983  -0.010  0.00  0.00    +0.370 C 
BRANCH  24  31
ATOM     25  C   LIG    1        2.267  -0.187  -2.509  0.00  0.00    +0.100 C 
ATOM     26  C   LIG    1        1.595   0.153  -1.203  0.00  0.00    -0.070 A 
ATOM     27  C   LIG    1        0.399   0.846  -1.201  0.00  0.00    +0.010 A 
ATOM     28  C   LIG    1       -0.217   1.158  -0.003  0.00  0.00    +0.020 A 
ATOM     29  C   LIG    1        0.363   0.777   1.192  0.00  0.00    +0.000 A 
ATOM     30  C   LIG    1        1.560   0.085   1.190  0.00  0.00    +0.020 A 
ATOM     31  C   LIG    1        2.175  -0.228  -0.008  0.00  0.00    -0.120 A 
ENDBRANCH  24  31
ENDBRANCH   1  24
TORSDOF 4
