REMARK  Name = ZINCrH000004qqfU.0
REMARK                            x       y       z     vdW  Elec       q    Type
REMARK                         _______ _______ _______ _____ _____    ______ ____
ROOT
ATOM      1  C   LIG    1        2.569   1.577  -0.013  0.00  0.00    +0.600 C 
ATOM      2  N   LIG    1        2.906   0.273  -0.023  0.00  0.00    -0.520 N 
ATOM      3  H   LIG    1        2.215  -0.407  -0.019  0.00  0.00    +0.430 HD
ATOM      4  O   LIG    1        3.436   2.430  -0.018  0.00  0.00    -0.550 OA
ENDROOT
BRANCH   1   8
ATOM      5  C   LIG    1       -2.530   1.391   0.020  0.00  0.00    +0.130 C 
ATOM      6  C   LIG    1       -1.100   1.867   0.017  0.00  0.00    +0.030 A 
ATOM      7  C   LIG    1       -0.013   1.076   0.008  0.00  0.00    -0.010 A 
ATOM      8  C   LIG    1        1.150   1.971   0.002  0.00  0.00    -0.230 A 
ATOM      9  C   LIG    1        0.651   3.244   0.013  0.00  0.00    +0.130 A 
ATOM     10  C   LIG    1        1.466   4.511   0.012  0.00  0.00    +0.150 C 
ATOM     11  N   LIG    1       -0.696   3.172   0.025  0.00  0.00    -0.390 N 
BRANCH  11  12
ATOM     12  C   LIG    1       -1.558   4.278   0.038  0.00  0.00    +0.110 A 
ATOM     13  C   LIG    1       -1.579   5.130   1.134  0.00  0.00    +0.020 A 
ATOM     14  C   LIG    1       -2.424   6.223   1.141  0.00  0.00    +0.020 A 
ATOM     15  C   LIG    1       -3.258   6.460   0.064  0.00  0.00    +0.020 A 
ATOM     16  C   LIG    1       -3.244   5.610  -1.026  0.00  0.00    +0.020 A 
ATOM     17  C   LIG    1       -2.396   4.520  -1.042  0.00  0.00    +0.020 A 
ENDBRANCH  11  12
ENDBRANCH   1   8
BRANCH   2  18
ATOM     18  N   LIG    1        4.256  -0.102  -0.037  0.00  0.00    -0.520 N 
ATOM     19  H   LIG    1        4.948   0.578  -0.041  0.00  0.00    +0.430 HD
ATOM     20  C   LIG    1        4.594  -1.407  -0.046  0.00  0.00    +0.510 C 
ATOM     21  O   LIG    1        3.729  -2.257  -0.042  0.00  0.00    -0.530 OA
BRANCH  20  22
ATOM     22  C   LIG    1        6.046  -1.809  -0.062  0.00  0.00    +0.130 C 
BRANCH  22  23
ATOM     23  C   LIG    1        6.150  -3.313  -0.070  0.00  0.00    -0.070 A 
ATOM     24  C   LIG    1        6.215  -4.007   1.123  0.00  0.00    +0.040 A 
ATOM     25  C   LIG    1        6.306  -5.386   1.117  0.00  0.00    +0.020 A 
ATOM     26  C   LIG    1        6.343  -6.071  -0.085  0.00  0.00    -0.030 A 
ATOM     27  C   LIG    1        6.284  -5.375  -1.279  0.00  0.00    +0.020 A 
ATOM     28 CL   LIG    1        6.465  -7.803  -0.094  0.00  0.00    -0.070 Cl
ATOM     29  C   LIG    1        6.187  -3.996  -1.271  0.00  0.00    +0.040 A 
ENDBRANCH  22  23
ENDBRANCH  20  22
ENDBRANCH   2  18
TORSDOF 5
