REMARK  Name = ZINCvU0000000CCk.0
REMARK                            x       y       z     vdW  Elec       q    Type
REMARK                         _______ _______ _______ _____ _____    ______ ____
ROOT
ATOM      1  C   LIG    1       -3.780  -0.714   0.017  0.00  0.00    +0.160 C 
ATOM      2  N   LIG    1       -2.564  -0.288   0.013  0.00  0.00    -0.250 NA
ATOM      3  N   LIG    1       -2.448   1.101   0.020  0.00  0.00    -0.460 N 
ATOM      4  C   LIG    1       -3.796   1.691   0.035  0.00  0.00    +0.250 C 
ATOM      5  C   LIG    1       -1.290   1.790   0.018  0.00  0.00    +0.590 C 
ATOM      6  O   LIG    1       -1.306   3.008   0.025  0.00  0.00    -0.520 OA
ATOM      7  C   LIG    1       -4.728   0.464   0.028  0.00  0.00    +0.090 C 
ENDROOT
BRANCH   4   8
ATOM      8  C   LIG    1       -4.002   2.510   1.284  0.00  0.00    -0.070 A 
ATOM      9  C   LIG    1       -3.493   2.068   2.491  0.00  0.00    +0.030 A 
ATOM     10  C   LIG    1       -3.678   2.821   3.635  0.00  0.00    +0.040 A 
ATOM     11  C   LIG    1       -4.381   4.011   3.575  0.00  0.00    -0.090 A 
ATOM     12  C   LIG    1       -4.894   4.449   2.367  0.00  0.00    +0.050 A 
ATOM     13 BR   LIG    1       -4.639   5.038   5.141  0.00  0.00    -0.050 Br
ATOM     14  C   LIG    1       -4.704   3.699   1.222  0.00  0.00    +0.040 A 
ENDBRANCH   4   8
BRANCH   1  18
ATOM     15  C   LIG    1       -4.946  -4.797   0.004  0.00  0.00    +0.240 A 
ATOM     16  C   LIG    1       -3.596  -4.460  -0.002  0.00  0.00    -0.070 A 
ATOM     17  C   LIG    1       -3.214  -3.137   0.002  0.00  0.00    +0.100 A 
ATOM     18  C   LIG    1       -4.185  -2.131   0.013  0.00  0.00    -0.100 A 
ATOM     19  C   LIG    1       -5.540  -2.473   0.024  0.00  0.00    +0.100 A 
ATOM     20  C   LIG    1       -5.915  -3.799   0.014  0.00  0.00    -0.070 A 
BRANCH  15  22
ATOM     21  C   LIG    1       -4.310  -7.190  -0.010  0.00  0.00    +0.280 C 
ATOM     22  N   LIG    1       -5.329  -6.138   0.000  0.00  0.00    -0.630 N 
ATOM     23  C   LIG    1       -6.750  -6.494   0.006  0.00  0.00    +0.290 C 
ENDBRANCH  15  22
ENDBRANCH   1  18
BRANCH   5  24
ATOM     24  C   LIG    1       -0.013   1.076   0.008  0.00  0.00    -0.060 C 
ATOM     25  C   LIG    1        1.146   1.766   0.001  0.00  0.00    +0.120 C 
BRANCH  25  26
ATOM     26  C   LIG    1        2.430   1.047  -0.015  0.00  0.00    -0.080 A 
ATOM     27  C   LIG    1        2.454  -0.351  -0.018  0.00  0.00    +0.030 A 
ATOM     28  C   LIG    1        3.661  -1.017  -0.039  0.00  0.00    +0.010 A 
ATOM     29  C   LIG    1        4.848  -0.305  -0.046  0.00  0.00    +0.010 A 
ATOM     30  C   LIG    1        4.833   1.079  -0.038  0.00  0.00    +0.010 A 
ATOM     31  C   LIG    1        3.634   1.759  -0.023  0.00  0.00    +0.040 A 
ENDBRANCH  25  26
ENDBRANCH   5  24
TORSDOF 5
