REMARK  Name = ZINCrH000004jNfi.0
REMARK                            x       y       z     vdW  Elec       q    Type
REMARK                         _______ _______ _______ _____ _____    ______ ____
ROOT
ATOM      1  C   LIG    1        4.776   0.037  -0.144  0.00  0.00    +0.500 C 
ATOM      2  N   LIG    1        3.622  -0.651  -0.035  0.00  0.00    -0.670 N 
ATOM      3  H   LIG    1        3.638  -1.619   0.027  0.00  0.00    +0.420 HD
ATOM      4  O   LIG    1        4.762   1.250  -0.139  0.00  0.00    -0.500 OA
ENDROOT
BRANCH   2   5
ATOM      5  C   LIG    1        2.400   0.032  -0.013  0.00  0.00    +0.150 A 
ATOM      6  C   LIG    1        2.308   1.272   0.605  0.00  0.00    +0.080 A 
ATOM      7  C   LIG    1        1.101   1.944   0.626  0.00  0.00    +0.060 A 
ATOM      8  C   LIG    1       -0.016   1.381   0.033  0.00  0.00    -0.010 A 
ATOM      9  C   LIG    1        0.074   0.145  -0.583  0.00  0.00    -0.160 A 
ATOM     10 CL   LIG    1       -1.529   2.231   0.056  0.00  0.00    -0.040 Cl
ATOM     11  C   LIG    1        1.278  -0.530  -0.607  0.00  0.00    +0.060 A 
BRANCH   9  12
ATOM     12  C   LIG    1       -1.144  -0.465  -1.228  0.00  0.00    +0.510 C 
ATOM     13  F   LIG    1       -1.611   0.384  -2.238  0.00  0.00    -0.170 F 
ATOM     14  F   LIG    1       -2.145  -0.638  -0.266  0.00  0.00    -0.170 F 
ATOM     15  F   LIG    1       -0.808  -1.706  -1.780  0.00  0.00    -0.170 F 
ENDBRANCH   9  12
ENDBRANCH   2   5
BRANCH   1  16
ATOM     16  C   LIG    1        6.083  -0.701  -0.274  0.00  0.00    +0.350 C 
BRANCH  16  18
ATOM     17  C   LIG    1        7.535   0.834  -1.678  0.00  0.00    +0.320 C 
ATOM     18  N   LIG    1        7.181   0.264  -0.377  0.00  0.00    -0.990 NA
BRANCH  18  19
ATOM     19  S   LIG    1        8.021   0.709   0.979  0.00  0.00    +2.600 S 
ATOM     20  O   LIG    1        7.101   0.509   2.043  0.00  0.00    -0.940 OA
ATOM     21  O   LIG    1        8.516   2.006   0.674  0.00  0.00    -0.930 OA
BRANCH  19  22
ATOM     22  C   LIG    1        9.383  -0.485   1.081  0.00  0.00    -0.300 C 
BRANCH  22  23
ATOM     23  C   LIG    1       10.229  -0.180   2.290  0.00  0.00    -0.100 A 
ATOM     24  C   LIG    1       11.306   0.680   2.181  0.00  0.00    +0.030 A 
ATOM     25  C   LIG    1       12.079   0.964   3.291  0.00  0.00    +0.010 A 
ATOM     26  C   LIG    1       11.782   0.380   4.508  0.00  0.00    +0.020 A 
ATOM     27  C   LIG    1       10.709  -0.484   4.616  0.00  0.00    +0.010 A 
ATOM     28  C   LIG    1        9.932  -0.764   3.507  0.00  0.00    +0.030 A 
ENDBRANCH  22  23
ENDBRANCH  19  22
ENDBRANCH  18  19
ENDBRANCH  16  18
ENDBRANCH   1  16
TORSDOF 7
