REMARK  Name = ZINCqH0000007Ors.0
REMARK                            x       y       z     vdW  Elec       q    Type
REMARK                         _______ _______ _______ _____ _____    ______ ____
ROOT
ATOM      1  C   LIG    1       -0.018   1.503   0.010  0.00  0.00    +0.360 C 
ENDROOT
BRANCH   1   2
ATOM      2  C   LIG    1        0.002  -0.004   0.002  0.00  0.00    +0.280 A 
ATOM      3  N   LIG    1        0.477  -0.748   0.958  0.00  0.00    -0.470 NA
ATOM      4  C   LIG    1        0.335  -2.058   0.630  0.00  0.00    +0.050 A 
ATOM      5  C   LIG    1        0.663  -3.254   1.274  0.00  0.00    +0.070 A 
ATOM      6  C   LIG    1        0.393  -4.449   0.669  0.00  0.00    +0.000 A 
ATOM      7  C   LIG    1       -0.205  -4.490  -0.582  0.00  0.00    +0.030 A 
ATOM      8  C   LIG    1       -0.536  -3.323  -1.237  0.00  0.00    +0.010 A 
ATOM      9  C   LIG    1       -0.270  -2.099  -0.638  0.00  0.00    +0.050 A 
ATOM     10  N   LIG    1       -0.468  -0.784  -1.008  0.00  0.00    -0.600 N 
ATOM     11  H   LIG    1       -0.869  -0.474  -1.835  0.00  0.00    +0.420 HD
ENDBRANCH   1   2
BRANCH   1  13
ATOM     12  C   LIG    1       -0.462   3.216  -1.664  0.00  0.00    +0.520 C 
ATOM     13  N   LIG    1       -0.727   1.988  -1.177  0.00  0.00    -0.740 N 
ATOM     14  H   LIG    1       -1.386   1.425  -1.612  0.00  0.00    +0.400 HD
ATOM     15  O   LIG    1        0.362   3.920  -1.120  0.00  0.00    -0.510 OA
BRANCH  12  16
ATOM     16  C   LIG    1       -1.191   3.716  -2.885  0.00  0.00    +0.120 C 
BRANCH  16  22
ATOM     17  C   LIG    1        0.427   5.282  -3.988  0.00  0.00    +0.140 A 
ATOM     18  C   LIG    1        0.859   6.563  -4.300  0.00  0.00    -0.080 A 
ATOM     19  C   LIG    1        0.158   7.659  -3.837  0.00  0.00    +0.050 A 
ATOM     20  C   LIG    1       -0.977   7.481  -3.068  0.00  0.00    -0.030 A 
ATOM     21  C   LIG    1       -1.413   6.205  -2.760  0.00  0.00    +0.060 A 
ATOM     22  C   LIG    1       -0.716   5.106  -3.221  0.00  0.00    -0.100 A 
BRANCH  17  24
ATOM     23  C   LIG    1        2.285   4.459  -5.222  0.00  0.00    +0.250 C 
ATOM     24  O   LIG    1        1.119   4.202  -4.437  0.00  0.00    -0.320 OA
ENDBRANCH  17  24
ENDBRANCH  16  22
ENDBRANCH  12  16
ENDBRANCH   1  13
BRANCH   1  25
ATOM     25  C   LIG    1       -0.735   1.996   1.269  0.00  0.00    +0.070 C 
BRANCH  25  26
ATOM     26  C   LIG    1       -0.647   3.522   1.341  0.00  0.00    +0.100 C 
BRANCH  26  27
ATOM     27  S   LIG    1       -1.496   4.107   2.833  0.00  0.00    -0.270 S 
ATOM     28  C   LIG    1       -1.286   5.907   2.743  0.00  0.00    +0.140 C 
ENDBRANCH  26  27
ENDBRANCH  25  26
ENDBRANCH   1  25
TORSDOF 8
