REMARK  Name = ZINCpe00000y9sW0.0
REMARK                            x       y       z     vdW  Elec       q    Type
REMARK                         _______ _______ _______ _____ _____    ______ ____
ROOT
ATOM      1  C   LIG    1        1.994   1.267  -0.011  0.00  0.00    +0.250 C 
ATOM      2  C   LIG    1        2.813   2.323  -0.756  0.00  0.00    +0.060 C 
ATOM      3  C   LIG    1        2.888   3.600   0.084  0.00  0.00    +0.160 C 
ATOM      4  C   LIG    1        3.589   3.293   1.411  0.00  0.00    +0.250 C 
ATOM      5  N   LIG    1        2.892   2.178   2.067  0.00  0.00    -0.600 N 
ATOM      6  C   LIG    1        2.450   2.296   3.336  0.00  0.00    +0.610 C 
ATOM      7  O   LIG    1        1.765   1.419   3.825  0.00  0.00    -0.500 OA
ATOM      8  C   LIG    1        2.685   0.933   1.315  0.00  0.00    +0.300 C 
ENDROOT
BRANCH   6   9
ATOM      9  C   LIG    1        2.798   3.489   4.130  0.00  0.00    -0.090 A 
ATOM     10  C   LIG    1        2.320   3.818   5.367  0.00  0.00    +0.080 A 
ATOM     11  C   LIG    1        2.972   5.045   5.668  0.00  0.00    +0.060 A 
ATOM     12  N   LIG    1        3.729   5.322   4.636  0.00  0.00    -0.330 NA
ATOM     13  O   LIG    1        3.646   4.474   3.778  0.00  0.00    +0.130 OA
BRANCH  11  14
ATOM     14  C   LIG    1        2.821   5.854   6.903  0.00  0.00    +0.190 A 
ATOM     15  C   LIG    1        3.535   7.041   7.043  0.00  0.00    +0.000 A 
ATOM     16  C   LIG    1        3.380   7.787   8.199  0.00  0.00    +0.070 A 
ATOM     17  C   LIG    1        2.522   7.316   9.182  0.00  0.00    -0.020 A 
ATOM     18  C   LIG    1        1.847   6.125   8.978  0.00  0.00    +0.280 A 
ATOM     19  N   LIG    1        2.010   5.438   7.867  0.00  0.00    -0.470 NA
ENDBRANCH  11  14
ENDBRANCH   6   9
BRANCH   1  21
ATOM     20  C   LIG    1       -0.380   0.937   0.426  0.00  0.00    +0.520 C 
ATOM     21  N   LIG    1        0.651   1.788   0.255  0.00  0.00    -0.730 N 
ATOM     22  H   LIG    1        0.504   2.745   0.309  0.00  0.00    +0.400 HD
ATOM     23  O   LIG    1       -0.197  -0.260   0.359  0.00  0.00    -0.530 OA
BRANCH  20  25
ATOM     24  C   LIG    1       -2.743   0.307   0.840  0.00  0.00    +0.040 C 
ATOM     25  C   LIG    1       -1.763   1.474   0.693  0.00  0.00    +0.040 C 
ENDBRANCH  20  25
ENDBRANCH   1  21
BRANCH   3  26
ATOM     26  O   LIG    1        3.627   4.596  -0.626  0.00  0.00    -0.550 OA
ATOM     27  H   LIG    1        3.714   5.434  -0.152  0.00  0.00    +0.380 HD
ENDBRANCH   3  26
TORSDOF 5
