REMARK  Name = ZINCrH000004ugWG.0
REMARK                            x       y       z     vdW  Elec       q    Type
REMARK                         _______ _______ _______ _____ _____    ______ ____
ROOT
ATOM      1  O   LIG    1        3.714   8.290  -1.962  0.00  0.00    -0.520 OA
ATOM      2  C   LIG    1        2.537   8.581  -1.988  0.00  0.00    +0.530 C 
ATOM      3  N   LIG    1        1.602   7.617  -1.867  0.00  0.00    -0.730 N 
ATOM      4  H   LIG    1        0.662   7.839  -1.957  0.00  0.00    +0.400 HD
ENDROOT
BRANCH   2   5
ATOM      5  C   LIG    1        2.119  10.019  -2.157  0.00  0.00    -0.040 C 
ATOM      6  C   LIG    1        1.190  10.158  -3.377  0.00  0.00    +0.030 C 
ATOM      7  C   LIG    1        1.894  11.117  -4.359  0.00  0.00    +0.020 C 
ATOM      8  C   LIG    1        3.394  11.011  -3.985  0.00  0.00    +0.010 C 
ATOM      9  C   LIG    1        3.354  10.898  -2.441  0.00  0.00    +0.060 C 
BRANCH   5  10
ATOM     10  C   LIG    1        1.416  10.501  -0.914  0.00  0.00    -0.080 A 
ATOM     11  C   LIG    1        0.830  11.753  -0.894  0.00  0.00    +0.060 A 
ATOM     12  C   LIG    1        0.181  12.194   0.243  0.00  0.00    -0.010 A 
ATOM     13  C   LIG    1        0.128  11.387   1.367  0.00  0.00    +0.100 A 
ATOM     14  C   LIG    1        0.720  10.135   1.347  0.00  0.00    -0.010 A 
ATOM     15  F   LIG    1       -0.502  11.819   2.481  0.00  0.00    -0.140 F 
ATOM     16  C   LIG    1        1.363   9.694   0.207  0.00  0.00    +0.040 A 
ENDBRANCH   5  10
ENDBRANCH   2   5
BRANCH   3  17
ATOM     17  C   LIG    1        2.006   6.235  -1.599  0.00  0.00    +0.270 C 
BRANCH  17  18
ATOM     18  C   LIG    1        0.762   5.349  -1.508  0.00  0.00    +0.270 C 
BRANCH  18  19
ATOM     19  N   LIG    1        1.165   3.966  -1.239  0.00  0.00    -0.730 N 
ATOM     20  H   LIG    1        2.105   3.744  -1.149  0.00  0.00    +0.410 HD
BRANCH  19  21
ATOM     21  C   LIG    1        0.197   2.968  -1.113  0.00  0.00    +0.280 A 
ATOM     22  C   LIG    1       -1.138   3.257  -1.366  0.00  0.00    -0.060 A 
ATOM     23  C   LIG    1       -2.093   2.267  -1.240  0.00  0.00    +0.120 A 
ATOM     24  C   LIG    1       -1.722   0.989  -0.869  0.00  0.00    -0.030 A 
ATOM     25  C   LIG    1       -0.394   0.698  -0.611  0.00  0.00    +0.130 A 
ATOM     26  C   LIG    1        0.566   1.683  -0.735  0.00  0.00    -0.120 A 
BRANCH  26  27
ATOM     27  N   LIG    1        1.987   1.370  -0.465  0.00  0.00    +0.030 N 
ATOM     28  O   LIG    1        2.692   2.183   0.105  0.00  0.00    -0.180 OA
ATOM     29  O   LIG    1        2.452   0.299  -0.814  0.00  0.00    -0.150 OA
ENDBRANCH  26  27
ENDBRANCH  19  21
ENDBRANCH  18  19
ENDBRANCH  17  18
ENDBRANCH   3  17
TORSDOF 7
