REMARK  Name = ZINCrH00000tj0Q8.1
REMARK                            x       y       z     vdW  Elec       q    Type
REMARK                         _______ _______ _______ _____ _____    ______ ____
ROOT
ATOM      1  C   LIG    1        5.326  -3.690  -4.156  0.00  0.00    +0.520 C 
ATOM      2  N   LIG    1        4.984  -3.201  -2.947  0.00  0.00    -0.620 N 
ATOM      3  C   LIG    1        6.011  -2.753  -1.996  0.00  0.00    +0.280 C 
ATOM      4  C   LIG    1        5.753  -3.429  -0.645  0.00  0.00    +0.170 C 
ATOM      5  N   LIG    1        4.368  -3.173  -0.230  0.00  0.00    -0.530 NA
ATOM      6  C   LIG    1        3.410  -3.766  -1.173  0.00  0.00    +0.170 C 
ATOM      7  C   LIG    1        3.572  -3.103  -2.545  0.00  0.00    +0.290 C 
ATOM      8  O   LIG    1        4.472  -4.132  -4.895  0.00  0.00    -0.520 OA
ENDROOT
BRANCH   1  10
ATOM      9  C   LIG    1        7.169  -2.275  -5.022  0.00  0.00    +0.030 C 
ATOM     10  C   LIG    1        6.769  -3.687  -4.589  0.00  0.00    +0.170 C 
BRANCH  10  11
ATOM     11  N   LIG    1        6.945  -4.613  -5.715  0.00  0.00    -0.660 NA
ATOM     12  H   LIG    1        6.802  -4.142  -6.596  0.00  0.00    +0.350 HD
BRANCH  11  13
ATOM     13  C   LIG    1        8.266  -5.254  -5.668  0.00  0.00    +0.210 C 
ATOM     14  C   LIG    1        9.290  -4.363  -6.373  0.00  0.00    +0.020 C 
BRANCH  13  15
ATOM     15  C   LIG    1        8.201  -6.590  -6.362  0.00  0.00    -0.060 A 
ATOM     16  C   LIG    1        7.239  -6.822  -7.327  0.00  0.00    +0.060 A 
ATOM     17  C   LIG    1        7.182  -8.046  -7.968  0.00  0.00    +0.010 A 
ATOM     18  C   LIG    1        8.080  -9.043  -7.635  0.00  0.00    +0.020 A 
ATOM     19  C   LIG    1        9.039  -8.814  -6.666  0.00  0.00    +0.020 A 
ATOM     20  C   LIG    1        9.100  -7.588  -6.029  0.00  0.00    -0.030 A 
ATOM     21 CL   LIG    1       10.304  -7.300  -4.812  0.00  0.00    -0.070 Cl
ENDBRANCH  13  15
ENDBRANCH  11  13
ENDBRANCH  10  11
ENDBRANCH   1  10
BRANCH   5  22
ATOM     22  C   LIG    1        4.130  -3.657   1.137  0.00  0.00    +0.220 C 
BRANCH  22  23
ATOM     23  C   LIG    1        2.789  -3.164   1.618  0.00  0.00    -0.080 A 
ATOM     24  C   LIG    1        1.655  -3.923   1.399  0.00  0.00    +0.000 A 
ATOM     25  C   LIG    1        0.425  -3.471   1.841  0.00  0.00    +0.000 A 
ATOM     26  C   LIG    1        0.331  -2.261   2.503  0.00  0.00    +0.000 A 
ATOM     27  C   LIG    1        1.465  -1.503   2.722  0.00  0.00    +0.000 A 
ATOM     28  C   LIG    1        2.695  -1.954   2.279  0.00  0.00    +0.020 A 
ENDBRANCH  22  23
ENDBRANCH   5  22
TORSDOF 6
