REMARK  Name = ZINCrD00000F5LtD.0
REMARK                            x       y       z     vdW  Elec       q    Type
REMARK                         _______ _______ _______ _____ _____    ______ ____
ROOT
ATOM      1  N   LIG    1        7.859  -1.905  -0.971  0.00  0.00    -0.710 N 
ATOM      2  H   LIG    1        7.391  -2.734  -1.156  0.00  0.00    +0.410 HD
ATOM      3  C   LIG    1        9.056  -1.664  -1.541  0.00  0.00    +0.570 C 
ATOM      4  O   LIG    1        9.642  -0.624  -1.310  0.00  0.00    -0.520 OA
ENDROOT
BRANCH   3   5
ATOM      5  C   LIG    1        9.656  -2.664  -2.447  0.00  0.00    -0.100 A 
ATOM      6  C   LIG    1        8.978  -3.861  -2.710  0.00  0.00    +0.010 A 
ATOM      7  C   LIG    1        9.533  -4.798  -3.555  0.00  0.00    +0.150 A 
ATOM      8  C   LIG    1       10.777  -4.547  -4.148  0.00  0.00    -0.130 A 
ATOM      9  C   LIG    1       11.638  -5.295  -5.068  0.00  0.00    -0.050 A 
ATOM     10  C   LIG    1       12.718  -4.527  -5.278  0.00  0.00    +0.240 A 
ATOM     11  O   LIG    1       12.614  -3.382  -4.583  0.00  0.00    -0.190 OA
ATOM     12  C   LIG    1       11.460  -3.346  -3.885  0.00  0.00    +0.060 A 
ATOM     13  C   LIG    1       10.892  -2.408  -3.038  0.00  0.00    +0.110 A 
BRANCH   7  14
ATOM     14  O   LIG    1        8.876  -5.959  -3.813  0.00  0.00    -0.490 OA
ATOM     15  H   LIG    1        8.282  -5.915  -4.574  0.00  0.00    +0.400 HD
ENDBRANCH   7  14
ENDBRANCH   3   5
BRANCH   1  16
ATOM     16  C   LIG    1        7.263  -0.913  -0.072  0.00  0.00    +0.480 C 
BRANCH  16  17
ATOM     17  C   LIG    1        5.765  -1.083  -0.059  0.00  0.00    -0.250 A 
ATOM     18  C   LIG    1        4.851  -0.085  -0.050  0.00  0.00    +0.290 A 
ATOM     19  N   LIG    1        3.624  -0.652  -0.035  0.00  0.00    -0.310 N 
ATOM     20  N   LIG    1        3.792  -2.043  -0.045  0.00  0.00    -0.280 NA
ATOM     21  C   LIG    1        5.075  -2.300  -0.059  0.00  0.00    +0.260 A 
BRANCH  19  22
ATOM     22  C   LIG    1        2.399   0.031  -0.021  0.00  0.00    +0.150 A 
ATOM     23  C   LIG    1        1.207  -0.680  -0.013  0.00  0.00    +0.030 A 
ATOM     24  C   LIG    1        0.002  -0.004   0.002  0.00  0.00    +0.030 A 
ATOM     25  C   LIG    1       -0.017   1.379   0.010  0.00  0.00    +0.010 A 
ATOM     26  C   LIG    1        1.170   2.089   0.002  0.00  0.00    +0.050 A 
ATOM     27  C   LIG    1        2.377   1.419  -0.013  0.00  0.00    -0.010 A 
ENDBRANCH  19  22
ENDBRANCH  16  17
BRANCH  16  29
ATOM     28  N   LIG    1        8.198  -1.251   2.338  0.00  0.00    -0.400 NA
ATOM     29  C   LIG    1        7.791  -1.104   1.288  0.00  0.00    +0.190 C 
ENDBRANCH  16  29
ENDBRANCH   1  16
TORSDOF 6
