REMARK  Name = ZINCtV00000L6js4.0
REMARK                            x       y       z     vdW  Elec       q    Type
REMARK                         _______ _______ _______ _____ _____    ______ ____
ROOT
ATOM      1  C   LIG    1        0.110   4.112   0.917  0.00  0.00    +0.370 C 
ATOM      2  N   LIG    1        1.208   3.514   0.143  0.00  0.00    -0.720 N 
ATOM      3  H   LIG    1        1.899   4.064  -0.252  0.00  0.00    +0.410 HD
ATOM      4  C   LIG    1        1.217   2.132   0.002  0.00  0.00    +0.250 A 
ATOM      5  C   LIG    1       -0.018   1.453   0.010  0.00  0.00    -0.170 A 
ATOM      6  C   LIG    1       -1.197   2.226  -0.034  0.00  0.00    +0.080 C 
ATOM      7  C   LIG    1       -2.454   1.704  -0.678  0.00  0.00    +0.080 C 
ATOM      8  C   LIG    1       -3.666   2.172   0.129  0.00  0.00    +0.040 C 
ATOM      9  C   LIG    1       -3.713   3.701   0.152  0.00  0.00    -0.100 C 
ATOM     10  C   LIG    1       -4.151   4.232  -1.216  0.00  0.00    +0.060 C 
ATOM     11  C   LIG    1       -4.732   4.153   1.207  0.00  0.00    +0.050 C 
ATOM     12  C   LIG    1       -2.364   4.264   0.504  0.00  0.00    +0.410 C 
ATOM     13  O   LIG    1       -2.293   5.432   0.853  0.00  0.00    -0.470 OA
ATOM     14  C   LIG    1        0.002  -0.004   0.002  0.00  0.00    +0.020 A 
ATOM     15  C   LIG    1       -1.128  -0.781   0.266  0.00  0.00    +0.000 A 
ATOM     16  C   LIG    1       -1.073  -2.138   0.126  0.00  0.00    +0.040 A 
ATOM     17  C   LIG    1        0.110  -2.772  -0.240  0.00  0.00    -0.020 A 
ATOM     18  C   LIG    1        1.251  -2.053  -0.430  0.00  0.00    +0.050 A 
ATOM     19  C   LIG    1        1.235  -0.662  -0.249  0.00  0.00    -0.100 A 
ATOM     20  C   LIG    1        2.430   0.083  -0.281  0.00  0.00    +0.090 A 
ATOM     21  C   LIG    1        2.414   1.432  -0.128  0.00  0.00    -0.040 A 
ATOM     22  C   LIG    1       -1.192   3.505   0.443  0.00  0.00    -0.260 C 
ENDROOT
BRANCH   1  26
ATOM     23  C   LIG    1        0.670   3.296   5.075  0.00  0.00    +0.130 A 
ATOM     24  C   LIG    1        0.213   4.540   4.666  0.00  0.00    -0.020 A 
ATOM     25  C   LIG    1        0.033   4.802   3.322  0.00  0.00    +0.070 A 
ATOM     26  C   LIG    1        0.307   3.824   2.383  0.00  0.00    -0.140 A 
ATOM     27  C   LIG    1        0.758   2.581   2.788  0.00  0.00    +0.060 A 
ATOM     28  C   LIG    1        0.945   2.317   4.131  0.00  0.00    -0.080 A 
BRANCH  23  30
ATOM     29  C   LIG    1        1.321   1.734   6.744  0.00  0.00    +0.240 C 
ATOM     30  O   LIG    1        0.847   3.036   6.397  0.00  0.00    -0.320 OA
ENDBRANCH  23  30
ENDBRANCH   1  26
TORSDOF 2
