REMARK  Name = ZINC550000003YIZ.0
REMARK                            x       y       z     vdW  Elec       q    Type
REMARK                         _______ _______ _______ _____ _____    ______ ____
ROOT
ATOM      1  C   LIG    1        0.660   2.969   0.012  0.00  0.00    +0.180 A 
ATOM      2  N   LIG    1        1.037   1.711   0.001  0.00  0.00    -0.290 NA
ATOM      3  N   LIG    1       -0.011   0.966   0.007  0.00  0.00    -0.250 N 
ATOM      4  H   LIG    1        0.002  -0.004   0.002  0.00  0.00    +0.470 HD
ATOM      5  N   LIG    1       -1.079   1.682   0.016  0.00  0.00    -0.290 NA
ATOM      6  C   LIG    1       -0.736   2.950   0.025  0.00  0.00    +0.180 A 
ENDROOT
TORSDOF 0
