REMARK  Name = ZINC550000003YIZ.1
REMARK                            x       y       z     vdW  Elec       q    Type
REMARK                         _______ _______ _______ _____ _____    ______ ____
ROOT
ATOM      1  C   LIG    1       -1.106   1.874   0.017  0.00  0.00    +0.140 A 
ATOM      2  C   LIG    1       -0.013   1.076   0.008  0.00  0.00    +0.160 A 
ATOM      3  N   LIG    1        1.058   1.903   0.002  0.00  0.00    -0.390 N 
ATOM      4  H   LIG    1        1.988   1.629  -0.007  0.00  0.00    +0.450 HD
ATOM      5  N   LIG    1        0.630   3.117   0.012  0.00  0.00    -0.080 NA
ATOM      6  N   LIG    1       -0.656   3.134   0.024  0.00  0.00    -0.270 NA
ENDROOT
TORSDOF 0
