REMARK  Name = ZINCqH00000068bH.0
REMARK                            x       y       z     vdW  Elec       q    Type
REMARK                         _______ _______ _______ _____ _____    ______ ____
ROOT
ATOM      1  C   LIG    1        0.120  -4.213   4.829  0.00  0.00    +0.230 A 
ATOM      2  C   LIG    1        0.125  -2.824   4.804  0.00  0.00    +0.020 A 
ATOM      3  C   LIG    1        0.124  -2.152   3.601  0.00  0.00    +0.090 A 
ATOM      4  C   LIG    1        0.107  -2.861   2.398  0.00  0.00    -0.080 A 
ATOM      5  C   LIG    1        0.101  -4.250   2.408  0.00  0.00    +0.120 A 
ATOM      6  C   LIG    1        0.108  -4.934   3.624  0.00  0.00    -0.160 A 
ENDROOT
BRANCH   4   7
ATOM      7  C   LIG    1        0.100  -2.130   1.107  0.00  0.00    -0.040 A 
ATOM      8  C   LIG    1        0.088  -2.833  -0.095  0.00  0.00    +0.060 A 
ATOM      9  C   LIG    1        0.082  -2.148  -1.293  0.00  0.00    +0.030 A 
ATOM     10  C   LIG    1        0.082  -0.765  -1.302  0.00  0.00    +0.070 A 
ATOM     11  C   LIG    1        0.099  -0.061  -0.111  0.00  0.00    -0.180 A 
ATOM     12  C   LIG    1        0.106  -0.736   1.093  0.00  0.00    +0.080 A 
BRANCH  11  13
ATOM     13  C   LIG    1        0.105   1.446  -0.128  0.00  0.00    +0.510 C 
ATOM     14  F   LIG    1       -0.544   1.928   1.014  0.00  0.00    -0.180 F 
ATOM     15  F   LIG    1       -0.561   1.902  -1.271  0.00  0.00    -0.180 F 
ATOM     16  F   LIG    1        1.426   1.907  -0.143  0.00  0.00    -0.170 F 
ENDBRANCH  11  13
ENDBRANCH   4   7
BRANCH   1  18
ATOM     17  C   LIG    1       -0.533  -4.376   7.104  0.00  0.00    +0.510 C 
ATOM     18  N   LIG    1        0.126  -4.888   6.046  0.00  0.00    -0.670 N 
ATOM     19  H   LIG    1        0.605  -5.728   6.132  0.00  0.00    +0.430 HD
ATOM     20  O   LIG    1       -1.210  -3.378   6.972  0.00  0.00    -0.490 OA
BRANCH  17  21
ATOM     21  C   LIG    1       -0.429  -5.043   8.451  0.00  0.00    +0.230 C 
BRANCH  21  23
ATOM     22  C   LIG    1       -1.181  -4.871  10.720  0.00  0.00    +0.220 C 
ATOM     23  O   LIG    1       -1.211  -4.319   9.403  0.00  0.00    -0.370 OA
ENDBRANCH  21  23
ENDBRANCH  17  21
ENDBRANCH   1  18
BRANCH   6  24
ATOM     24  C   LIG    1        0.101  -6.409   3.644  0.00  0.00    +0.520 C 
ATOM     25  O   LIG    1        0.198  -7.002   4.700  0.00  0.00    -0.510 OA
BRANCH  24  26
ATOM     26  O   LIG    1       -0.012  -7.098   2.491  0.00  0.00    -0.350 OA
ATOM     27  C   LIG    1       -0.011  -8.546   2.587  0.00  0.00    +0.290 C 
ENDBRANCH  24  26
ENDBRANCH   6  24
TORSDOF 7
