REMARK  Name = ZINCAx00000008BY.0
REMARK                            x       y       z     vdW  Elec       q    Type
REMARK                         _______ _______ _______ _____ _____    ______ ____
ROOT
ATOM      1  C   LIG    1        4.639  -4.217  -2.557  0.00  0.00    +0.160 C 
ATOM      2  C   LIG    1        4.832  -4.492  -4.064  0.00  0.00    +0.170 C 
ATOM      3  N   LIG    1        5.799  -5.559  -4.230  0.00  0.00    -0.540 NA
ATOM      4  C   LIG    1        5.199  -6.907  -4.344  0.00  0.00    +0.180 C 
ATOM      5  C   LIG    1        4.048  -7.114  -3.352  0.00  0.00    +0.000 C 
ATOM      6  C   LIG    1        4.366  -6.528  -1.996  0.00  0.00    +0.240 C 
ATOM      7  O   LIG    1        3.871  -5.179  -1.970  0.00  0.00    -0.380 OA
ENDROOT
BRANCH   1   8
ATOM      8  C   LIG    1        3.960  -2.857  -2.380  0.00  0.00    +0.290 C 
BRANCH   8  10
ATOM      9  C   LIG    1        3.340  -1.363  -0.557  0.00  0.00    +0.490 C 
ATOM     10  N   LIG    1        3.901  -2.523  -0.955  0.00  0.00    -0.720 N 
ATOM     11  H   LIG    1        4.264  -3.136  -0.297  0.00  0.00    +0.410 HD
ATOM     12  O   LIG    1        2.886  -0.596  -1.380  0.00  0.00    -0.520 OA
BRANCH   9  13
ATOM     13  C   LIG    1        3.279  -1.020   0.909  0.00  0.00    +0.330 C 
BRANCH  13  23
ATOM     14  C   LIG    1        4.728   1.712   0.941  0.00  0.00    +0.190 C 
ATOM     15  C   LIG    1        3.245   1.495   1.096  0.00  0.00    +0.290 A 
ATOM     16  N   LIG    1        2.367   2.440   1.266  0.00  0.00    -0.490 NA
ATOM     17  C   LIG    1        1.126   1.898   1.368  0.00  0.00    +0.050 A 
ATOM     18  C   LIG    1       -0.149   2.438   1.554  0.00  0.00    +0.070 A 
ATOM     19  C   LIG    1       -1.235   1.611   1.618  0.00  0.00    +0.000 A 
ATOM     20  C   LIG    1       -1.087   0.237   1.496  0.00  0.00    +0.030 A 
ATOM     21  C   LIG    1        0.162  -0.318   1.317  0.00  0.00    +0.010 A 
ATOM     22  C   LIG    1        1.277   0.506   1.249  0.00  0.00    +0.060 A 
ATOM     23  N   LIG    1        2.629   0.282   1.078  0.00  0.00    -0.480 N 
ENDBRANCH  13  23
ENDBRANCH   9  13
ENDBRANCH   8  10
ENDBRANCH   1   8
BRANCH   3  24
ATOM     24  C   LIG    1        6.697  -5.285  -5.360  0.00  0.00    +0.210 C 
BRANCH  24  25
ATOM     25  C   LIG    1        7.883  -6.212  -5.295  0.00  0.00    +0.520 C 
ATOM     26  N   LIG    1        8.786  -6.223  -6.295  0.00  0.00    -0.580 N 
ATOM     27  O   LIG    1        8.025  -6.949  -4.342  0.00  0.00    -0.510 OA
BRANCH  26  28
ATOM     28  C   LIG    1        9.869  -7.209  -6.294  0.00  0.00    +0.200 C 
ATOM     29  C   LIG    1        9.718  -8.424  -5.376  0.00  0.00    +0.030 C 
ATOM     30  C   LIG    1       10.721  -7.322  -5.028  0.00  0.00    +0.010 C 
ENDBRANCH  26  28
BRANCH  26  31
ATOM     31  C   LIG    1        8.684  -5.248  -7.384  0.00  0.00    +0.330 C 
BRANCH  31  32
ATOM     32  C   LIG    1        9.498  -4.027  -7.043  0.00  0.00    -0.110 A 
ATOM     33  C   LIG    1        8.912  -2.974  -6.364  0.00  0.00    +0.010 A 
ATOM     34  C   LIG    1        9.660  -1.855  -6.047  0.00  0.00    +0.000 A 
ATOM     35  C   LIG    1       10.990  -1.785  -6.417  0.00  0.00    +0.010 A 
ATOM     36  C   LIG    1       11.574  -2.835  -7.101  0.00  0.00    +0.000 A 
ATOM     37  C   LIG    1       10.827  -3.956  -7.414  0.00  0.00    +0.020 A 
ENDBRANCH  31  32
ENDBRANCH  26  31
ENDBRANCH  24  25
ENDBRANCH   3  24
TORSDOF 9
