REMARK  Name = ZINCpk00001AZiYq.0
REMARK                            x       y       z     vdW  Elec       q    Type
REMARK                         _______ _______ _______ _____ _____    ______ ____
ROOT
ATOM      1  C   LIG    1        5.050   1.842   1.897  0.00  0.00    +0.590 C 
ATOM      2  N   LIG    1        4.037   1.994   1.021  0.00  0.00    -0.590 N 
ATOM      3  C   LIG    1        3.079   3.098   1.169  0.00  0.00    +0.290 C 
ATOM      4  C   LIG    1        1.660   2.519   1.196  0.00  0.00    +0.030 C 
ATOM      5  C   LIG    1        1.444   1.649  -0.040  0.00  0.00    -0.070 C 
ATOM      6  C   LIG    1        2.444   0.495  -0.061  0.00  0.00    +0.030 C 
ATOM      7  C   LIG    1        1.606   2.502  -1.312  0.00  0.00    +0.020 C 
ATOM      8  C   LIG    1        0.531   1.946  -2.280  0.00  0.00    +0.020 C 
ATOM      9  C   LIG    1       -0.657   1.642  -1.333  0.00  0.00    +0.010 C 
ATOM     10  C   LIG    1        0.010   1.100  -0.051  0.00  0.00    +0.240 C 
ATOM     11  C   LIG    1        3.869   1.057  -0.098  0.00  0.00    +0.260 C 
ATOM     12  O   LIG    1        5.236   2.677   2.763  0.00  0.00    -0.510 OA
ENDROOT
BRANCH   1  14
ATOM     13  C   LIG    1        5.759  -0.549   2.460  0.00  0.00    -0.100 A 
ATOM     14  C   LIG    1        5.930   0.671   1.806  0.00  0.00    +0.070 A 
ATOM     15  N   LIG    1        7.077   0.568   1.069  0.00  0.00    -0.350 N 
ATOM     16  N   LIG    1        7.605  -0.713   1.265  0.00  0.00    -0.270 NA
ATOM     17  C   LIG    1        7.653   1.616   0.222  0.00  0.00    +0.380 C 
ATOM     18  C   LIG    1        6.830  -1.377   2.082  0.00  0.00    +0.280 A 
BRANCH  13  20
ATOM     19  C   LIG    1        3.814  -1.178   4.076  0.00  0.00    +0.050 C 
ATOM     20  C   LIG    1        4.691  -0.894   3.348  0.00  0.00    -0.120 C 
ENDBRANCH  13  20
ENDBRANCH   1  14
BRANCH  10  21
ATOM     21  N   LIG    1       -0.717   1.571   1.131  0.00  0.00    -0.720 N 
ATOM     22  H   LIG    1       -0.440   2.386   1.579  0.00  0.00    +0.400 HD
ATOM     23  C   LIG    1       -1.770   0.871   1.597  0.00  0.00    +0.540 C 
ATOM     24  O   LIG    1       -2.118  -0.151   1.037  0.00  0.00    -0.540 OA
BRANCH  23  25
ATOM     25  C   LIG    1       -2.500   1.343   2.784  0.00  0.00    -0.090 C 
ATOM     26  C   LIG    1       -3.539   0.653   3.244  0.00  0.00    +0.140 C 
ENDBRANCH  23  25
ENDBRANCH  10  21
TORSDOF 4
