REMARK  Name = ZINCqH0000036ce0.0
REMARK                            x       y       z     vdW  Elec       q    Type
REMARK                         _______ _______ _______ _____ _____    ______ ____
ROOT
ATOM      1  C   LIG    1        1.051   1.775  -0.176  0.00  0.00    +0.590 C 
ATOM      2  N   LIG    1       -0.011   0.966   0.007  0.00  0.00    -0.670 N 
ATOM      3  H   LIG    1        0.121   0.012   0.125  0.00  0.00    +0.410 HD
ATOM      4  O   LIG    1        0.881   2.955  -0.421  0.00  0.00    -0.500 OA
ENDROOT
BRANCH   1  10
ATOM      5  C   LIG    1        6.325  -1.104   0.359  0.00  0.00    +0.170 A 
ATOM      6  C   LIG    1        6.858   0.156   0.088  0.00  0.00    -0.090 A 
ATOM      7  C   LIG    1        6.038   1.224  -0.125  0.00  0.00    +0.120 A 
ATOM      8  C   LIG    1        4.647   1.059  -0.073  0.00  0.00    -0.160 A 
ATOM      9  C   LIG    1        3.558   1.945  -0.250  0.00  0.00    +0.090 A 
ATOM     10  C   LIG    1        2.413   1.233  -0.080  0.00  0.00    -0.010 A 
ATOM     11  N   LIG    1        2.734  -0.084   0.192  0.00  0.00    -0.580 N 
ATOM     12  H   LIG    1        2.099  -0.800   0.349  0.00  0.00    +0.420 HD
ATOM     13  C   LIG    1        4.104  -0.212   0.201  0.00  0.00    +0.160 A 
ATOM     14  C   LIG    1        4.956  -1.289   0.416  0.00  0.00    -0.050 A 
BRANCH   5  16
ATOM     15  C   LIG    1        8.560  -1.899   0.496  0.00  0.00    +0.250 C 
ATOM     16  O   LIG    1        7.157  -2.157   0.569  0.00  0.00    -0.310 OA
ENDBRANCH   5  16
ENDBRANCH   1  10
BRANCH   2  17
ATOM     17  C   LIG    1       -1.304   1.500   0.022  0.00  0.00    +0.170 A 
ATOM     18  C   LIG    1       -2.368   0.758  -0.473  0.00  0.00    +0.020 A 
ATOM     19  C   LIG    1       -3.644   1.284  -0.458  0.00  0.00    +0.090 A 
ATOM     20  C   LIG    1       -3.865   2.556   0.051  0.00  0.00    +0.120 A 
ATOM     21  C   LIG    1       -2.800   3.301   0.546  0.00  0.00    +0.100 A 
ATOM     22  F   LIG    1       -3.014   4.540   1.042  0.00  0.00    -0.130 F 
ATOM     23  C   LIG    1       -1.524   2.772   0.537  0.00  0.00    +0.030 A 
BRANCH  20  24
ATOM     24  N   LIG    1       -5.162   3.091   0.065  0.00  0.00    -0.330 N 
ATOM     25  C   LIG    1       -5.515   4.310   0.530  0.00  0.00    +0.240 A 
ATOM     26  C   LIG    1       -6.852   4.443   0.366  0.00  0.00    -0.100 A 
ATOM     27  C   LIG    1       -7.333   3.266  -0.218  0.00  0.00    +0.250 A 
ATOM     28  N   LIG    1       -6.321   2.458  -0.404  0.00  0.00    -0.290 NA
ENDBRANCH  20  24
ENDBRANCH   2  17
TORSDOF 4
