REMARK  Name = ZINCkj000005jRL8.1
REMARK                            x       y       z     vdW  Elec       q    Type
REMARK                         _______ _______ _______ _____ _____    ______ ____
ROOT
ATOM      1  S   LIG    1       -0.017   1.417   0.010  0.00  0.00    +2.690 S 
ATOM      2  O   LIG    1        1.162   2.210   0.003  0.00  0.00    -0.910 OA
ATOM      3  O   LIG    1        0.002  -0.004   0.002  0.00  0.00    -0.920 OA
ENDROOT
BRANCH   1   4
ATOM      4  C   LIG    1       -0.930   1.894   1.440  0.00  0.00    -0.800 A 
ATOM      5  C   LIG    1       -0.728   3.142   2.005  0.00  0.00    +0.250 A 
ATOM      6  C   LIG    1       -1.448   3.518   3.126  0.00  0.00    -0.050 A 
ATOM      7  C   LIG    1       -2.363   2.644   3.687  0.00  0.00    +0.230 A 
ATOM      8  C   LIG    1       -2.561   1.395   3.124  0.00  0.00    -0.050 A 
ATOM      9  F   LIG    1       -3.063   3.010   4.783  0.00  0.00    -0.100 F 
ATOM     10  F   LIG    1        0.169   3.993   1.460  0.00  0.00    -0.090 F 
ATOM     11  C   LIG    1       -1.844   1.020   2.001  0.00  0.00    +0.260 A 
ATOM     12  F   LIG    1       -2.037  -0.200   1.452  0.00  0.00    -0.090 F 
ENDBRANCH   1   4
BRANCH   1  13
ATOM     13  N   LIG    1       -0.900   1.880  -1.312  0.00  0.00    -1.120 NA
ATOM     14  H   LIG    1       -1.261   1.209  -1.914  0.00  0.00    +0.420 HD
BRANCH  13  23
ATOM     15  C   LIG    1        0.174   3.068  -3.691  0.00  0.00    +0.040 C 
ATOM     16  C   LIG    1       -1.146   3.549  -3.085  0.00  0.00    +0.010 C 
ATOM     17  C   LIG    1       -2.311   2.774  -3.711  0.00  0.00    +0.060 C 
ATOM     18  C   LIG    1       -3.619   3.204  -3.044  0.00  0.00    +0.270 C 
ATOM     19  N   LIG    1       -3.557   2.917  -1.606  0.00  0.00    -0.500 N 
ATOM     20  C   LIG    1       -2.489   3.712  -0.986  0.00  0.00    +0.250 C 
ATOM     21  H   LIG    1       -4.440   3.153  -1.179  0.00  0.00    +0.440 HD
ATOM     22  H   LIG    1       -3.368   1.936  -1.467  0.00  0.00    +0.420 HD
ATOM     23  C   LIG    1       -1.137   3.302  -1.574  0.00  0.00    +0.260 C 
ENDBRANCH  13  23
ENDBRANCH   1  13
TORSDOF 3
