REMARK  Name = ZINCrH000004nomB.0
REMARK                            x       y       z     vdW  Elec       q    Type
REMARK                         _______ _______ _______ _____ _____    ______ ____
ROOT
ATOM      1  N   LIG    1        1.030   4.153  -1.480  0.00  0.00    -0.510 NA
ATOM      2  C   LIG    1       -0.163   3.990  -2.322  0.00  0.00    +0.190 C 
ENDROOT
BRANCH   1   3
ATOM      3  C   LIG    1        1.438   5.562  -1.412  0.00  0.00    +0.210 C 
BRANCH   3   6
ATOM      4  N   LIG    1        2.319   7.285  -2.952  0.00  0.00    -0.680 N 
ATOM      5  H   LIG    1        2.257   7.925  -2.225  0.00  0.00    +0.410 HD
ATOM      6  C   LIG    1        1.896   6.018  -2.773  0.00  0.00    +0.510 C 
ATOM      7  O   LIG    1        1.883   5.245  -3.708  0.00  0.00    -0.490 OA
BRANCH   4  12
ATOM      8  C   LIG    1        4.090   7.168  -6.176  0.00  0.00    +0.150 A 
ATOM      9  C   LIG    1        3.891   8.464  -6.630  0.00  0.00    -0.100 A 
ATOM     10  C   LIG    1        3.173   9.364  -5.864  0.00  0.00    +0.070 A 
ATOM     11  C   LIG    1        2.647   8.973  -4.649  0.00  0.00    -0.050 A 
ATOM     12  C   LIG    1        2.847   7.679  -4.187  0.00  0.00    +0.190 A 
ATOM     13  C   LIG    1        3.568   6.774  -4.954  0.00  0.00    -0.010 A 
BRANCH   8  15
ATOM     14  C   LIG    1        5.304   6.758  -8.178  0.00  0.00    +0.250 C 
ATOM     15  O   LIG    1        4.796   6.285  -6.930  0.00  0.00    -0.310 OA
ENDBRANCH   8  15
ENDBRANCH   4  12
ENDBRANCH   3   6
ENDBRANCH   1   3
BRANCH   1  16
ATOM     16  C   LIG    1        0.803   3.605  -0.135  0.00  0.00    +0.240 C 
BRANCH  16  17
ATOM     17  C   LIG    1        0.629   2.111  -0.225  0.00  0.00    -0.060 A 
ATOM     18  C   LIG    1       -0.637   1.560  -0.197  0.00  0.00    +0.010 A 
ATOM     19  C   LIG    1       -0.798   0.189  -0.278  0.00  0.00    +0.000 A 
ATOM     20  C   LIG    1        0.307  -0.635  -0.388  0.00  0.00    +0.010 A 
ATOM     21  C   LIG    1        1.576  -0.091  -0.416  0.00  0.00    -0.030 A 
ATOM     22  C   LIG    1        1.741   1.286  -0.335  0.00  0.00    +0.120 A 
BRANCH  22  23
ATOM     23  N   LIG    1        3.023   1.840  -0.363  0.00  0.00    -0.490 N 
ATOM     24  C   LIG    1        3.679   1.583  -1.651  0.00  0.00    +0.180 C 
ATOM     25  C   LIG    1        5.017   2.324  -1.701  0.00  0.00    +0.030 C 
ATOM     26  C   LIG    1        5.905   1.844  -0.549  0.00  0.00    +0.000 C 
ATOM     27  C   LIG    1        5.178   2.079   0.778  0.00  0.00    +0.030 C 
ATOM     28  C   LIG    1        3.835   1.344   0.755  0.00  0.00    +0.160 C 
ENDBRANCH  22  23
ENDBRANCH  16  17
ENDBRANCH   1  16
TORSDOF 7
