REMARK  Name = ZINCvU00000009CF.0
REMARK                            x       y       z     vdW  Elec       q    Type
REMARK                         _______ _______ _______ _____ _____    ______ ____
ROOT
ATOM      1  C   LIG    1       -3.463   4.994   0.045  0.00  0.00    +0.000 A 
ATOM      2  C   LIG    1       -2.698   6.164   0.053  0.00  0.00    +0.050 A 
ATOM      3  C   LIG    1       -3.319   7.391   0.057  0.00  0.00    +0.060 A 
ATOM      4  C   LIG    1       -4.715   7.469   0.064  0.00  0.00    -0.110 A 
ATOM      5  C   LIG    1       -5.479   6.299   0.061  0.00  0.00    +0.090 A 
ATOM      6  C   LIG    1       -4.859   5.071   0.052  0.00  0.00    +0.080 A 
ENDROOT
BRANCH   1  10
ATOM      7  C   LIG    1       -1.304   2.117   0.020  0.00  0.00    +0.220 A 
ATOM      8  N   LIG    1       -2.502   1.575   0.017  0.00  0.00    -0.270 NA
ATOM      9  N   LIG    1       -3.391   2.504   0.032  0.00  0.00    -0.260 NA
ATOM     10  C   LIG    1       -2.797   3.676   0.035  0.00  0.00    +0.200 A 
ATOM     11  O   LIG    1       -1.466   3.455   0.028  0.00  0.00    -0.210 OA
BRANCH   7  16
ATOM     12  C   LIG    1        3.710  -0.705  -0.037  0.00  0.00    +0.100 C 
ATOM     13  C   LIG    1        2.396   0.034  -0.021  0.00  0.00    -0.050 A 
ATOM     14  C   LIG    1        1.208  -0.674  -0.013  0.00  0.00    +0.020 A 
ATOM     15  C   LIG    1        0.002  -0.004   0.002  0.00  0.00    +0.080 A 
ATOM     16  C   LIG    1       -0.017   1.392   0.010  0.00  0.00    -0.040 A 
ATOM     17  C   LIG    1        1.186   2.100   0.002  0.00  0.00    +0.050 A 
ATOM     18  C   LIG    1        2.385   1.417  -0.013  0.00  0.00    +0.010 A 
ENDBRANCH   7  16
ENDBRANCH   1  10
BRANCH   4  19
ATOM     19  C   LIG    1       -5.381   8.787   0.075  0.00  0.00    +0.560 C 
ATOM     20  N   LIG    1       -4.644   9.915   0.078  0.00  0.00    -0.720 N 
ATOM     21  H   LIG    1       -3.675   9.861   0.073  0.00  0.00    +0.400 HD
ATOM     22  O   LIG    1       -6.595   8.854   0.081  0.00  0.00    -0.520 OA
BRANCH  20  23
ATOM     23  C   LIG    1       -5.305  11.222   0.088  0.00  0.00    +0.300 C 
ATOM     24  C   LIG    1       -4.398  12.220   0.787  0.00  0.00    +0.050 C 
ATOM     25  C   LIG    1       -5.101  13.584   0.838  0.00  0.00    +0.120 C 
ATOM     26  S   LIG    1       -5.081  14.265  -0.845  0.00  0.00    -0.120 S 
ATOM     27  C   LIG    1       -5.595  12.890  -1.825  0.00  0.00    -0.070 A 
ATOM     28  C   LIG    1       -5.949  13.135  -3.152  0.00  0.00    +0.030 A 
ATOM     29  C   LIG    1       -6.331  12.101  -3.979  0.00  0.00    +0.030 A 
ATOM     30  C   LIG    1       -6.363  10.810  -3.485  0.00  0.00    +0.010 A 
ATOM     31  C   LIG    1       -6.021  10.566  -2.172  0.00  0.00    +0.040 A 
ATOM     32  C   LIG    1       -5.639  11.603  -1.324  0.00  0.00    -0.100 A 
ENDBRANCH  20  23
ENDBRANCH   4  19
TORSDOF 4
