REMARK  Name = ZINCrH000004tEoB.0
REMARK                            x       y       z     vdW  Elec       q    Type
REMARK                         _______ _______ _______ _____ _____    ______ ____
ROOT
ATOM      1  C   LIG    1        2.384   1.460  -0.008  0.00  0.00    +0.160 A 
ATOM      2  C   LIG    1        1.160   2.105  -0.167  0.00  0.00    +0.020 A 
ATOM      3  C   LIG    1       -0.011   1.389  -0.156  0.00  0.00    +0.090 A 
ATOM      4  C   LIG    1        0.006  -0.010   0.017  0.00  0.00    +0.090 A 
ATOM      5  N   LIG    1       -1.035  -0.868   0.054  0.00  0.00    -0.500 NA
ATOM      6  C   LIG    1       -0.779  -2.119   0.225  0.00  0.00    +0.290 A 
ATOM      7  S   LIG    1        0.954  -2.376   0.370  0.00  0.00    +0.090 S 
ATOM      8  C   LIG    1        1.240  -0.648   0.176  0.00  0.00    -0.160 A 
ATOM      9  C   LIG    1        2.422   0.088   0.163  0.00  0.00    +0.070 A 
ENDROOT
BRANCH   6  10
ATOM     10  N   LIG    1       -1.732  -3.117   0.286  0.00  0.00    -0.450 N 
ATOM     11  C   LIG    1       -1.473  -4.154  -0.723  0.00  0.00    +0.190 C 
ATOM     12  C   LIG    1       -2.514  -5.268  -0.581  0.00  0.00    +0.240 C 
ATOM     13  O   LIG    1       -3.824  -4.707  -0.705  0.00  0.00    -0.380 OA
ATOM     14  C   LIG    1       -4.110  -3.693   0.262  0.00  0.00    +0.230 C 
ATOM     15  C   LIG    1       -3.085  -2.564   0.129  0.00  0.00    +0.200 C 
ENDBRANCH   6  10
BRANCH   1  18
ATOM     16  O   LIG    1        4.660   0.568  -1.059  0.00  0.00    -0.520 OA
ATOM     17  C   LIG    1        4.699   1.657  -0.528  0.00  0.00    +0.510 C 
ATOM     18  N   LIG    1        3.574   2.200  -0.021  0.00  0.00    -0.670 N 
ATOM     19  H   LIG    1        3.588   3.102   0.335  0.00  0.00    +0.420 HD
BRANCH  17  20
ATOM     20  C   LIG    1        6.004   2.405  -0.435  0.00  0.00    +0.090 C 
BRANCH  20  21
ATOM     21  C   LIG    1        7.114   1.574  -1.081  0.00  0.00    +0.060 C 
BRANCH  21  22
ATOM     22  C   LIG    1        8.420   2.322  -0.988  0.00  0.00    +0.430 C 
ATOM     23  O   LIG    1        8.458   3.413  -0.456  0.00  0.00    -0.450 OA
BRANCH  22  24
ATOM     24  C   LIG    1        9.598   1.754  -1.519  0.00  0.00    -0.320 A 
ATOM     25  C   LIG    1       10.842   2.333  -1.496  0.00  0.00    +0.110 A 
ATOM     26  C   LIG    1       11.810   1.559  -2.084  0.00  0.00    -0.010 A 
ATOM     27  C   LIG    1       11.383   0.387  -2.574  0.00  0.00    -0.050 A 
ATOM     28  S   LIG    1        9.710   0.187  -2.309  0.00  0.00    +0.230 S 
ENDBRANCH  22  24
ENDBRANCH  21  22
ENDBRANCH  20  21
ENDBRANCH  17  20
ENDBRANCH   1  18
TORSDOF 6
