REMARK  Name = ZINCvU0000000AmE.0
REMARK                            x       y       z     vdW  Elec       q    Type
REMARK                         _______ _______ _______ _____ _____    ______ ____
ROOT
ATOM      1  N   LIG    1        1.413   7.316   3.464  0.00  0.00    -0.720 N 
ATOM      2  H   LIG    1        0.787   7.311   4.204  0.00  0.00    +0.400 HD
ATOM      3  C   LIG    1        1.434   6.289   2.591  0.00  0.00    +0.540 C 
ATOM      4  O   LIG    1        2.218   6.295   1.666  0.00  0.00    -0.510 OA
ENDROOT
BRANCH   1   5
ATOM      5  C   LIG    1        2.338   8.440   3.295  0.00  0.00    +0.390 C 
BRANCH   5  10
ATOM      6  C   LIG    1        3.223  10.991   8.403  0.00  0.00    +0.090 C 
ATOM      7  C   LIG    1        2.992  10.327   7.071  0.00  0.00    -0.080 A 
ATOM      8  C   LIG    1        4.045  10.154   6.193  0.00  0.00    +0.010 A 
ATOM      9  C   LIG    1        3.834   9.543   4.971  0.00  0.00    +0.040 A 
ATOM     10  C   LIG    1        2.569   9.105   4.627  0.00  0.00    -0.100 A 
ATOM     11  C   LIG    1        1.514   9.283   5.503  0.00  0.00    +0.020 A 
ATOM     12  C   LIG    1        1.727   9.889   6.727  0.00  0.00    +0.020 A 
ENDBRANCH   5  10
BRANCH   5  13
ATOM     13  C   LIG    1        1.747   9.436   2.331  0.00  0.00    -0.190 A 
ATOM     14  C   LIG    1        2.429  10.099   1.396  0.00  0.00    +0.020 A 
ATOM     15  C   LIG    1        1.671  10.962   0.623  0.00  0.00    +0.010 A 
ATOM     16  C   LIG    1        0.375  11.007   0.937  0.00  0.00    -0.050 A 
ATOM     17  S   LIG    1        0.054   9.908   2.273  0.00  0.00    +0.110 S 
ENDBRANCH   5  13
ENDBRANCH   1   5
BRANCH   3  18
ATOM     18  C   LIG    1        0.483   5.133   2.765  0.00  0.00    +0.120 C 
BRANCH  18  19
ATOM     19  S   LIG    1        0.754   3.925   1.445  0.00  0.00    +0.050 S 
BRANCH  19  20
ATOM     20  C   LIG    1       -0.454   2.719   1.882  0.00  0.00    +0.170 A 
ATOM     21  N   LIG    1       -1.273   2.787   2.905  0.00  0.00    -0.480 NA
ATOM     22  C   LIG    1       -2.047   1.689   2.930  0.00  0.00    +0.000 A 
ATOM     23  C   LIG    1       -1.708   0.910   1.888  0.00  0.00    +0.010 A 
ATOM     24  C   LIG    1       -2.318  -0.420   1.528  0.00  0.00    +0.150 C 
ATOM     25  C   LIG    1       -3.112   1.383   3.951  0.00  0.00    +0.150 C 
ATOM     26  N   LIG    1       -0.698   1.558   1.213  0.00  0.00    -0.430 N 
BRANCH  26  27
ATOM     27  C   LIG    1       -0.013   1.086   0.008  0.00  0.00    +0.310 C 
BRANCH  27  28
ATOM     28  C   LIG    1       -0.753   1.593  -1.232  0.00  0.00    +0.150 C 
ATOM     29  C   LIG    1        0.007   1.180  -2.518  0.00  0.00    +0.020 C 
ATOM     30  C   LIG    1       -1.149   1.185  -3.556  0.00  0.00    +0.020 C 
ATOM     31  C   LIG    1       -2.352   0.714  -2.711  0.00  0.00    +0.190 C 
ATOM     32  O   LIG    1       -2.040   0.964  -1.336  0.00  0.00    -0.370 OA
ENDBRANCH  27  28
ENDBRANCH  26  27
ENDBRANCH  19  20
ENDBRANCH  18  19
ENDBRANCH   3  18
TORSDOF 8
