REMARK  Name = ZINCCC00000009JN.0
REMARK                            x       y       z     vdW  Elec       q    Type
REMARK                         _______ _______ _______ _____ _____    ______ ____
ROOT
ATOM      1  C   LIG    1        1.341   0.862   4.695  0.00  0.00    +0.180 C 
ATOM      2  C   LIG    1        2.405   0.353   3.719  0.00  0.00    +0.050 C 
ATOM      3  C   LIG    1        1.842   0.114   2.321  0.00  0.00    +0.240 C 
ATOM      4  N   LIG    1        0.521  -0.528   2.412  0.00  0.00    -0.590 N 
ATOM      5  C   LIG    1       -0.319  -0.552   1.366  0.00  0.00    +0.490 C 
ATOM      6  C   LIG    1        0.002  -0.004   0.002  0.00  0.00    +0.200 C 
ATOM      7  C   LIG    1       -0.018   1.516   0.010  0.00  0.00    +0.120 C 
ATOM      8  C   LIG    1        1.353   2.137   0.001  0.00  0.00    -0.110 C 
ATOM      9  C   LIG    1        1.457   3.415   0.327  0.00  0.00    +0.030 C 
ATOM     10  C   LIG    1        2.805   4.084   0.330  0.00  0.00    +0.350 C 
ATOM     11  N   LIG    1        2.895   5.059   1.423  0.00  0.00    -0.940 N 
ATOM     12  S   LIG    1        4.249   5.080   2.389  0.00  0.00    +2.670 S 
ATOM     13  C   LIG    1        3.686   4.949   4.056  0.00  0.00    -0.680 A 
ATOM     14  C   LIG    1        3.318   3.712   4.544  0.00  0.00    +0.150 A 
ATOM     15  C   LIG    1        2.865   3.570   5.856  0.00  0.00    -0.110 A 
ATOM     16  C   LIG    1        2.449   2.291   6.428  0.00  0.00    +0.560 C 
ATOM     17  O   LIG    1        2.628   2.257   7.643  0.00  0.00    -0.550 OA
ATOM     18  C   LIG    1        2.827   4.708   6.682  0.00  0.00    +0.170 A 
ATOM     19  C   LIG    1        3.192   5.934   6.186  0.00  0.00    +0.030 A 
ATOM     20  C   LIG    1        3.617   6.060   4.873  0.00  0.00    +0.080 A 
ATOM     21 CL   LIG    1        4.060   7.629   4.277  0.00  0.00    +0.000 Cl
ATOM     22  O   LIG    1        4.959   3.878   2.112  0.00  0.00    -0.950 OA
ATOM     23  O   LIG    1        4.831   6.366   2.243  0.00  0.00    -0.900 OA
ATOM     24  O   LIG    1       -1.425  -1.055   1.532  0.00  0.00    -0.490 OA
ATOM     25  C   LIG    1        0.145  -1.152   3.689  0.00  0.00    +0.300 C 
ATOM     26  N   LIG    1        1.976   1.161   5.975  0.00  0.00    -0.680 N 
ATOM     27  H   LIG    1        2.064   0.396   6.587  0.00  0.00    +0.410 HD
ATOM     28  C   LIG    1        0.292  -0.246   4.893  0.00  0.00    +0.060 C 
ENDROOT
BRANCH  11  29
ATOM     29  C   LIG    1        1.864   5.976   1.651  0.00  0.00    +0.120 A 
ATOM     30  C   LIG    1        0.774   5.618   2.434  0.00  0.00    +0.020 A 
ATOM     31  C   LIG    1       -0.242   6.526   2.658  0.00  0.00    +0.020 A 
ATOM     32  C   LIG    1       -0.176   7.791   2.104  0.00  0.00    +0.060 A 
ATOM     33  C   LIG    1        0.907   8.152   1.323  0.00  0.00    +0.040 A 
ATOM     34  C   LIG    1        1.930   7.251   1.100  0.00  0.00    -0.010 A 
ATOM     35 CL   LIG    1        3.293   7.707   0.127  0.00  0.00    -0.030 Cl
ENDBRANCH  11  29
BRANCH   6  36
ATOM     36  N   LIG    1        1.244  -0.560  -0.528  0.00  0.00    -0.630 N 
ATOM     37  H   LIG    1        1.373  -0.248  -1.479  0.00  0.00    +0.450 HD
ATOM     38  H   LIG    1        1.197  -1.567  -0.508  0.00  0.00    +0.450 HD
ATOM     39  H   LIG    1        2.020  -0.247   0.036  0.00  0.00    +0.430 HD
ENDBRANCH   6  36
BRANCH   1  40
ATOM     40  C   LIG    1        0.596   2.066   4.125  0.00  0.00    +0.160 C 
BRANCH  40  42
ATOM     41  C   LIG    1       -1.055   3.714   4.676  0.00  0.00    +0.210 C 
ATOM     42  O   LIG    1       -0.303   2.579   5.110  0.00  0.00    -0.370 OA
ENDBRANCH  40  42
ENDBRANCH   1  40
TORSDOF 4
