REMARK  Name = ZINCpe00000gMuQk.0
REMARK                            x       y       z     vdW  Elec       q    Type
REMARK                         _______ _______ _______ _____ _____    ______ ____
ROOT
ATOM      1  C   LIG    1        3.468   1.882  -1.145  0.00  0.00    +0.180 C 
ATOM      2  C   LIG    1        3.623   1.145   0.205  0.00  0.00    +0.060 C 
ATOM      3  C   LIG    1        2.237   1.229   0.870  0.00  0.00    +0.240 C 
ATOM      4  N   LIG    1        1.364   1.998  -0.042  0.00  0.00    -0.480 NA
ATOM      5  C   LIG    1        1.941   1.822  -1.399  0.00  0.00    +0.190 C 
ENDROOT
BRANCH   3   6
ATOM      6  C   LIG    1        2.347   1.938   2.196  0.00  0.00    +0.160 A 
ATOM      7  N   LIG    1        2.547   3.221   2.372  0.00  0.00    -0.210 NA
ATOM      8  N   LIG    1        2.588   3.496   3.630  0.00  0.00    -0.250 NA
ATOM      9  C   LIG    1        2.413   2.387   4.325  0.00  0.00    +0.120 A 
ATOM     10  C   LIG    1        2.363   2.084   5.699  0.00  0.00    +0.410 A 
ATOM     11  N   LIG    1        2.169   0.845   6.082  0.00  0.00    -0.450 NA
ATOM     12  C   LIG    1        2.016  -0.142   5.196  0.00  0.00    +0.240 A 
ATOM     13  C   LIG    1        2.055   0.095   3.867  0.00  0.00    +0.190 A 
ATOM     14  N   LIG    1        2.250   1.369   3.413  0.00  0.00    -0.370 N 
ENDBRANCH   3   6
BRANCH   1  16
ATOM     15  C   LIG    1        4.568   2.044  -3.269  0.00  0.00    +0.220 C 
ATOM     16  O   LIG    1        4.180   1.202  -2.182  0.00  0.00    -0.380 OA
ENDBRANCH   1  16
BRANCH   4  17
ATOM     17  C   LIG    1       -0.018   1.503   0.010  0.00  0.00    +0.200 C 
BRANCH  17  18
ATOM     18  C   LIG    1       -0.893   2.359  -0.869  0.00  0.00    +0.520 C 
ATOM     19  N   LIG    1       -2.180   2.018  -1.077  0.00  0.00    -0.620 N 
ATOM     20  C   LIG    1       -2.743   0.810  -0.458  0.00  0.00    +0.260 C 
ATOM     21  C   LIG    1       -4.011   1.203   0.315  0.00  0.00    +0.010 C 
ATOM     22  C   LIG    1       -4.971   1.932  -0.628  0.00  0.00    +0.020 C 
ATOM     23  C   LIG    1       -4.308   3.210  -1.146  0.00  0.00    +0.010 C 
ATOM     24  C   LIG    1       -3.045   2.843  -1.931  0.00  0.00    +0.270 C 
ATOM     25  O   LIG    1       -0.438   3.356  -1.389  0.00  0.00    -0.510 OA
ENDBRANCH  17  18
ENDBRANCH   4  17
TORSDOF 4
