REMARK  Name = ZINCqH0000032Mln.0
REMARK                            x       y       z     vdW  Elec       q    Type
REMARK                         _______ _______ _______ _____ _____    ______ ____
ROOT
ATOM      1  N   LIG    1        3.231   1.824   0.974  0.00  0.00    -0.720 N 
ATOM      2  H   LIG    1        3.877   2.494   0.700  0.00  0.00    +0.400 HD
ATOM      3  C   LIG    1        3.102   1.507   2.277  0.00  0.00    +0.500 C 
ATOM      4  O   LIG    1        2.294   0.669   2.620  0.00  0.00    -0.510 OA
ENDROOT
BRANCH   1   5
ATOM      5  C   LIG    1        2.397   1.158  -0.029  0.00  0.00    +0.330 C 
BRANCH   5   6
ATOM      6  C   LIG    1        1.038   1.808  -0.064  0.00  0.00    -0.190 A 
ATOM      7  C   LIG    1       -0.121   1.160  -0.193  0.00  0.00    +0.020 A 
ATOM      8  C   LIG    1       -1.244   1.970  -0.204  0.00  0.00    +0.010 A 
ATOM      9  C   LIG    1       -0.998   3.274  -0.073  0.00  0.00    -0.060 A 
ATOM     10  S   LIG    1        0.737   3.536   0.061  0.00  0.00    +0.110 S 
ENDBRANCH   5   6
BRANCH   5  11
ATOM     11  C   LIG    1        3.056   1.280  -1.404  0.00  0.00    +0.000 C 
BRANCH  11  13
ATOM     12  C   LIG    1        3.822   2.887  -3.157  0.00  0.00    +0.030 C 
ATOM     13  C   LIG    1        3.279   2.758  -1.733  0.00  0.00    +0.010 C 
ENDBRANCH  11  13
BRANCH  11  14
ATOM     14  C   LIG    1        4.401   0.552  -1.391  0.00  0.00    +0.010 C 
ATOM     15  C   LIG    1        4.169  -0.945  -1.179  0.00  0.00    +0.010 C 
ENDBRANCH  11  14
ENDBRANCH   5  11
ENDBRANCH   1   5
BRANCH   3  16
ATOM     16  C   LIG    1        3.960   2.193   3.309  0.00  0.00    +0.330 C 
BRANCH  16  17
ATOM     17  N   LIG    1        3.631   1.677   4.640  0.00  0.00    -0.530 N 
ATOM     18  C   LIG    1        2.664   2.283   5.377  0.00  0.00    +0.580 A 
ATOM     19  N   LIG    1        2.312   1.883   6.560  0.00  0.00    -0.520 NA
ATOM     20  C   LIG    1        2.904   0.818   7.157  0.00  0.00    +0.150 A 
ATOM     21  C   LIG    1        2.529   0.391   8.432  0.00  0.00    +0.030 A 
ATOM     22  C   LIG    1        3.159  -0.695   8.999  0.00  0.00    +0.070 A 
ATOM     23  C   LIG    1        4.162  -1.371   8.319  0.00  0.00    -0.010 A 
ATOM     24  C   LIG    1        4.549  -0.969   7.059  0.00  0.00    +0.100 A 
ATOM     25  C   LIG    1        3.925   0.127   6.467  0.00  0.00    -0.190 A 
ATOM     26  C   LIG    1        4.296   0.603   5.126  0.00  0.00    +0.560 A 
ATOM     27  O   LIG    1        5.168   0.053   4.479  0.00  0.00    -0.510 OA
ENDBRANCH  16  17
ENDBRANCH   3  16
TORSDOF 7
