REMARK  Name = ZINCrD000000AqRg.0
REMARK                            x       y       z     vdW  Elec       q    Type
REMARK                         _______ _______ _______ _____ _____    ______ ____
ROOT
ATOM      1  O   LIG    1        0.432   5.034   1.419  0.00  0.00    -0.480 OA
ATOM      2  C   LIG    1        0.116   3.977   0.917  0.00  0.00    +0.520 C 
ATOM      3  N   LIG    1       -0.862   3.233   1.472  0.00  0.00    -0.670 N 
ATOM      4  H   LIG    1       -1.161   2.421   1.033  0.00  0.00    +0.420 HD
ENDROOT
BRANCH   3   5
ATOM      5  C   LIG    1       -1.444   3.632   2.679  0.00  0.00    +0.200 A 
ATOM      6  C   LIG    1       -1.853   2.679   3.603  0.00  0.00    -0.020 A 
ATOM      7  C   LIG    1       -2.423   3.076   4.797  0.00  0.00    +0.150 A 
ATOM      8  C   LIG    1       -2.597   4.421   5.068  0.00  0.00    -0.690 A 
ATOM      9  C   LIG    1       -2.197   5.372   4.148  0.00  0.00    +0.140 A 
ATOM     10  C   LIG    1       -1.621   4.981   2.955  0.00  0.00    +0.010 A 
BRANCH   8  11
ATOM     11  S   LIG    1       -3.332   4.923   6.589  0.00  0.00    +2.710 S 
ATOM     12  O   LIG    1       -2.889   6.252   6.829  0.00  0.00    -0.950 OA
ATOM     13  O   LIG    1       -3.124   3.857   7.506  0.00  0.00    -0.950 OA
BRANCH  11  14
ATOM     14  N   LIG    1       -4.966   5.013   6.338  0.00  0.00    -1.010 NA
ATOM     15  C   LIG    1       -5.700   6.206   5.891  0.00  0.00    +0.270 C 
ATOM     16  C   LIG    1       -7.194   5.825   5.822  0.00  0.00    +0.030 C 
ATOM     17  C   LIG    1       -7.286   4.611   6.783  0.00  0.00    +0.030 C 
ATOM     18  C   LIG    1       -5.927   3.912   6.532  0.00  0.00    +0.270 C 
ENDBRANCH  11  14
ENDBRANCH   8  11
ENDBRANCH   3   5
BRANCH   2  19
ATOM     19  C   LIG    1        0.815   3.495  -0.328  0.00  0.00    +0.240 C 
BRANCH  19  20
ATOM     20  O   LIG    1        1.804   4.450  -0.719  0.00  0.00    -0.270 OA
BRANCH  20  21
ATOM     21  C   LIG    1        2.531   4.165  -1.832  0.00  0.00    +0.140 A 
ATOM     22  C   LIG    1        2.301   2.988  -2.529  0.00  0.00    -0.030 A 
ATOM     23  C   LIG    1        3.037   2.702  -3.663  0.00  0.00    +0.050 A 
ATOM     24  C   LIG    1        4.011   3.585  -4.098  0.00  0.00    +0.070 A 
ATOM     25  C   LIG    1        4.246   4.758  -3.400  0.00  0.00    +0.070 A 
ATOM     26  F   LIG    1        4.733   3.301  -5.204  0.00  0.00    -0.130 F 
ATOM     27  C   LIG    1        3.507   5.049  -2.269  0.00  0.00    -0.100 A 
ATOM     28 BR   LIG    1        3.828   6.651  -1.316  0.00  0.00    -0.010 Br
ENDBRANCH  20  21
ENDBRANCH  19  20
ENDBRANCH   2  19
TORSDOF 6
