REMARK  Name = ZINCkj00000y7Jcz.0
REMARK                            x       y       z     vdW  Elec       q    Type
REMARK                         _______ _______ _______ _____ _____    ______ ____
ROOT
ATOM      1  C   LIG    1       -1.624   2.360   3.646  0.00  0.00    +0.580 C 
ATOM      2  N   LIG    1       -1.841   3.074   2.523  0.00  0.00    -0.590 N 
ATOM      3  C   LIG    1       -2.879   4.082   2.571  0.00  0.00    +0.260 C 
ATOM      4  C   LIG    1       -3.481   4.371   1.210  0.00  0.00    +0.020 C 
ATOM      5  C   LIG    1       -2.436   4.442   0.118  0.00  0.00    +0.060 C 
ATOM      6  C   LIG    1       -1.560   3.209   0.058  0.00  0.00    -0.020 C 
ATOM      7  C   LIG    1       -2.167   2.131  -0.783  0.00  0.00    +0.250 C 
ATOM      8  N   LIG    1       -1.224   1.397  -1.605  0.00  0.00    -0.490 N 
ATOM      9  C   LIG    1       -0.564   0.348  -0.869  0.00  0.00    +0.250 C 
ATOM     10  C   LIG    1        0.308   0.922   0.232  0.00  0.00    +0.050 C 
ATOM     11  C   LIG    1       -0.440   1.380   1.440  0.00  0.00    +0.070 C 
ATOM     12  H   LIG    1       -1.718   0.989  -2.385  0.00  0.00    +0.430 HD
ATOM     13  H   LIG    1       -0.529   2.038  -1.958  0.00  0.00    +0.420 HD
ATOM     14  C   LIG    1       -1.020   2.768   1.377  0.00  0.00    +0.220 C 
ATOM     15  O   LIG    1       -0.840   1.431   3.632  0.00  0.00    -0.530 OA
ENDROOT
BRANCH   1  20
ATOM     16  O   LIG    1       -4.256   3.560   8.245  0.00  0.00    -0.520 OA
ATOM     17  C   LIG    1       -3.664   3.304   7.210  0.00  0.00    +0.510 A 
ATOM     18  C   LIG    1       -3.177   4.353   6.407  0.00  0.00    -0.070 A 
ATOM     19  C   LIG    1       -2.512   4.062   5.257  0.00  0.00    +0.130 A 
ATOM     20  C   LIG    1       -2.336   2.706   4.889  0.00  0.00    -0.270 A 
ATOM     21  C   LIG    1       -2.831   1.711   5.707  0.00  0.00    +0.400 A 
ATOM     22  N   LIG    1       -3.481   2.023   6.844  0.00  0.00    -0.600 N 
ATOM     23  H   LIG    1       -3.823   1.312   7.408  0.00  0.00    +0.430 HD
ENDBRANCH   1  20
TORSDOF 1
