REMARK  Name = ZINCqH00000057U0.0
REMARK                            x       y       z     vdW  Elec       q    Type
REMARK                         _______ _______ _______ _____ _____    ______ ____
ROOT
ATOM      1  C   LIG    1        4.171  -3.717   1.577  0.00  0.00    +0.460 A 
ATOM      2  N   LIG    1        4.919  -4.144   0.566  0.00  0.00    -0.570 NA
ATOM      3  C   LIG    1        6.062  -4.778   0.793  0.00  0.00    +0.410 A 
ATOM      4  N   LIG    1        6.491  -5.020   2.023  0.00  0.00    -0.550 NA
ATOM      5  C   LIG    1        5.792  -4.627   3.079  0.00  0.00    +0.200 A 
ATOM      6  C   LIG    1        6.059  -4.777   4.560  0.00  0.00    +0.120 C 
ATOM      7  C   LIG    1        4.700  -4.515   5.244  0.00  0.00    +0.050 C 
ATOM      8  C   LIG    1        3.982  -3.611   4.219  0.00  0.00    +0.090 C 
ATOM      9  C   LIG    1        4.600  -3.958   2.885  0.00  0.00    -0.270 A 
ENDROOT
BRANCH   3  10
ATOM     10  C   LIG    1        6.875  -5.236  -0.359  0.00  0.00    -0.100 A 
ATOM     11  C   LIG    1        6.450  -4.997  -1.669  0.00  0.00    +0.120 A 
ATOM     12  C   LIG    1        7.246  -5.444  -2.710  0.00  0.00    -0.040 A 
ATOM     13  C   LIG    1        8.425  -6.107  -2.423  0.00  0.00    +0.270 A 
ATOM     14  N   LIG    1        8.800  -6.319  -1.176  0.00  0.00    -0.490 NA
ATOM     15  C   LIG    1        8.080  -5.906  -0.154  0.00  0.00    +0.320 A 
ENDBRANCH   3  10
BRANCH   1  16
ATOM     16  N   LIG    1        2.982  -3.049   1.339  0.00  0.00    -0.700 N 
ATOM     17  H   LIG    1        2.439  -2.744   2.083  0.00  0.00    +0.410 HD
BRANCH  16  18
ATOM     18  C   LIG    1        2.542  -2.803  -0.037  0.00  0.00    +0.320 C 
BRANCH  18  23
ATOM     19  C   LIG    1        0.002  -0.004   0.002  0.00  0.00    +0.210 A 
ATOM     20  C   LIG    1       -1.190  -0.716   0.015  0.00  0.00    -0.070 A 
ATOM     21  C   LIG    1       -1.168  -2.097   0.003  0.00  0.00    +0.050 A 
ATOM     22  C   LIG    1        0.040  -2.771  -0.012  0.00  0.00    -0.040 A 
ATOM     23  C   LIG    1        1.229  -2.065  -0.020  0.00  0.00    -0.070 A 
ATOM     24  C   LIG    1        1.214  -0.684  -0.013  0.00  0.00    -0.060 A 
BRANCH  19  26
ATOM     25  C   LIG    1        1.242   2.142   0.002  0.00  0.00    +0.280 C 
ATOM     26  N   LIG    1       -0.017   1.393   0.010  0.00  0.00    -0.640 N 
ATOM     27  C   LIG    1       -1.295   2.108   0.020  0.00  0.00    +0.280 C 
ENDBRANCH  19  26
ENDBRANCH  18  23
ENDBRANCH  16  18
ENDBRANCH   1  16
TORSDOF 5
