REMARK  Name = ZINCqH0000003BI3.0
REMARK                            x       y       z     vdW  Elec       q    Type
REMARK                         _______ _______ _______ _____ _____    ______ ____
ROOT
ATOM      1  N   LIG    1        6.176   2.464  -2.183  0.00  0.00    -0.710 N 
ATOM      2  H   LIG    1        5.689   2.300  -3.006  0.00  0.00    +0.400 HD
ATOM      3  C   LIG    1        5.505   2.634  -1.026  0.00  0.00    +0.520 C 
ATOM      4  O   LIG    1        6.114   2.838   0.003  0.00  0.00    -0.540 OA
ENDROOT
BRANCH   1   7
ATOM      5  C   LIG    1        9.281   2.679  -3.531  0.00  0.00    +0.160 C 
ATOM      6  C   LIG    1        8.288   1.552  -3.196  0.00  0.00    +0.010 C 
ATOM      7  C   LIG    1        7.640   2.525  -2.197  0.00  0.00    +0.250 C 
ATOM      8  C   LIG    1        8.199   3.661  -3.063  0.00  0.00    -0.080 C 
ATOM      9  C   LIG    1        8.748   4.832  -2.252  0.00  0.00    +0.020 C 
ATOM     10  C   LIG    1        7.579   5.641  -1.681  0.00  0.00    +0.010 C 
ATOM     11  C   LIG    1        6.688   6.125  -2.826  0.00  0.00    +0.000 C 
ATOM     12  C   LIG    1        6.109   4.922  -3.573  0.00  0.00    +0.000 C 
ATOM     13  C   LIG    1        7.251   4.100  -4.177  0.00  0.00    +0.050 C 
BRANCH   5  14
ATOM     14  O   LIG    1        9.584   2.781  -4.924  0.00  0.00    -0.370 OA
BRANCH  14  16
ATOM     15  C   LIG    1       11.123   2.525  -6.769  0.00  0.00    +0.040 C 
ATOM     16  C   LIG    1       10.912   2.374  -5.261  0.00  0.00    +0.160 C 
ENDBRANCH  14  16
ENDBRANCH   5  14
ENDBRANCH   1   7
BRANCH   3  17
ATOM     17  C   LIG    1        4.000   2.571  -1.011  0.00  0.00    +0.080 C 
BRANCH  17  18
ATOM     18  C   LIG    1        3.494   2.795   0.415  0.00  0.00    +0.180 C 
BRANCH  18  19
ATOM     19  C   LIG    1        1.988   2.732   0.429  0.00  0.00    +0.290 A 
ATOM     20  N   LIG    1        1.204   3.456  -0.315  0.00  0.00    -0.490 NA
ATOM     21  C   LIG    1       -0.091   3.147  -0.050  0.00  0.00    +0.050 A 
ATOM     22  C   LIG    1       -1.312   3.611  -0.544  0.00  0.00    +0.070 A 
ATOM     23  C   LIG    1       -2.482   3.088  -0.068  0.00  0.00    +0.000 A 
ATOM     24  C   LIG    1       -2.471   2.103   0.909  0.00  0.00    +0.030 A 
ATOM     25  C   LIG    1       -1.277   1.633   1.414  0.00  0.00    +0.010 A 
ATOM     26  C   LIG    1       -0.079   2.149   0.940  0.00  0.00    +0.050 A 
ATOM     27  N   LIG    1        1.250   1.908   1.222  0.00  0.00    -0.600 N 
ATOM     28  H   LIG    1        1.595   1.270   1.867  0.00  0.00    +0.420 HD
ENDBRANCH  18  19
ENDBRANCH  17  18
ENDBRANCH   3  17
TORSDOF 6
