REMARK  Name = ZINCrD000000fl5m.0
REMARK                            x       y       z     vdW  Elec       q    Type
REMARK                         _______ _______ _______ _____ _____    ______ ____
ROOT
ATOM      1  N   LIG    1        1.196   1.777  -0.595  0.00  0.00    -0.510 N 
ATOM      2  C   LIG    1        0.029   1.208  -0.234  0.00  0.00    +0.570 C 
ATOM      3  O   LIG    1        0.028   0.147   0.360  0.00  0.00    -0.450 OA
ENDROOT
BRANCH   2   4
ATOM      4  C   LIG    1       -1.249   1.871  -0.564  0.00  0.00    -0.210 A 
ATOM      5  C   LIG    1       -1.309   3.263  -0.703  0.00  0.00    +0.380 A 
ATOM      6  N   LIG    1       -2.437   3.868  -0.996  0.00  0.00    -0.480 NA
ATOM      7  C   LIG    1       -3.566   3.195  -1.174  0.00  0.00    +0.290 A 
ATOM      8  C   LIG    1       -3.593   1.792  -1.052  0.00  0.00    -0.070 A 
ATOM      9  N   LIG    1       -4.862   1.383  -1.283  0.00  0.00    -0.190 NA
ATOM     10  N   LIG    1       -5.613   2.397  -1.534  0.00  0.00    +0.020 NA
ATOM     11  N   LIG    1       -4.849   3.571  -1.479  0.00  0.00    -0.380 N 
ATOM     12  C   LIG    1       -5.329   4.936  -1.704  0.00  0.00    +0.390 C 
ATOM     13  C   LIG    1       -2.408   1.116  -0.746  0.00  0.00    +0.260 A 
ENDBRANCH   2   4
BRANCH   1  14
ATOM     14  C   LIG    1        2.398   1.185  -0.232  0.00  0.00    +0.310 A 
ATOM     15  N   LIG    1        2.518   0.090   0.452  0.00  0.00    -0.460 NA
ATOM     16  C   LIG    1        3.750  -0.328   0.707  0.00  0.00    +0.140 A 
ATOM     17  C   LIG    1        4.735   0.447   0.218  0.00  0.00    -0.080 A 
ATOM     18  S   LIG    1        3.998   1.802  -0.634  0.00  0.00    +0.100 S 
BRANCH  16  19
ATOM     19  C   LIG    1        4.024  -1.565   1.478  0.00  0.00    -0.030 A 
ATOM     20  C   LIG    1        5.338  -1.966   1.715  0.00  0.00    +0.020 A 
ATOM     21  C   LIG    1        5.586  -3.116   2.437  0.00  0.00    +0.010 A 
ATOM     22  C   LIG    1        4.534  -3.875   2.917  0.00  0.00    +0.010 A 
ATOM     23  C   LIG    1        3.228  -3.485   2.681  0.00  0.00    +0.010 A 
ATOM     24  C   LIG    1        2.968  -2.334   1.964  0.00  0.00    +0.060 A 
ENDBRANCH  16  19
ENDBRANCH   1  14
BRANCH   1  25
ATOM     25  C   LIG    1        1.196   3.019  -1.371  0.00  0.00    +0.330 C 
BRANCH  25  27
ATOM     26  C   LIG    1        2.596   4.941  -0.815  0.00  0.00    +0.090 C 
ATOM     27  C   LIG    1        1.592   4.168  -0.480  0.00  0.00    -0.090 C 
ENDBRANCH  25  27
ENDBRANCH   1  25
TORSDOF 5
