REMARK  Name = ZINCqH0000005z9T.0
REMARK                            x       y       z     vdW  Elec       q    Type
REMARK                         _______ _______ _______ _____ _____    ______ ____
ROOT
ATOM      1  C   LIG    1       -3.112   2.993   8.278  0.00  0.00    -0.010 C 
ATOM      2  C   LIG    1       -1.661   2.946   8.807  0.00  0.00    +0.070 C 
ATOM      3  C   LIG    1       -0.963   1.748   8.354  0.00  0.00    +0.230 C 
ATOM      4  N   LIG    1       -0.850   1.669   6.883  0.00  0.00    -0.460 N 
ATOM      5  C   LIG    1       -2.067   1.119   6.336  0.00  0.00    +0.220 C 
ATOM      6  C   LIG    1       -3.034   2.219   5.859  0.00  0.00    +0.060 C 
ATOM      7  C   LIG    1       -3.089   3.413   6.834  0.00  0.00    +0.310 C 
ATOM      8  F   LIG    1       -1.967   4.221   6.617  0.00  0.00    -0.190 F 
ATOM      9  F   LIG    1       -4.240   4.162   6.564  0.00  0.00    -0.200 F 
ENDROOT
BRANCH   4  10
ATOM     10  C   LIG    1        0.244   0.916   6.511  0.00  0.00    +0.410 A 
ATOM     11  N   LIG    1        1.038   0.372   7.422  0.00  0.00    -0.570 NA
ATOM     12  C   LIG    1        2.091  -0.352   7.077  0.00  0.00    +0.530 A 
ATOM     13  N   LIG    1        2.423  -0.581   5.830  0.00  0.00    -0.530 NA
ATOM     14  C   LIG    1        1.688  -0.077   4.826  0.00  0.00    +0.170 A 
ATOM     15  C   LIG    1        2.017  -0.304   3.482  0.00  0.00    +0.070 A 
ATOM     16  C   LIG    1        1.239   0.222   2.496  0.00  0.00    +0.050 A 
ATOM     17  C   LIG    1        0.117   1.000   2.802  0.00  0.00    -0.100 A 
ATOM     18  C   LIG    1       -0.232   1.241   4.117  0.00  0.00    +0.090 A 
ATOM     19  C   LIG    1        0.551   0.705   5.144  0.00  0.00    -0.150 A 
BRANCH  17  20
ATOM     20  S   LIG    1       -0.862   1.671   1.500  0.00  0.00    -0.100 S 
ATOM     21  C   LIG    1       -0.013   1.086   0.008  0.00  0.00    +0.140 C 
ENDBRANCH  17  20
ENDBRANCH   4  10
BRANCH   1  22
ATOM     22  C   LIG    1       -3.922   4.003   9.093  0.00  0.00    +0.130 C 
BRANCH  22  23
ATOM     23  C   LIG    1       -4.034   3.525  10.518  0.00  0.00    +0.460 C 
ATOM     24  O   LIG    1       -3.519   2.483  10.848  0.00  0.00    -0.500 OA
BRANCH  23  26
ATOM     25  C   LIG    1       -4.773   3.735  12.774  0.00  0.00    +0.260 C 
ATOM     26  O   LIG    1       -4.706   4.257  11.421  0.00  0.00    -0.360 OA
ENDBRANCH  23  26
ENDBRANCH  22  23
ENDBRANCH   1  22
TORSDOF 5
