REMARK  Name = ZINCrD000000C1Cs.0
REMARK                            x       y       z     vdW  Elec       q    Type
REMARK                         _______ _______ _______ _____ _____    ______ ____
ROOT
ATOM      1  O   LIG    1       -0.551  -0.114  -1.276  0.00  0.00    -0.570 OA
ATOM      2  C   LIG    1       -0.411   0.954  -0.713  0.00  0.00    +0.720 C 
ATOM      3  N   LIG    1        0.813   1.509  -0.615  0.00  0.00    -0.630 N 
ATOM      4  C   LIG    1        1.110   2.843  -0.062  0.00  0.00    +0.240 C 
ATOM      5  C   LIG    1        2.451   3.255  -0.712  0.00  0.00    +0.030 C 
ATOM      6  C   LIG    1        3.204   1.899  -0.767  0.00  0.00    +0.060 C 
ATOM      7  C   LIG    1        2.073   0.888  -1.049  0.00  0.00    +0.240 C 
ATOM      8  N   LIG    1       -1.481   1.586  -0.190  0.00  0.00    -0.680 N 
ATOM      9  H   LIG    1       -1.389   2.485   0.162  0.00  0.00    +0.400 HD
ENDROOT
BRANCH   8  10
ATOM     10  C   LIG    1       -2.727   0.944  -0.157  0.00  0.00    +0.130 A 
ATOM     11  C   LIG    1       -2.794  -0.434   0.003  0.00  0.00    +0.060 A 
ATOM     12  C   LIG    1       -4.021  -1.065   0.040  0.00  0.00    +0.000 A 
ATOM     13  C   LIG    1       -5.187  -0.325  -0.092  0.00  0.00    +0.120 A 
ATOM     14  C   LIG    1       -5.120   1.051  -0.257  0.00  0.00    -0.060 A 
ATOM     15  C   LIG    1       -3.893   1.684  -0.289  0.00  0.00    +0.020 A 
BRANCH  13  16
ATOM     16  O   LIG    1       -6.395  -0.948  -0.060  0.00  0.00    -0.310 OA
BRANCH  16  17
ATOM     17  C   LIG    1       -7.547  -0.144  -0.324  0.00  0.00    +0.160 C 
ATOM     18  C   LIG    1       -8.040   0.515   0.981  0.00  0.00    +0.000 C 
ATOM     19  C   LIG    1       -9.585   0.493   0.856  0.00  0.00    +0.020 C 
ATOM     20  C   LIG    1       -9.854  -0.872   0.176  0.00  0.00    +0.020 C 
ATOM     21  C   LIG    1       -8.699  -1.026  -0.835  0.00  0.00    +0.040 C 
ENDBRANCH  16  17
ENDBRANCH  13  16
ENDBRANCH   8  10
BRANCH   7  22
ATOM     22  C   LIG    1        2.317  -0.399  -0.259  0.00  0.00    +0.170 C 
BRANCH  22  23
ATOM     23  N   LIG    1        3.498  -1.087  -0.797  0.00  0.00    -0.530 NA
ATOM     24  C   LIG    1        3.207  -1.686  -2.108  0.00  0.00    +0.160 C 
ATOM     25  C   LIG    1        4.478  -2.340  -2.657  0.00  0.00    +0.220 C 
ATOM     26  O   LIG    1        4.957  -3.304  -1.716  0.00  0.00    -0.390 OA
ATOM     27  C   LIG    1        5.251  -2.755  -0.429  0.00  0.00    +0.220 C 
ATOM     28  C   LIG    1        3.988  -2.106   0.144  0.00  0.00    +0.150 C 
ENDBRANCH  22  23
ENDBRANCH   7  22
TORSDOF 5
