REMARK  Name = ZINCpe00000QIhnK.0
REMARK                            x       y       z     vdW  Elec       q    Type
REMARK                         _______ _______ _______ _____ _____    ______ ____
ROOT
ATOM      1  C   LIG    1        0.613   1.626   0.494  0.00  0.00    +0.510 C 
ATOM      2  N   LIG    1        0.781   0.590   1.339  0.00  0.00    -0.590 N 
ATOM      3  C   LIG    1        2.117   0.284   1.856  0.00  0.00    +0.290 C 
ATOM      4  C   LIG    1        2.163  -0.064   3.357  0.00  0.00    +0.090 C 
ATOM      5  S   LIG    1        1.118   1.043   4.317  0.00  0.00    -0.220 S 
ATOM      6  C   LIG    1       -0.534   0.290   4.169  0.00  0.00    +0.120 C 
ATOM      7  C   LIG    1       -1.128   0.492   2.853  0.00  0.00    +0.030 C 
ATOM      8  C   LIG    1       -0.358  -0.216   1.722  0.00  0.00    +0.320 C 
ATOM      9  O   LIG    1       -0.501   1.938   0.131  0.00  0.00    -0.490 OA
ENDROOT
BRANCH   1  15
ATOM     10  C   LIG    1        1.630   2.851  -1.487  0.00  0.00    -0.120 C 
ATOM     11  C   LIG    1        1.857   1.570  -2.348  0.00  0.00    +0.080 C 
ATOM     12  C   LIG    1        3.238   1.632  -1.583  0.00  0.00    +0.070 C 
ATOM     13  O   LIG    1        2.973   1.542  -0.150  0.00  0.00    -0.330 OA
ATOM     14  C   LIG    1        4.440   0.856  -2.124  0.00  0.00    +0.110 C 
ATOM     15  C   LIG    1        1.809   2.401   0.004  0.00  0.00    +0.210 C 
ATOM     16  C   LIG    1        3.099   3.142  -1.894  0.00  0.00    +0.070 C 
BRANCH  10  17
ATOM     17  C   LIG    1        0.519   3.812  -1.825  0.00  0.00    +0.500 C 
ATOM     18  O   LIG    1        0.780   4.929  -2.204  0.00  0.00    -0.500 OA
BRANCH  17  19
ATOM     19  O   LIG    1       -0.761   3.426  -1.704  0.00  0.00    -0.320 OA
BRANCH  19  21
ATOM     20  C   LIG    1       -3.159   3.846  -1.646  0.00  0.00    +0.070 C 
ATOM     21  C   LIG    1       -1.779   4.434  -1.944  0.00  0.00    +0.200 C 
ENDBRANCH  19  21
ENDBRANCH  17  19
ENDBRANCH  10  17
ENDBRANCH   1  15
BRANCH   7  22
ATOM     22  C   LIG    1       -2.542  -0.029   2.874  0.00  0.00    +0.470 C 
ATOM     23  O   LIG    1       -2.889  -0.868   2.077  0.00  0.00    -0.500 OA
BRANCH  22  24
ATOM     24  O   LIG    1       -3.416   0.439   3.779  0.00  0.00    -0.360 OA
ATOM     25  C   LIG    1       -4.760  -0.108   3.741  0.00  0.00    +0.260 C 
ENDBRANCH  22  24
ENDBRANCH   7  22
TORSDOF 6
