REMARK  Name = ZINCtV000002H07i.0
REMARK                            x       y       z     vdW  Elec       q    Type
REMARK                         _______ _______ _______ _____ _____    ______ ____
ROOT
ATOM      1  C   LIG    1        0.628  -0.323  -1.424  0.00  0.00    -0.020 A 
ATOM      2  C   LIG    1        1.831  -0.084  -1.944  0.00  0.00    -0.030 A 
ATOM      3  S   LIG    1        1.741   1.088  -3.245  0.00  0.00    +0.170 S 
ATOM      4  C   LIG    1        0.001   1.256  -3.071  0.00  0.00    +0.120 A 
ATOM      5  N   LIG    1       -0.881   2.011  -3.739  0.00  0.00    -0.540 NA
ATOM      6  C   LIG    1       -2.160   1.983  -3.441  0.00  0.00    +0.560 A 
ATOM      7  N   LIG    1       -2.640   1.218  -2.478  0.00  0.00    -0.590 NA
ATOM      8  C   LIG    1       -1.844   0.436  -1.763  0.00  0.00    +0.490 A 
ATOM      9  C   LIG    1       -0.457   0.424  -2.049  0.00  0.00    -0.230 A 
ENDROOT
BRANCH   1  14
ATOM     10  C   LIG    1       -0.218  -4.015   2.912  0.00  0.00    +0.090 C 
ATOM     11  C   LIG    1        0.004  -3.049   1.777  0.00  0.00    -0.080 A 
ATOM     12  C   LIG    1        0.829  -1.953   1.956  0.00  0.00    +0.000 A 
ATOM     13  C   LIG    1        1.036  -1.065   0.921  0.00  0.00    +0.020 A 
ATOM     14  C   LIG    1        0.411  -1.273  -0.308  0.00  0.00    -0.050 A 
ATOM     15  C   LIG    1       -0.425  -2.376  -0.481  0.00  0.00    +0.020 A 
ATOM     16  C   LIG    1       -0.619  -3.261   0.560  0.00  0.00    +0.050 A 
ENDBRANCH   1  14
BRANCH   8  17
ATOM     17  N   LIG    1       -2.361  -0.361  -0.757  0.00  0.00    -0.690 N 
ATOM     18  H   LIG    1       -1.766  -0.885  -0.199  0.00  0.00    +0.420 HD
BRANCH  17  19
ATOM     19  C   LIG    1       -3.809  -0.413  -0.535  0.00  0.00    +0.290 C 
BRANCH  19  20
ATOM     20  C   LIG    1       -4.112  -1.361   0.627  0.00  0.00    +0.210 C 
BRANCH  20  21
ATOM     21  C   LIG    1       -5.604  -1.511   0.776  0.00  0.00    -0.110 A 
ATOM     22  C   LIG    1       -6.432  -1.303  -0.310  0.00  0.00    +0.040 A 
ATOM     23  C   LIG    1       -7.801  -1.445  -0.175  0.00  0.00    +0.020 A 
ATOM     24  C   LIG    1       -8.343  -1.784   1.051  0.00  0.00    +0.030 A 
ATOM     25  C   LIG    1       -7.516  -1.987   2.140  0.00  0.00    +0.020 A 
ATOM     26  C   LIG    1       -6.146  -1.850   2.003  0.00  0.00    -0.030 A 
ATOM     27 CL   LIG    1       -5.107  -2.104   3.371  0.00  0.00    -0.060 Cl
ENDBRANCH  20  21
BRANCH  20  28
ATOM     28  N   LIG    1       -3.513  -2.675   0.356  0.00  0.00    -0.520 NA
ATOM     29  C   LIG    1       -4.104  -3.287  -0.842  0.00  0.00    +0.180 C 
ATOM     30  C   LIG    1       -3.644  -3.563   1.519  0.00  0.00    +0.190 C 
ENDBRANCH  20  28
ENDBRANCH  19  20
ENDBRANCH  17  19
ENDBRANCH   8  17
TORSDOF 6
