REMARK  Name = ZINCvU0000000HCv.0
REMARK                            x       y       z     vdW  Elec       q    Type
REMARK                         _______ _______ _______ _____ _____    ______ ____
ROOT
ATOM      1  N   LIG    1        2.068   0.734  -0.014  0.00  0.00    -0.390 N 
ATOM      2  C   LIG    1        1.298  -0.405  -0.013  0.00  0.00    +0.170 A 
ATOM      3  C   LIG    1        0.002  -0.004   0.002  0.00  0.00    +0.050 A 
ATOM      4  N   LIG    1       -0.016   1.352   0.009  0.00  0.00    -0.470 NA
ATOM      5  C   LIG    1        1.216   1.800   0.000  0.00  0.00    +0.190 A 
ENDROOT
BRANCH   1  11
ATOM      6  C   LIG    1        6.321  -0.142  -2.324  0.00  0.00    +0.090 C 
ATOM      7  C   LIG    1        5.554   0.372  -1.133  0.00  0.00    -0.080 A 
ATOM      8  C   LIG    1        6.233   0.900  -0.051  0.00  0.00    +0.030 A 
ATOM      9  C   LIG    1        5.534   1.373   1.045  0.00  0.00    +0.040 A 
ATOM     10  C   LIG    1        4.154   1.319   1.060  0.00  0.00    -0.070 A 
ATOM     11  C   LIG    1        3.469   0.790  -0.026  0.00  0.00    +0.100 A 
ATOM     12  C   LIG    1        3.392   1.835   2.253  0.00  0.00    +0.100 C 
ATOM     13  C   LIG    1        4.174   0.311  -1.122  0.00  0.00    +0.030 A 
ENDBRANCH   1  11
BRANCH   3  14
ATOM     14  C   LIG    1       -1.186  -0.892   0.008  0.00  0.00    +0.010 A 
ATOM     15  C   LIG    1       -1.024  -2.277  -0.007  0.00  0.00    +0.030 A 
ATOM     16  C   LIG    1       -2.132  -3.099   0.004  0.00  0.00    +0.030 A 
ATOM     17  C   LIG    1       -3.403  -2.550   0.019  0.00  0.00    -0.040 A 
ATOM     18  C   LIG    1       -3.570  -1.176   0.029  0.00  0.00    +0.030 A 
ATOM     19 CL   LIG    1       -4.794  -3.590   0.025  0.00  0.00    -0.070 Cl
ATOM     20  C   LIG    1       -2.468  -0.345   0.023  0.00  0.00    +0.060 A 
ENDBRANCH   3  14
BRANCH   5  21
ATOM     21  S   LIG    1        1.693   3.496   0.004  0.00  0.00    +0.080 S 
BRANCH  21  22
ATOM     22  C   LIG    1        0.062   4.281   0.024  0.00  0.00    +0.110 C 
BRANCH  22  23
ATOM     23  C   LIG    1        0.226   5.779   0.030  0.00  0.00    +0.540 C 
ATOM     24  N   LIG    1       -0.861   6.576   0.045  0.00  0.00    -0.720 N 
ATOM     25  H   LIG    1       -1.749   6.185   0.052  0.00  0.00    +0.410 HD
ATOM     26  O   LIG    1        1.336   6.268   0.022  0.00  0.00    -0.520 OA
BRANCH  24  27
ATOM     27  C   LIG    1       -0.702   8.032   0.051  0.00  0.00    +0.390 C 
BRANCH  27  28
ATOM     28  C   LIG    1       -2.060   8.686   0.068  0.00  0.00    -0.050 A 
ATOM     29  C   LIG    1       -2.760   9.016   1.167  0.00  0.00    -0.030 A 
ATOM     30  C   LIG    1       -3.967   9.603   0.723  0.00  0.00    -0.070 A 
ATOM     31  C   LIG    1       -3.936   9.588  -0.621  0.00  0.00    +0.190 A 
ATOM     32  O   LIG    1       -2.779   9.031  -1.013  0.00  0.00    -0.170 OA
ENDBRANCH  27  28
ENDBRANCH  24  27
ENDBRANCH  22  23
ENDBRANCH  21  22
ENDBRANCH   5  21
TORSDOF 7
