REMARK  Name = ZINCrH000004j6Wd.0
REMARK                            x       y       z     vdW  Elec       q    Type
REMARK                         _______ _______ _______ _____ _____    ______ ____
ROOT
ATOM      1  N   LIG    1       -3.129   0.572   1.597  0.00  0.00    -1.120 NA
ATOM      2  H   LIG    1       -3.154  -0.332   1.947  0.00  0.00    +0.420 HD
ENDROOT
BRANCH   1   3
ATOM      3  S   LIG    1       -2.715   0.836   0.015  0.00  0.00    +2.700 S 
ATOM      4  O   LIG    1       -2.424  -0.438  -0.542  0.00  0.00    -0.960 OA
ATOM      5  O   LIG    1       -3.701   1.710  -0.517  0.00  0.00    -0.950 OA
BRANCH   3   6
ATOM      6  C   LIG    1       -1.200   1.736   0.016  0.00  0.00    -0.670 A 
ATOM      7  C   LIG    1       -0.019   1.061   0.005  0.00  0.00    +0.170 A 
ATOM      8  C   LIG    1        1.191   1.776  -0.000  0.00  0.00    -0.080 A 
ATOM      9  C   LIG    1        2.430   1.113  -0.018  0.00  0.00    +0.040 A 
ATOM     10  C   LIG    1        3.582   1.839  -0.022  0.00  0.00    +0.010 A 
ATOM     11  C   LIG    1        3.552   3.232  -0.011  0.00  0.00    +0.040 A 
ATOM     12  C   LIG    1        2.370   3.908   0.006  0.00  0.00    +0.010 A 
ATOM     13  C   LIG    1        1.161   3.193   0.012  0.00  0.00    -0.010 A 
ATOM     14  C   LIG    1       -0.078   3.855   0.029  0.00  0.00    +0.020 A 
ATOM     15  C   LIG    1       -1.230   3.130   0.033  0.00  0.00    +0.090 A 
ENDBRANCH   3   6
ENDBRANCH   1   3
BRANCH   1  16
ATOM     16  C   LIG    1       -3.459   1.704   2.467  0.00  0.00    +0.300 C 
BRANCH  16  17
ATOM     17  C   LIG    1       -4.154   1.191   3.729  0.00  0.00    +0.070 C 
BRANCH  17  20
ATOM     18  N   LIG    1       -5.114   2.142   5.801  0.00  0.00    -0.670 N 
ATOM     19  H   LIG    1       -5.403   1.248   6.042  0.00  0.00    +0.410 HD
ATOM     20  C   LIG    1       -4.493   2.356   4.624  0.00  0.00    +0.520 C 
ATOM     21  O   LIG    1       -4.207   3.484   4.285  0.00  0.00    -0.520 OA
BRANCH  18  25
ATOM     22  C   LIG    1       -5.795   5.323   8.404  0.00  0.00    -0.090 A 
ATOM     23  C   LIG    1       -5.861   5.524   7.037  0.00  0.00    +0.030 A 
ATOM     24  C   LIG    1       -5.636   4.471   6.172  0.00  0.00    +0.020 A 
ATOM     25  C   LIG    1       -5.342   3.211   6.675  0.00  0.00    +0.130 A 
ATOM     26  C   LIG    1       -5.282   3.012   8.048  0.00  0.00    -0.010 A 
ATOM     27  C   LIG    1       -5.503   4.069   8.909  0.00  0.00    +0.030 A 
BRANCH  22  29
ATOM     28  C   LIG    1       -7.532   6.543   9.685  0.00  0.00    +0.030 C 
ATOM     29  C   LIG    1       -6.042   6.474   9.346  0.00  0.00    +0.050 C 
ENDBRANCH  22  29
ENDBRANCH  18  25
ENDBRANCH  17  20
ENDBRANCH  16  17
ENDBRANCH   1  16
TORSDOF 7
