REMARK  Name = ZINCkj00000dDG1o.1
REMARK                            x       y       z     vdW  Elec       q    Type
REMARK                         _______ _______ _______ _____ _____    ______ ____
ROOT
ATOM      1  C   LIG    1        2.677   5.145  -1.478  0.00  0.00    +0.320 C 
ENDROOT
BRANCH   1   2
ATOM      2  C   LIG    1        2.537   6.233  -0.411  0.00  0.00    -0.030 C 
ATOM      3  C   LIG    1        2.748   7.608  -1.053  0.00  0.00    +0.070 C 
ATOM      4  C   LIG    1        2.845   8.671   0.049  0.00  0.00    +0.190 C 
ATOM      5  C   LIG    1        1.688   8.472   0.999  0.00  0.00    +0.300 C 
ATOM      6  N   LIG    1        1.240   9.312   1.886  0.00  0.00    -0.470 N 
ATOM      7  C   LIG    1        0.197   8.762   2.529  0.00  0.00    +0.230 C 
ATOM      8  C   LIG    1       -0.006   7.530   2.019  0.00  0.00    +0.250 C 
ATOM      9  H   LIG    1        1.602  10.196   2.056  0.00  0.00    +0.460 HD
ATOM     10  N   LIG    1        0.936   7.346   1.052  0.00  0.00    -0.400 N 
ATOM     11  C   LIG    1        1.136   6.167   0.206  0.00  0.00    +0.350 C 
ENDBRANCH   1   2
BRANCH   1  13
ATOM     12  C   LIG    1        1.398   3.221  -0.705  0.00  0.00    +0.520 C 
ATOM     13  N   LIG    1        2.593   3.827  -0.844  0.00  0.00    -0.620 N 
ATOM     14  C   LIG    1        3.810   3.167  -0.363  0.00  0.00    +0.300 C 
ATOM     15  O   LIG    1        0.403   3.725  -1.181  0.00  0.00    -0.520 OA
BRANCH  12  21
ATOM     16  C   LIG    1        2.014   1.262  -2.288  0.00  0.00    +0.040 C 
ATOM     17  C   LIG    1        1.701   0.750  -0.880  0.00  0.00    -0.010 C 
ATOM     18  C   LIG    1        0.453  -0.166  -0.902  0.00  0.00    +0.020 C 
ATOM     19  C   LIG    1       -0.288   0.264   0.390  0.00  0.00    +0.220 C 
ATOM     20  O   LIG    1       -0.063   1.689   0.449  0.00  0.00    -0.350 OA
ATOM     21  C   LIG    1        1.297   1.916   0.043  0.00  0.00    +0.150 C 
ENDBRANCH  12  21
ENDBRANCH   1  13
TORSDOF 3
