REMARK  Name = ZINCrD00000hQ72Q.0
REMARK                            x       y       z     vdW  Elec       q    Type
REMARK                         _______ _______ _______ _____ _____    ______ ____
ROOT
ATOM      1  C   LIG    1        2.878  -2.622   8.660  0.00  0.00    +0.610 C 
ATOM      2  N   LIG    1        3.811  -2.502   9.625  0.00  0.00    -0.580 N 
ATOM      3  H   LIG    1        4.379  -1.716   9.656  0.00  0.00    +0.380 HD
ATOM      4  O   LIG    1        2.165  -3.607   8.622  0.00  0.00    -0.470 OA
ENDROOT
BRANCH   1   9
ATOM      5  C   LIG    1        2.057  -0.329   5.933  0.00  0.00    +0.070 A 
ATOM      6  N   LIG    1        3.039   0.286   6.558  0.00  0.00    -0.250 NA
ATOM      7  N   LIG    1        3.442  -0.404   7.564  0.00  0.00    -0.380 N 
ATOM      8  H   LIG    1        4.154  -0.143   8.169  0.00  0.00    +0.450 HD
ATOM      9  C   LIG    1        2.721  -1.562   7.652  0.00  0.00    -0.040 A 
ATOM     10  C   LIG    1        1.817  -1.540   6.607  0.00  0.00    +0.050 A 
BRANCH   5  14
ATOM     11  C   LIG    1        0.000   1.080   2.488  0.00  0.00    -0.070 A 
ATOM     12  C   LIG    1       -0.349  -0.134   3.050  0.00  0.00    +0.010 A 
ATOM     13  C   LIG    1        0.319  -0.599   4.165  0.00  0.00    +0.040 A 
ATOM     14  C   LIG    1        1.339   0.163   4.731  0.00  0.00    -0.020 A 
ATOM     15  C   LIG    1        1.683   1.388   4.163  0.00  0.00    +0.040 A 
ATOM     16  C   LIG    1        1.012   1.840   3.045  0.00  0.00    +0.010 A 
BRANCH  11  18
ATOM     17  C   LIG    1       -0.013   1.086   0.008  0.00  0.00    +0.030 C 
ATOM     18  C   LIG    1       -0.729   1.579   1.267  0.00  0.00    +0.050 C 
ENDBRANCH  11  18
ENDBRANCH   5  14
ENDBRANCH   1   9
BRANCH   2  19
ATOM     19  N   LIG    1        3.960  -3.511  10.585  0.00  0.00    -0.200 NA
ATOM     20  C   LIG    1        4.858  -3.396  11.515  0.00  0.00    +0.230 C 
BRANCH  20  21
ATOM     21  C   LIG    1        5.015  -4.458  12.525  0.00  0.00    -0.000 A 
ATOM     22  C   LIG    1        4.195  -5.589  12.488  0.00  0.00    +0.080 A 
ATOM     23  C   LIG    1        4.350  -6.581  13.433  0.00  0.00    +0.100 A 
ATOM     24  C   LIG    1        5.309  -6.454  14.422  0.00  0.00    -0.030 A 
ATOM     25  C   LIG    1        6.122  -5.335  14.469  0.00  0.00    +0.100 A 
ATOM     26  C   LIG    1        5.981  -4.337  13.527  0.00  0.00    +0.070 A 
BRANCH  24  27
ATOM     27  N   LIG    1        5.466  -7.521  15.437  0.00  0.00    +0.020 N 
ATOM     28  O   LIG    1        4.753  -8.507  15.399  0.00  0.00    -0.150 OA
ATOM     29  O   LIG    1        6.309  -7.412  16.309  0.00  0.00    -0.150 OA
ENDBRANCH  24  27
ENDBRANCH  20  21
ENDBRANCH   2  19
TORSDOF 6
