REMARK  Name = ZINCrD0000071ZHF.0
REMARK                            x       y       z     vdW  Elec       q    Type
REMARK                         _______ _______ _______ _____ _____    ______ ____
ROOT
ATOM      1  C   LIG    1       -1.873   1.095   3.303  0.00  0.00    +0.130 A 
ATOM      2  C   LIG    1       -1.226   0.663   2.164  0.00  0.00    -0.050 A 
ATOM      3  C   LIG    1       -0.718   1.572   1.248  0.00  0.00    +0.060 A 
ATOM      4  C   LIG    1       -0.860   2.940   1.486  0.00  0.00    -0.040 A 
ATOM      5  C   LIG    1       -1.557   3.375   2.701  0.00  0.00    +0.340 A 
ATOM      6  N   LIG    1       -1.833   4.579   3.168  0.00  0.00    -0.490 NA
ATOM      7  C   LIG    1       -2.496   4.470   4.344  0.00  0.00    +0.100 A 
ATOM      8  C   LIG    1       -3.013   5.410   5.243  0.00  0.00    +0.060 A 
ATOM      9  C   LIG    1       -3.652   4.984   6.385  0.00  0.00    +0.040 A 
ATOM     10  C   LIG    1       -3.788   3.630   6.652  0.00  0.00    +0.030 A 
ATOM     11  C   LIG    1       -3.286   2.689   5.777  0.00  0.00    +0.050 A 
ATOM     12  C   LIG    1       -2.638   3.099   4.621  0.00  0.00    +0.010 A 
ATOM     13  C   LIG    1       -0.013   1.086   0.008  0.00  0.00    +0.130 C 
ATOM     14  N   LIG    1       -2.038   2.425   3.570  0.00  0.00    -0.380 N 
ENDROOT
BRANCH   4  15
ATOM     15  C   LIG    1       -0.340   3.900   0.559  0.00  0.00    +0.270 C 
ATOM     16  N   LIG    1        0.072   4.661  -0.176  0.00  0.00    -0.400 NA
ENDBRANCH   4  15
BRANCH   1  17
ATOM     17  S   LIG    1       -2.502  -0.096   4.439  0.00  0.00    +0.060 S 
BRANCH  17  18
ATOM     18  C   LIG    1       -2.013  -1.622   3.598  0.00  0.00    +0.080 C 
BRANCH  18  21
ATOM     19  N   LIG    1       -2.202  -4.059   3.978  0.00  0.00    -0.720 N 
ATOM     20  H   LIG    1       -1.729  -4.194   3.142  0.00  0.00    +0.410 HD
ATOM     21  C   LIG    1       -2.460  -2.810   4.412  0.00  0.00    +0.530 C 
ATOM     22  O   LIG    1       -3.051  -2.640   5.457  0.00  0.00    -0.520 OA
BRANCH  19  23
ATOM     23  C   LIG    1       -2.637  -5.213   4.769  0.00  0.00    +0.280 C 
BRANCH  23  24
ATOM     24  C   LIG    1       -2.223  -6.504   4.058  0.00  0.00    +0.030 C 
BRANCH  24  25
ATOM     25  C   LIG    1       -2.677  -7.709   4.884  0.00  0.00    +0.170 C 
BRANCH  25  26
ATOM     26  O   LIG    1       -2.290  -8.914   4.220  0.00  0.00    -0.390 OA
BRANCH  26  28
ATOM     27  C   LIG    1       -2.206 -11.327   4.114  0.00  0.00    +0.040 C 
ATOM     28  C   LIG    1       -2.668 -10.106   4.912  0.00  0.00    +0.160 C 
ENDBRANCH  26  28
ENDBRANCH  25  26
ENDBRANCH  24  25
ENDBRANCH  23  24
ENDBRANCH  19  23
ENDBRANCH  18  21
ENDBRANCH  17  18
ENDBRANCH   1  17
TORSDOF 9
