REMARK  Name = ZINCkj000005hxGK.0
REMARK                            x       y       z     vdW  Elec       q    Type
REMARK                         _______ _______ _______ _____ _____    ______ ____
ROOT
ATOM      1  N   LIG    1        1.900   4.164  -0.096  0.00  0.00    -0.610 N 
ATOM      2  C   LIG    1        2.512   2.995   0.179  0.00  0.00    +0.600 C 
ATOM      3  O   LIG    1        3.727   2.941   0.228  0.00  0.00    -0.520 OA
ATOM      4  C   LIG    1        0.437   4.246  -0.082  0.00  0.00    +0.310 C 
ENDROOT
BRANCH   2   5
ATOM      5  C   LIG    1        1.740   1.829   0.413  0.00  0.00    -0.340 A 
ATOM      6  C   LIG    1        2.202   0.539   0.330  0.00  0.00    +0.200 A 
ATOM      7  C   LIG    1        1.231  -0.401   0.608  0.00  0.00    -0.070 A 
ATOM      8  C   LIG    1        0.027   0.098   0.904  0.00  0.00    -0.160 A 
ATOM      9  C   LIG    1       -1.182  -0.737   1.241  0.00  0.00    +0.160 C 
ATOM     10  S   LIG    1        0.039   1.803   0.853  0.00  0.00    +0.260 S 
BRANCH   6  11
ATOM     11  O   LIG    1        3.482   0.221   0.008  0.00  0.00    -0.290 OA
BRANCH  11  12
ATOM     12  C   LIG    1        3.813  -1.169  -0.038  0.00  0.00    +0.600 C 
ATOM     13  F   LIG    1        3.016  -1.807  -0.994  0.00  0.00    -0.200 F 
ATOM     14  F   LIG    1        3.587  -1.743   1.217  0.00  0.00    -0.190 F 
ENDBRANCH  11  12
ENDBRANCH   6  11
ENDBRANCH   2   5
BRANCH   1  15
ATOM     15  C   LIG    1        2.697   5.352  -0.411  0.00  0.00    +0.300 C 
BRANCH  15  16
ATOM     16  C   LIG    1        2.941   5.418  -1.920  0.00  0.00    +0.190 C 
BRANCH  16  17
ATOM     17  O   LIG    1        1.697   5.608  -2.596  0.00  0.00    -0.550 OA
ATOM     18  H   LIG    1        1.233   6.419  -2.346  0.00  0.00    +0.390 HD
ENDBRANCH  16  17
BRANCH  16  19
ATOM     19  C   LIG    1        3.877   6.587  -2.235  0.00  0.00    +0.250 C 
BRANCH  19  21
ATOM     20  C   LIG    1        5.009   7.772  -3.986  0.00  0.00    +0.320 C 
ATOM     21  N   LIG    1        4.111   6.649  -3.684  0.00  0.00    -0.500 N 
ATOM     22  H   LIG    1        3.232   6.784  -4.161  0.00  0.00    +0.430 HD
ATOM     23  H   LIG    1        4.534   5.787  -3.994  0.00  0.00    +0.430 HD
ENDBRANCH  19  21
ENDBRANCH  16  19
ENDBRANCH  15  16
ENDBRANCH   1  15
TORSDOF 8
