REMARK  Name = ZINCAx0000000ich.0
REMARK                            x       y       z     vdW  Elec       q    Type
REMARK                         _______ _______ _______ _____ _____    ______ ____
ROOT
ATOM      1  N   LIG    1        0.951   2.163   0.363  0.00  0.00    -0.370 N 
ATOM      2  C   LIG    1        1.536   2.028  -0.833  0.00  0.00    +0.710 C 
ATOM      3  N   LIG    1        2.851   2.307  -0.796  0.00  0.00    -0.710 N 
ATOM      4  H   LIG    1        3.471   2.277  -1.542  0.00  0.00    +0.450 HD
ATOM      5  C   LIG    1        3.168   2.661   0.598  0.00  0.00    +0.230 C 
ATOM      6  O   LIG    1        0.944   1.693  -1.840  0.00  0.00    -0.510 OA
ATOM      7  C   LIG    1        1.835   2.539   1.309  0.00  0.00    +0.550 C 
ATOM      8  O   LIG    1        1.610   2.738   2.483  0.00  0.00    -0.440 OA
ENDROOT
BRANCH   5   9
ATOM      9  C   LIG    1        4.169   1.696   1.180  0.00  0.00    -0.100 A 
ATOM     10  C   LIG    1        4.380   1.657   2.545  0.00  0.00    +0.030 A 
ATOM     11  C   LIG    1        5.295   0.769   3.079  0.00  0.00    +0.020 A 
ATOM     12  C   LIG    1        6.005  -0.075   2.246  0.00  0.00    +0.020 A 
ATOM     13  C   LIG    1        5.798  -0.033   0.880  0.00  0.00    +0.010 A 
ATOM     14  C   LIG    1        4.880   0.852   0.347  0.00  0.00    +0.030 A 
ENDBRANCH   5   9
BRANCH   5  15
ATOM     15  C   LIG    1        3.686   4.074   0.682  0.00  0.00    -0.100 A 
ATOM     16  C   LIG    1        3.712   4.729   1.899  0.00  0.00    +0.030 A 
ATOM     17  C   LIG    1        4.191   6.024   1.976  0.00  0.00    +0.020 A 
ATOM     18  C   LIG    1        4.636   6.665   0.836  0.00  0.00    +0.030 A 
ATOM     19  C   LIG    1        4.606   6.011  -0.382  0.00  0.00    +0.010 A 
ATOM     20  C   LIG    1        4.131   4.715  -0.459  0.00  0.00    +0.030 A 
ENDBRANCH   5  15
BRANCH   1  22
ATOM     21  C   LIG    1       -1.325   2.839   0.198  0.00  0.00    +0.500 C 
ATOM     22  N   LIG    1       -0.410   1.937   0.604  0.00  0.00    -0.500 N 
ATOM     23  H   LIG    1       -0.695   1.128   1.058  0.00  0.00    +0.430 HD
ATOM     24  O   LIG    1       -0.970   3.850  -0.370  0.00  0.00    -0.490 OA
BRANCH  21  25
ATOM     25  C   LIG    1       -2.790   2.593   0.452  0.00  0.00    +0.400 C 
BRANCH  25  28
ATOM     26  N   LIG    1       -4.737   4.964  -1.467  0.00  0.00    -0.540 N 
ATOM     27  C   LIG    1       -4.074   3.801  -1.327  0.00  0.00    +0.690 A 
ATOM     28  N   LIG    1       -3.573   3.712  -0.080  0.00  0.00    -0.530 N 
ATOM     29  C   LIG    1       -3.930   4.862   0.620  0.00  0.00    +0.090 A 
ATOM     30  C   LIG    1       -3.697   5.298   1.915  0.00  0.00    +0.030 A 
ATOM     31  C   LIG    1       -4.194   6.519   2.328  0.00  0.00    +0.020 A 
ATOM     32  C   LIG    1       -4.925   7.307   1.456  0.00  0.00    +0.020 A 
ATOM     33  C   LIG    1       -5.154   6.884   0.161  0.00  0.00    +0.030 A 
ATOM     34  O   LIG    1       -3.946   2.958  -2.195  0.00  0.00    -0.540 OA
ATOM     35  C   LIG    1       -4.664   5.659  -0.262  0.00  0.00    +0.100 A 
BRANCH  26  36
ATOM     36  C   LIG    1       -5.420   5.421  -2.680  0.00  0.00    +0.310 C 
BRANCH  36  38
ATOM     37  C   LIG    1       -7.585   5.417  -3.926  0.00  0.00    +0.030 C 
ATOM     38  C   LIG    1       -6.872   4.940  -2.659  0.00  0.00    +0.000 C 
ENDBRANCH  36  38
ENDBRANCH  26  36
ENDBRANCH  25  28
ENDBRANCH  21  25
ENDBRANCH   1  22
TORSDOF 7
