REMARK  Name = ZINCqH0000004S10.0
REMARK                            x       y       z     vdW  Elec       q    Type
REMARK                         _______ _______ _______ _____ _____    ______ ____
ROOT
ATOM      1  S   LIG    1       -0.980   8.895  -2.805  0.00  0.00    +0.090 S 
ENDROOT
BRANCH   1   3
ATOM      2  N   LIG    1        0.722  10.454  -4.387  0.00  0.00    -0.460 N 
ATOM      3  C   LIG    1        0.549   9.433  -3.495  0.00  0.00    +0.150 A 
ATOM      4  N   LIG    1        1.737   8.930  -3.243  0.00  0.00    -0.290 NA
ATOM      5  N   LIG    1        2.634   9.556  -3.916  0.00  0.00    -0.260 NA
ATOM      6  C   LIG    1        2.076  10.504  -4.636  0.00  0.00    +0.260 A 
BRANCH   6   7
ATOM      7  C   LIG    1        2.766  11.442  -5.536  0.00  0.00    -0.130 A 
ATOM      8  C   LIG    1        4.097  11.672  -5.551  0.00  0.00    +0.070 A 
ATOM      9  C   LIG    1        4.511  12.594  -6.489  0.00  0.00    +0.010 A 
ATOM     10  C   LIG    1        3.534  13.124  -7.232  0.00  0.00    -0.030 A 
ATOM     11  S   LIG    1        1.986  12.441  -6.755  0.00  0.00    +0.130 S 
ENDBRANCH   6   7
BRANCH   2  13
ATOM     12  C   LIG    1       -0.511  12.542  -4.066  0.00  0.00    +0.060 C 
ATOM     13  C   LIG    1       -0.316  11.315  -4.960  0.00  0.00    +0.310 C 
ENDBRANCH   2  13
ENDBRANCH   1   3
BRANCH   1  14
ATOM     14  C   LIG    1       -0.393   7.546  -1.750  0.00  0.00    +0.110 C 
BRANCH  14  15
ATOM     15  C   LIG    1       -1.564   6.919  -1.039  0.00  0.00    +0.540 C 
ATOM     16  N   LIG    1       -1.365   5.887  -0.195  0.00  0.00    -0.610 N 
ATOM     17  C   LIG    1       -2.488   5.253   0.516  0.00  0.00    +0.290 C 
ATOM     18  C   LIG    1       -2.596   3.808   0.029  0.00  0.00    +0.070 C 
ATOM     19  C   LIG    1       -1.246   3.140   0.029  0.00  0.00    -0.070 A 
ATOM     20  C   LIG    1       -1.216   1.751   0.017  0.00  0.00    +0.000 A 
ATOM     21  C   LIG    1       -0.013   1.076   0.008  0.00  0.00    +0.010 A 
ATOM     22  C   LIG    1        1.174   1.785   0.000  0.00  0.00    +0.010 A 
ATOM     23  C   LIG    1        1.146   3.165   0.012  0.00  0.00    +0.020 A 
ATOM     24  C   LIG    1       -0.063   3.845   0.028  0.00  0.00    -0.100 A 
ATOM     25  C   LIG    1       -0.022   5.352   0.054  0.00  0.00    +0.340 C 
ATOM     26  O   LIG    1       -2.685   7.342  -1.226  0.00  0.00    -0.520 OA
ENDBRANCH  14  15
ENDBRANCH   1  14
TORSDOF 5
