REMARK  Name = ZINCpk000000ouLC.0
REMARK                            x       y       z     vdW  Elec       q    Type
REMARK                         _______ _______ _______ _____ _____    ______ ____
ROOT
ATOM      1  C   LIG    1       -3.316   3.714  -2.825  0.00  0.00    +0.520 C 
ATOM      2  N   LIG    1       -4.393   4.490  -3.062  0.00  0.00    -0.620 N 
ATOM      3  C   LIG    1       -5.180   5.048  -1.952  0.00  0.00    +0.280 C 
ATOM      4  C   LIG    1       -5.331   6.560  -2.180  0.00  0.00    +0.180 C 
ATOM      5  N   LIG    1       -5.891   6.794  -3.518  0.00  0.00    -0.460 N 
ATOM      6  C   LIG    1       -4.984   6.313  -4.568  0.00  0.00    +0.180 C 
ATOM      7  C   LIG    1       -4.815   4.796  -4.437  0.00  0.00    +0.300 C 
ATOM      8  O   LIG    1       -2.682   3.258  -3.752  0.00  0.00    -0.540 OA
ENDROOT
BRANCH   5   9
ATOM      9  C   LIG    1       -6.202   8.155  -3.704  0.00  0.00    -0.050 A 
ATOM     10  C   LIG    1       -7.012   8.904  -2.914  0.00  0.00    +0.220 A 
ATOM     11  N   LIG    1       -7.047  10.159  -3.436  0.00  0.00    -0.370 N 
ATOM     12  N   LIG    1       -6.234  10.172  -4.577  0.00  0.00    -0.280 NA
ATOM     13  C   LIG    1       -7.800  11.296  -2.900  0.00  0.00    +0.360 C 
ATOM     14  C   LIG    1       -5.726   8.977  -4.735  0.00  0.00    +0.200 A 
ENDBRANCH   5   9
BRANCH   1  15
ATOM     15  C   LIG    1       -2.901   3.413  -1.408  0.00  0.00    +0.060 C 
BRANCH  15  16
ATOM     16  C   LIG    1       -1.660   2.519  -1.419  0.00  0.00    +0.060 C 
BRANCH  16  17
ATOM     17  C   LIG    1       -1.239   2.213   0.020  0.00  0.00    +0.190 C 
BRANCH  17  21
ATOM     18  C   LIG    1        1.972   0.606  -0.013  0.00  0.00    +0.170 A 
ATOM     19  N   LIG    1        1.149  -0.400  -0.011  0.00  0.00    -0.380 NA
ATOM     20  O   LIG    1        0.002  -0.004   0.002  0.00  0.00    +0.080 OA
ATOM     21  C   LIG    1       -0.016   1.332   0.009  0.00  0.00    +0.180 A 
ATOM     22  N   LIG    1        1.233   1.730  -0.000  0.00  0.00    -0.480 NA
BRANCH  18  23
ATOM     23  C   LIG    1        3.476   0.527  -0.028  0.00  0.00    +0.160 C 
BRANCH  23  25
ATOM     24  C   LIG    1        5.500   0.428  -1.491  0.00  0.00    +0.030 C 
ATOM     25  C   LIG    1        3.972   0.508  -1.476  0.00  0.00    +0.020 C 
ENDBRANCH  23  25
ENDBRANCH  18  23
ENDBRANCH  17  21
ENDBRANCH  16  17
ENDBRANCH  15  16
ENDBRANCH   1  15
TORSDOF 7
