REMARK  Name = ZINCpk00000wOrqF.0
REMARK                            x       y       z     vdW  Elec       q    Type
REMARK                         _______ _______ _______ _____ _____    ______ ____
ROOT
ATOM      1  C   LIG    1       -3.337   1.934   5.232  0.00  0.00    -0.200 A 
ATOM      2  C   LIG    1       -3.131   3.225   5.675  0.00  0.00    +0.430 A 
ATOM      3  N   LIG    1       -2.120   3.960   5.138  0.00  0.00    -0.490 N 
ATOM      4  C   LIG    1       -1.313   3.456   4.191  0.00  0.00    +0.700 A 
ATOM      5  N   LIG    1       -1.464   2.209   3.713  0.00  0.00    -0.540 N 
ATOM      6  O   LIG    1       -0.421   4.152   3.746  0.00  0.00    -0.510 OA
ATOM      7  C   LIG    1       -2.442   1.408   4.188  0.00  0.00    +0.570 A 
ATOM      8  O   LIG    1       -2.580   0.277   3.763  0.00  0.00    -0.480 OA
ENDROOT
BRANCH   3   9
ATOM      9  C   LIG    1       -1.903   5.330   5.609  0.00  0.00    +0.210 C 
ATOM     10  C   LIG    1       -2.703   5.794   6.828  0.00  0.00    +0.060 C 
ATOM     11  C   LIG    1       -3.050   6.327   5.436  0.00  0.00    +0.060 C 
ENDBRANCH   3   9
BRANCH   1  13
ATOM     12  N   LIG    1       -5.227   0.491   6.201  0.00  0.00    -0.390 NA
ATOM     13  C   LIG    1       -4.391   1.129   5.772  0.00  0.00    +0.280 C 
ENDBRANCH   1  13
BRANCH   5  14
ATOM     14  C   LIG    1       -0.558   1.712   2.675  0.00  0.00    +0.360 C 
BRANCH  14  15
ATOM     15  C   LIG    1       -1.139   2.031   1.296  0.00  0.00    -0.340 C 
BRANCH  15  16
ATOM     16  S   LIG    1       -0.017   1.417   0.010  0.00  0.00    +2.510 S 
ATOM     17  O   LIG    1        1.190   2.166   0.002  0.00  0.00    -0.920 OA
ATOM     18  O   LIG    1        0.002  -0.004   0.002  0.00  0.00    -0.920 OA
BRANCH  16  19
ATOM     19  C   LIG    1       -0.806   1.849  -1.505  0.00  0.00    -0.650 A 
ATOM     20  C   LIG    1       -1.686   0.966  -2.103  0.00  0.00    +0.140 A 
ATOM     21  C   LIG    1       -2.310   1.307  -3.288  0.00  0.00    +0.040 A 
ATOM     22  C   LIG    1       -2.044   2.527  -3.883  0.00  0.00    -0.040 A 
ATOM     23  C   LIG    1       -1.159   3.408  -3.288  0.00  0.00    +0.040 A 
ATOM     24 BR   LIG    1       -2.890   2.991  -5.509  0.00  0.00    -0.030 Br
ATOM     25  C   LIG    1       -0.540   3.069  -2.099  0.00  0.00    +0.130 A 
ENDBRANCH  16  19
ENDBRANCH  15  16
ENDBRANCH  14  15
ENDBRANCH   5  14
TORSDOF 6
