REMARK  Name = ZINCpk00000ebsRh.0
REMARK                            x       y       z     vdW  Elec       q    Type
REMARK                         _______ _______ _______ _____ _____    ______ ____
ROOT
ATOM      1  C   LIG    1       -6.310   6.073   0.068  0.00  0.00    +0.310 C 
ENDROOT
BRANCH   1   2
ATOM      2  N   LIG    1       -5.032   5.358   0.057  0.00  0.00    -0.720 N 
ATOM      3  H   LIG    1       -4.198   5.854   0.056  0.00  0.00    +0.400 HD
ATOM      4  C   LIG    1       -5.013   4.010   0.050  0.00  0.00    +0.560 C 
ATOM      5  O   LIG    1       -6.058   3.388   0.051  0.00  0.00    -0.510 OA
BRANCH   4   6
ATOM      6  C   LIG    1       -3.723   3.288   0.038  0.00  0.00    -0.080 A 
ATOM      7  C   LIG    1       -3.700   1.893   0.030  0.00  0.00    +0.100 A 
ATOM      8  C   LIG    1       -2.493   1.225   0.021  0.00  0.00    +0.100 A 
ATOM      9  C   LIG    1       -1.306   1.936   0.019  0.00  0.00    -0.020 A 
ATOM     10  C   LIG    1       -1.321   3.320   0.032  0.00  0.00    +0.100 A 
ATOM     11  C   LIG    1       -2.522   3.999   0.037  0.00  0.00    +0.060 A 
BRANCH   9  12
ATOM     12  N   LIG    1       -0.014   1.214   0.009  0.00  0.00    +0.020 N 
ATOM     13  O   LIG    1        1.032   1.837   0.002  0.00  0.00    -0.150 OA
ATOM     14  O   LIG    1        0.002  -0.004   0.002  0.00  0.00    -0.150 OA
ENDBRANCH   9  12
ENDBRANCH   4   6
ENDBRANCH   1   2
BRANCH   1  15
ATOM     15  C   LIG    1       -6.051   7.581   0.076  0.00  0.00    +0.110 C 
BRANCH  15  17
ATOM     16  O   LIG    1       -8.404   7.698   0.089  0.00  0.00    -0.500 OA
ATOM     17  C   LIG    1       -7.366   8.316   0.087  0.00  0.00    +0.470 C 
BRANCH  17  18
ATOM     18  O   LIG    1       -7.384   9.659   0.095  0.00  0.00    -0.340 OA
BRANCH  18  19
ATOM     19  C   LIG    1       -8.687  10.300   0.105  0.00  0.00    +0.250 C 
BRANCH  19  20
ATOM     20  C   LIG    1       -8.510  11.796   0.113  0.00  0.00    +0.420 C 
ATOM     21  O   LIG    1       -7.394  12.276   0.110  0.00  0.00    -0.450 OA
BRANCH  20  22
ATOM     22  C   LIG    1       -9.642  12.642   0.124  0.00  0.00    -0.100 A 
ATOM     23  C   LIG    1      -10.966  12.239   0.123  0.00  0.00    +0.040 A 
ATOM     24  C   LIG    1      -11.745  13.398   0.139  0.00  0.00    -0.060 A 
ATOM     25  C   LIG    1      -10.905  14.463   0.141  0.00  0.00    +0.220 A 
ATOM     26  N   LIG    1       -9.631  14.021   0.132  0.00  0.00    -0.520 N 
ATOM     27  H   LIG    1       -8.839  14.580   0.131  0.00  0.00    +0.430 HD
ENDBRANCH  20  22
ENDBRANCH  19  20
ENDBRANCH  18  19
ENDBRANCH  17  18
ENDBRANCH  15  17
ENDBRANCH   1  15
TORSDOF 9
