REMARK  Name = ZINCqH0000003J3q.0
REMARK                            x       y       z     vdW  Elec       q    Type
REMARK                         _______ _______ _______ _____ _____    ______ ____
ROOT
ATOM      1  C   LIG    1       -3.516   3.127   0.344  0.00  0.00    +0.560 C 
ATOM      2  N   LIG    1       -3.256   2.483  -0.812  0.00  0.00    -0.670 N 
ATOM      3  H   LIG    1       -3.900   2.507  -1.536  0.00  0.00    +0.410 HD
ATOM      4  O   LIG    1       -2.669   3.185   1.210  0.00  0.00    -0.510 OA
ENDROOT
BRANCH   2   5
ATOM      5  C   LIG    1       -2.054   1.780  -0.966  0.00  0.00    +0.120 A 
ATOM      6  C   LIG    1       -1.500   1.107   0.114  0.00  0.00    +0.030 A 
ATOM      7  C   LIG    1       -0.313   0.418  -0.037  0.00  0.00    +0.000 A 
ATOM      8  C   LIG    1        0.321   0.390  -1.272  0.00  0.00    +0.130 A 
ATOM      9  C   LIG    1       -0.236   1.059  -2.354  0.00  0.00    +0.040 A 
ATOM     10  C   LIG    1       -1.420   1.752  -2.201  0.00  0.00    +0.010 A 
BRANCH   8  11
ATOM     11  N   LIG    1        1.523  -0.313  -1.426  0.00  0.00    -0.560 N 
ATOM     12  C   LIG    1        1.935  -0.682  -2.655  0.00  0.00    +0.510 C 
ATOM     13  O   LIG    1        1.310  -0.333  -3.635  0.00  0.00    -0.520 OA
ATOM     14  C   LIG    1        3.171  -1.528  -2.813  0.00  0.00    +0.100 C 
ATOM     15  C   LIG    1        2.332  -0.648  -0.252  0.00  0.00    +0.300 C 
ENDBRANCH   8  11
ENDBRANCH   2   5
BRANCH   1  16
ATOM     16  C   LIG    1       -4.860   3.774   0.559  0.00  0.00    -0.110 C 
ATOM     17  C   LIG    1       -5.654   3.356   1.798  0.00  0.00    +0.090 C 
ATOM     18  C   LIG    1       -6.101   2.892   0.411  0.00  0.00    +0.060 C 
BRANCH  16  22
ATOM     19  C   LIG    1       -5.170   7.844  -0.706  0.00  0.00    +0.130 A 
ATOM     20  C   LIG    1       -3.953   7.345  -0.264  0.00  0.00    -0.020 A 
ATOM     21  C   LIG    1       -3.856   6.029   0.145  0.00  0.00    +0.060 A 
ATOM     22  C   LIG    1       -4.969   5.209   0.113  0.00  0.00    -0.080 A 
ATOM     23  C   LIG    1       -6.181   5.703  -0.333  0.00  0.00    +0.060 A 
ATOM     24  C   LIG    1       -6.285   7.020  -0.738  0.00  0.00    -0.070 A 
BRANCH  19  25
ATOM     25  O   LIG    1       -5.268   9.138  -1.108  0.00  0.00    -0.320 OA
BRANCH  25  27
ATOM     26  C   LIG    1       -6.467  11.056  -1.961  0.00  0.00    +0.070 C 
ATOM     27  C   LIG    1       -6.552   9.584  -1.552  0.00  0.00    +0.170 C 
ENDBRANCH  25  27
ENDBRANCH  19  25
ENDBRANCH  16  22
ENDBRANCH   1  16
TORSDOF 6
