REMARK  Name = ZINCpk000005ZC5D.0
REMARK                            x       y       z     vdW  Elec       q    Type
REMARK                         _______ _______ _______ _____ _____    ______ ____
ROOT
ATOM      1  C   LIG    1        0.847  -4.992   2.118  0.00  0.00    +0.560 C 
ATOM      2  N   LIG    1        1.758  -4.163   1.569  0.00  0.00    -0.610 N 
ATOM      3  C   LIG    1        2.954  -4.691   0.895  0.00  0.00    +0.250 C 
ATOM      4  C   LIG    1        3.064  -4.029  -0.483  0.00  0.00    +0.220 C 
ATOM      5  O   LIG    1        2.997  -2.610  -0.330  0.00  0.00    -0.370 OA
ATOM      6  C   LIG    1        1.762  -2.138   0.214  0.00  0.00    +0.200 C 
ATOM      7  C   LIG    1        1.585  -2.703   1.628  0.00  0.00    +0.290 C 
ATOM      8  O   LIG    1       -0.095  -4.536   2.734  0.00  0.00    -0.510 OA
ENDROOT
BRANCH   1  13
ATOM      9  O   LIG    1       -3.148  -8.487   0.246  0.00  0.00    -0.480 OA
ATOM     10  C   LIG    1       -2.031  -8.271   0.665  0.00  0.00    +0.540 C 
ATOM     11  C   LIG    1       -1.459  -6.922   1.049  0.00  0.00    +0.150 C 
ATOM     12  C   LIG    1       -0.054  -7.239   1.501  0.00  0.00    -0.150 A 
ATOM     13  C   LIG    1        0.996  -6.458   1.968  0.00  0.00    -0.030 A 
ATOM     14  C   LIG    1        2.197  -7.100   2.298  0.00  0.00    -0.020 A 
ATOM     15  C   LIG    1        2.283  -8.468   2.140  0.00  0.00    +0.330 A 
ATOM     16  N   LIG    1        1.266  -9.173   1.690  0.00  0.00    -0.490 NA
ATOM     17  C   LIG    1        0.105  -8.614   1.362  0.00  0.00    +0.360 A 
ATOM     18  N   LIG    1       -1.067  -9.183   0.875  0.00  0.00    -0.640 N 
ATOM     19  H   LIG    1       -1.177 -10.132   0.708  0.00  0.00    +0.420 HD
ENDBRANCH   1  13
BRANCH   6  20
ATOM     20  C   LIG    1        1.781  -0.632   0.273  0.00  0.00    -0.070 A 
ATOM     21  C   LIG    1        2.960   0.034   0.548  0.00  0.00    +0.030 A 
ATOM     22  C   LIG    1        2.981   1.416   0.602  0.00  0.00    +0.030 A 
ATOM     23  C   LIG    1        1.822   2.134   0.380  0.00  0.00    -0.010 A 
ATOM     24  C   LIG    1        0.636   1.468   0.104  0.00  0.00    +0.110 A 
ATOM     25  C   LIG    1        0.619   0.082   0.051  0.00  0.00    +0.000 A 
BRANCH  24  26
ATOM     26  O   LIG    1       -0.504   2.172  -0.120  0.00  0.00    -0.500 OA
ATOM     27  H   LIG    1       -1.022   2.345   0.678  0.00  0.00    +0.390 HD
ENDBRANCH  24  26
ENDBRANCH   6  20
TORSDOF 3
