REMARK  Name = ZINCrH00000tj1ef.0
REMARK                            x       y       z     vdW  Elec       q    Type
REMARK                         _______ _______ _______ _____ _____    ______ ____
ROOT
ATOM      1  N   LIG    1        0.226  -2.350  -1.054  0.00  0.00    -0.670 N 
ATOM      2  H   LIG    1       -0.350  -2.932  -0.534  0.00  0.00    +0.420 HD
ATOM      3  C   LIG    1        0.331  -1.045  -0.736  0.00  0.00    +0.710 C 
ATOM      4  N   LIG    1       -0.441  -0.525   0.239  0.00  0.00    -0.730 N 
ATOM      5  H   LIG    1       -1.072  -1.090   0.711  0.00  0.00    +0.420 HD
ATOM      6  O   LIG    1        1.123  -0.337  -1.327  0.00  0.00    -0.530 OA
ENDROOT
BRANCH   4   7
ATOM      7  C   LIG    1       -0.326   0.894   0.586  0.00  0.00    +0.440 C 
ATOM      8  O   LIG    1       -0.517   1.717  -0.581  0.00  0.00    -0.280 OA
ATOM      9  C   LIG    1        0.730   1.907  -1.101  0.00  0.00    +0.070 A 
ATOM     10  C   LIG    1        1.149   2.331  -2.351  0.00  0.00    +0.040 A 
ATOM     11  C   LIG    1        2.499   2.441  -2.628  0.00  0.00    +0.040 A 
ATOM     12  C   LIG    1        3.434   2.128  -1.660  0.00  0.00    +0.040 A 
ATOM     13  C   LIG    1        3.023   1.704  -0.409  0.00  0.00    +0.050 A 
ATOM     14  C   LIG    1        1.673   1.592  -0.124  0.00  0.00    +0.050 A 
ATOM     15  O   LIG    1        1.015   1.205   1.007  0.00  0.00    -0.280 OA
BRANCH   7  16
ATOM     16  C   LIG    1       -1.332   1.262   1.678  0.00  0.00    +0.500 C 
ATOM     17  F   LIG    1       -2.630   1.010   1.221  0.00  0.00    -0.150 F 
ATOM     18  F   LIG    1       -1.204   2.619   1.992  0.00  0.00    -0.140 F 
ATOM     19  F   LIG    1       -1.082   0.494   2.820  0.00  0.00    -0.150 F 
ENDBRANCH   7  16
ENDBRANCH   4   7
BRANCH   1  24
ATOM     20  C   LIG    1        3.148  -4.444  -5.443  0.00  0.00    +0.140 C 
ATOM     21  C   LIG    1        2.372  -3.888  -4.277  0.00  0.00    -0.020 A 
ATOM     22  C   LIG    1        1.893  -2.591  -4.323  0.00  0.00    +0.050 A 
ATOM     23  C   LIG    1        1.176  -2.081  -3.258  0.00  0.00    +0.090 A 
ATOM     24  C   LIG    1        0.946  -2.867  -2.137  0.00  0.00    +0.160 A 
ATOM     25  C   LIG    1        1.429  -4.168  -2.095  0.00  0.00    +0.080 A 
ATOM     26  C   LIG    1        2.140  -4.675  -3.164  0.00  0.00    -0.030 A 
BRANCH  26  27
ATOM     27  N   LIG    1        2.655  -6.062  -3.119  0.00  0.00    +0.030 N 
ATOM     28  O   LIG    1        3.171  -6.552  -4.108  0.00  0.00    -0.150 OA
ATOM     29  O   LIG    1        2.562  -6.713  -2.095  0.00  0.00    -0.160 OA
ENDBRANCH  26  27
ENDBRANCH   1  24
TORSDOF 4
