REMARK  Name = ZINCrH000004qaKT.0
REMARK                            x       y       z     vdW  Elec       q    Type
REMARK                         _______ _______ _______ _____ _____    ______ ____
ROOT
ATOM      1  N   LIG    1        3.827   7.151  -0.686  0.00  0.00    -1.060 N 
ATOM      2  H   LIG    1        4.469   7.333  -1.390  0.00  0.00    +0.430 HD
ENDROOT
BRANCH   1   3
ATOM      3  C   LIG    1        3.013   6.015  -0.758  0.00  0.00    +0.150 A 
ATOM      4  C   LIG    1        1.650   6.121  -0.516  0.00  0.00    +0.030 A 
ATOM      5  C   LIG    1        0.842   5.001  -0.587  0.00  0.00    +0.070 A 
ATOM      6  C   LIG    1        1.392   3.771  -0.899  0.00  0.00    +0.070 A 
ATOM      7  O   LIG    1        0.608   2.661  -0.974  0.00  0.00    -0.300 OA
ATOM      8  C   LIG    1        0.990   1.669  -1.936  0.00  0.00    +0.190 C 
ATOM      9  C   LIG    1        2.470   1.408  -1.827  0.00  0.00    +0.490 C 
ATOM     10  N   LIG    1        3.302   2.406  -1.457  0.00  0.00    -0.660 N 
ATOM     11  H   LIG    1        4.259   2.257  -1.411  0.00  0.00    +0.420 HD
ATOM     12  O   LIG    1        2.914   0.306  -2.075  0.00  0.00    -0.500 OA
ATOM     13  C   LIG    1        0.222   0.374  -1.663  0.00  0.00    +0.100 C 
ATOM     14  C   LIG    1        2.760   3.660  -1.142  0.00  0.00    +0.110 A 
ATOM     15  C   LIG    1        3.570   4.781  -1.071  0.00  0.00    +0.010 A 
ENDBRANCH   1   3
BRANCH   1  16
ATOM     16  S   LIG    1        3.694   8.184   0.601  0.00  0.00    +2.690 S 
ATOM     17  O   LIG    1        2.307   8.453   0.759  0.00  0.00    -0.940 OA
ATOM     18  O   LIG    1        4.665   9.202   0.401  0.00  0.00    -0.950 OA
BRANCH  16  23
ATOM     19  C   LIG    1        5.408   5.139   5.520  0.00  0.00    +0.110 C 
ATOM     20  C   LIG    1        4.980   5.899   4.292  0.00  0.00    -0.020 A 
ATOM     21  C   LIG    1        5.931   6.402   3.423  0.00  0.00    -0.120 A 
ATOM     22  C   LIG    1        5.538   7.099   2.296  0.00  0.00    +0.020 A 
ATOM     23  C   LIG    1        4.194   7.295   2.038  0.00  0.00    -0.680 A 
ATOM     24  C   LIG    1        3.243   6.798   2.909  0.00  0.00    +0.030 A 
ATOM     25  C   LIG    1        1.778   7.016   2.631  0.00  0.00    +0.110 C 
ATOM     26  C   LIG    1        6.575   7.646   1.349  0.00  0.00    +0.100 C 
ATOM     27  C   LIG    1        7.396   6.188   3.705  0.00  0.00    +0.090 C 
ATOM     28  C   LIG    1        3.636   6.096   4.034  0.00  0.00    -0.110 A 
ATOM     29  C   LIG    1        2.599   5.549   4.981  0.00  0.00    +0.090 C 
ENDBRANCH  16  23
ENDBRANCH   1  16
TORSDOF 3
