REMARK  Name = ZINCtV000002sTKR.0
REMARK                            x       y       z     vdW  Elec       q    Type
REMARK                         _______ _______ _______ _____ _____    ______ ____
ROOT
ATOM      1  C   LIG    1        0.172  -4.319   0.198  0.00  0.00    -0.150 A 
ATOM      2  C   LIG    1        1.408  -4.973   0.160  0.00  0.00    +0.070 A 
ATOM      3  C   LIG    1        1.462  -6.339   0.258  0.00  0.00    -0.010 A 
ATOM      4  C   LIG    1        0.286  -7.077   0.385  0.00  0.00    -0.060 A 
ATOM      5  C   LIG    1       -0.946  -6.428   0.417  0.00  0.00    +0.030 A 
ATOM      6  C   LIG    1       -1.006  -5.062   0.325  0.00  0.00    +0.110 A 
ENDROOT
BRANCH   1   9
ATOM      7  N   LIG    1        1.247  -2.134  -0.024  0.00  0.00    -0.670 N 
ATOM      8  H   LIG    1        2.099  -2.589  -0.114  0.00  0.00    +0.410 HD
ATOM      9  C   LIG    1        0.111  -2.849   0.098  0.00  0.00    +0.560 C 
ATOM     10  O   LIG    1       -0.964  -2.281   0.127  0.00  0.00    -0.510 OA
BRANCH   7  16
ATOM     11  C   LIG    1        2.226  -0.004   0.557  0.00  0.00    -0.100 A 
ATOM     12  C   LIG    1        2.175   1.376   0.556  0.00  0.00    +0.030 A 
ATOM     13  C   LIG    1        1.100   2.029  -0.020  0.00  0.00    -0.010 A 
ATOM     14  C   LIG    1        0.075   1.303  -0.597  0.00  0.00    +0.020 A 
ATOM     15  C   LIG    1        0.120  -0.078  -0.600  0.00  0.00    +0.020 A 
ATOM     16  C   LIG    1        1.198  -0.737  -0.022  0.00  0.00    +0.140 A 
BRANCH  11  18
ATOM     17  C   LIG    1        4.698  -0.207   0.560  0.00  0.00    +0.030 C 
ATOM     18  C   LIG    1        3.397  -0.715   1.185  0.00  0.00    +0.020 C 
ATOM     19  C   LIG    1        3.413  -0.439   2.690  0.00  0.00    +0.040 C 
ENDBRANCH  11  18
ENDBRANCH   7  16
ENDBRANCH   1   9
BRANCH   4  20
ATOM     20  S   LIG    1        0.359  -8.833   0.504  0.00  0.00    -0.070 S 
BRANCH  20  21
ATOM     21  C   LIG    1        2.139  -9.175   0.415  0.00  0.00    +0.190 C 
BRANCH  21  22
ATOM     22  C   LIG    1        2.370 -10.661   0.505  0.00  0.00    +0.060 A 
ATOM     23  C   LIG    1        2.421 -11.515  -0.540  0.00  0.00    +0.120 A 
ATOM     24  N   LIG    1        2.648 -12.765  -0.031  0.00  0.00    -0.360 N 
ATOM     25  C   LIG    1        2.790 -13.989  -0.617  0.00  0.00    +0.220 A 
ATOM     26  C   LIG    1        3.012 -15.089   0.134  0.00  0.00    +0.010 A 
ATOM     27  C   LIG    1        3.099 -14.986   1.532  0.00  0.00    +0.050 A 
ATOM     28  C   LIG    1        2.960 -13.772   2.129  0.00  0.00    +0.070 A 
ATOM     29  C   LIG    1        2.729 -12.633   1.331  0.00  0.00    +0.230 A 
ATOM     30  N   LIG    1        2.563 -11.353   1.631  0.00  0.00    -0.480 NA
ENDBRANCH  21  22
ENDBRANCH  20  21
ENDBRANCH   4  20
TORSDOF 6
