REMARK  Name = ZINCpe00000gN4M5.0
REMARK                            x       y       z     vdW  Elec       q    Type
REMARK                         _______ _______ _______ _____ _____    ______ ____
ROOT
ATOM      1  C   LIG    1       -1.112   3.220  -2.915  0.00  0.00    -0.190 A 
ATOM      2  C   LIG    1       -2.111   2.412  -3.419  0.00  0.00    +0.430 A 
ATOM      3  N   LIG    1       -2.384   1.230  -2.805  0.00  0.00    -0.490 N 
ATOM      4  C   LIG    1       -1.701   0.828  -1.722  0.00  0.00    +0.710 A 
ATOM      5  N   LIG    1       -0.721   1.571  -1.179  0.00  0.00    -0.540 N 
ATOM      6  O   LIG    1       -1.980  -0.240  -1.212  0.00  0.00    -0.520 OA
ATOM      7  C   LIG    1       -0.382   2.759  -1.723  0.00  0.00    +0.570 A 
ATOM      8  O   LIG    1        0.507   3.433  -1.238  0.00  0.00    -0.480 OA
ENDROOT
BRANCH   3   9
ATOM      9  C   LIG    1       -3.444   0.373  -3.341  0.00  0.00    +0.220 C 
ATOM     10  C   LIG    1       -4.054   0.763  -4.689  0.00  0.00    +0.060 C 
ATOM     11  C   LIG    1       -4.859   0.952  -3.402  0.00  0.00    +0.060 C 
ENDBRANCH   3   9
BRANCH   1  13
ATOM     12  N   LIG    1       -0.542   5.465  -4.026  0.00  0.00    -0.390 NA
ATOM     13  C   LIG    1       -0.794   4.472  -3.534  0.00  0.00    +0.280 C 
ENDBRANCH   1  13
BRANCH   5  14
ATOM     14  C   LIG    1       -0.013   1.086   0.008  0.00  0.00    +0.370 C 
BRANCH  14  15
ATOM     15  C   LIG    1       -0.718   1.572   1.248  0.00  0.00    +0.520 C 
ATOM     16  N   LIG    1       -0.242   1.246   2.466  0.00  0.00    -0.550 N 
ATOM     17  C   LIG    1       -0.839   1.658   3.739  0.00  0.00    +0.290 C 
ATOM     18  C   LIG    1        0.060   1.041   4.824  0.00  0.00    +0.110 C 
ATOM     19  C   LIG    1        1.133   0.303   4.055  0.00  0.00    -0.130 A 
ATOM     20  C   LIG    1        2.213  -0.439   4.493  0.00  0.00    +0.060 A 
ATOM     21  C   LIG    1        3.058  -1.040   3.579  0.00  0.00    -0.010 A 
ATOM     22  C   LIG    1        2.829  -0.885   2.224  0.00  0.00    +0.050 A 
ATOM     23  C   LIG    1        1.755  -0.142   1.783  0.00  0.00    -0.030 A 
ATOM     24  C   LIG    1        0.891   0.461   2.699  0.00  0.00    +0.140 A 
ATOM     25  O   LIG    1       -1.715   2.256   1.150  0.00  0.00    -0.500 OA
ENDBRANCH  14  15
ENDBRANCH   5  14
TORSDOF 4
