REMARK  Name = ZINCvU0000000421.0
REMARK                            x       y       z     vdW  Elec       q    Type
REMARK                         _______ _______ _______ _____ _____    ______ ____
ROOT
ATOM      1  O   LIG    1       -5.988   1.831   0.351  0.00  0.00    -0.330 OA
ENDROOT
BRANCH   1   2
ATOM      2  C   LIG    1       -7.214   1.295   0.461  0.00  0.00    +0.470 C 
ATOM      3  O   LIG    1       -7.349   0.094   0.468  0.00  0.00    -0.480 OA
BRANCH   2   4
ATOM      4  C   LIG    1       -8.421   2.190   0.576  0.00  0.00    +0.290 C 
BRANCH   4   5
ATOM      5  O   LIG    1       -9.599   1.389   0.681  0.00  0.00    -0.290 OA
BRANCH   5   6
ATOM      6  C   LIG    1      -10.784   2.046   0.793  0.00  0.00    +0.140 A 
ATOM      7  C   LIG    1      -10.810   3.433   0.807  0.00  0.00    -0.070 A 
ATOM      8  C   LIG    1      -12.016   4.099   0.914  0.00  0.00    +0.100 A 
ATOM      9  C   LIG    1      -13.195   3.384   1.020  0.00  0.00    -0.100 A 
ATOM     10  C   LIG    1      -13.170   2.001   1.012  0.00  0.00    +0.080 A 
ATOM     11  C   LIG    1      -11.968   1.331   0.898  0.00  0.00    +0.000 A 
BRANCH   9  12
ATOM     12  C   LIG    1      -14.508   4.112   1.144  0.00  0.00    +0.130 C 
ATOM     13  S   LIG    1      -14.758   5.165  -0.314  0.00  0.00    -0.220 S 
ATOM     14  C   LIG    1      -16.320   6.006   0.059  0.00  0.00    +0.100 C 
ATOM     15  C   LIG    1      -16.168   6.865   1.309  0.00  0.00    +0.060 C 
ATOM     16  C   LIG    1      -16.091   5.994   2.558  0.00  0.00    +0.110 C 
ATOM     17  S   LIG    1      -14.488   5.152   2.632  0.00  0.00    -0.220 S 
ENDBRANCH   9  12
ENDBRANCH   5   6
ENDBRANCH   4   5
ENDBRANCH   2   4
ENDBRANCH   1   2
BRANCH   1  18
ATOM     18  C   LIG    1       -4.872   0.909   0.244  0.00  0.00    +0.270 C 
BRANCH  18  20
ATOM     19  O   LIG    1       -3.609   2.900   0.137  0.00  0.00    -0.490 OA
ATOM     20  C   LIG    1       -3.586   1.687   0.129  0.00  0.00    +0.520 C 
ATOM     21  N   LIG    1       -2.412   1.036   0.018  0.00  0.00    -0.670 N 
ATOM     22  H   LIG    1       -2.399   0.068  -0.053  0.00  0.00    +0.420 HD
BRANCH  21  23
ATOM     23  C   LIG    1       -1.212   1.754   0.007  0.00  0.00    +0.150 A 
ATOM     24  C   LIG    1       -0.091   1.218   0.601  0.00  0.00    -0.010 A 
ATOM     25  C   LIG    1        1.114   1.939   0.583  0.00  0.00    -0.030 A 
ATOM     26  C   LIG    1        2.281   1.423   1.172  0.00  0.00    +0.020 A 
ATOM     27  C   LIG    1        3.432   2.149   1.135  0.00  0.00    +0.010 A 
ATOM     28  C   LIG    1        3.472   3.399   0.521  0.00  0.00    +0.000 A 
ATOM     29  C   LIG    1        2.361   3.930  -0.060  0.00  0.00    +0.030 A 
ATOM     30  C   LIG    1        1.155   3.211  -0.042  0.00  0.00    -0.060 A 
ATOM     31  C   LIG    1       -0.010   3.731  -0.633  0.00  0.00    +0.040 A 
ATOM     32  C   LIG    1       -1.164   3.013  -0.602  0.00  0.00    +0.020 A 
ENDBRANCH  21  23
ENDBRANCH  18  20
ENDBRANCH   1  18
TORSDOF 8
