REMARK  Name = ZINCpe000000TF3T.0
REMARK                            x       y       z     vdW  Elec       q    Type
REMARK                         _______ _______ _______ _____ _____    ______ ____
ROOT
ATOM      1  C   LIG    1        0.743  -5.714   0.007  0.00  0.00    -0.010 C 
ATOM      2  C   LIG    1        0.546  -4.873  -1.257  0.00  0.00    +0.070 C 
ATOM      3  C   LIG    1        1.495  -3.673  -1.219  0.00  0.00    +0.190 C 
ATOM      4  N   LIG    1        1.216  -2.865  -0.025  0.00  0.00    -0.510 N 
ATOM      5  C   LIG    1        1.444  -3.637   1.204  0.00  0.00    +0.190 C 
ATOM      6  C   LIG    1        0.494  -4.837   1.238  0.00  0.00    +0.050 C 
ENDROOT
BRANCH   4   7
ATOM      7  C   LIG    1        1.969  -1.699  -0.026  0.00  0.00    +0.220 A 
ATOM      8  C   LIG    1        1.348  -0.435  -0.013  0.00  0.00    -0.210 A 
ATOM      9  C   LIG    1        0.002  -0.004   0.002  0.00  0.00    +0.300 A 
ATOM     10  N   LIG    1       -0.016   1.298   0.009  0.00  0.00    -0.240 NA
ATOM     11  N   LIG    1        1.296   1.788  -0.001  0.00  0.00    -0.390 N 
ATOM     12  C   LIG    1        1.684   3.200   0.003  0.00  0.00    +0.360 C 
ATOM     13  C   LIG    1        2.152   0.720  -0.015  0.00  0.00    +0.320 A 
ATOM     14  N   LIG    1        3.476   0.611  -0.028  0.00  0.00    -0.510 NA
ATOM     15  C   LIG    1        4.076  -0.561  -0.040  0.00  0.00    +0.350 A 
ATOM     16  C   LIG    1        3.358  -1.743  -0.039  0.00  0.00    -0.110 A 
ENDBRANCH   4   7
BRANCH   1  19
ATOM     17  N   LIG    1       -0.239  -7.743   1.026  0.00  0.00    -0.730 N 
ATOM     18  H   LIG    1        0.381  -7.634   1.764  0.00  0.00    +0.410 HD
ATOM     19  C   LIG    1       -0.231  -6.864   0.004  0.00  0.00    +0.530 C 
ATOM     20  O   LIG    1       -1.006  -7.000  -0.919  0.00  0.00    -0.530 OA
BRANCH  17  21
ATOM     21  C   LIG    1       -1.186  -8.861   1.023  0.00  0.00    +0.350 C 
BRANCH  21  22
ATOM     22  C   LIG    1       -0.991  -9.687   2.268  0.00  0.00    +0.460 C 
ATOM     23  O   LIG    1       -0.149  -9.374   3.075  0.00  0.00    -0.510 OA
BRANCH  22  24
ATOM     24  O   LIG    1       -1.754 -10.771   2.480  0.00  0.00    -0.350 OA
BRANCH  24  26
ATOM     25  C   LIG    1       -2.469 -12.711   3.767  0.00  0.00    +0.070 C 
ATOM     26  C   LIG    1       -1.511 -11.520   3.701  0.00  0.00    +0.200 C 
ENDBRANCH  24  26
ENDBRANCH  22  24
ENDBRANCH  21  22
ENDBRANCH  17  21
ENDBRANCH   1  19
TORSDOF 6
