REMARK  Name = ZINCpk00000KfLMp.0
REMARK                            x       y       z     vdW  Elec       q    Type
REMARK                         _______ _______ _______ _____ _____    ______ ____
ROOT
ATOM      1  N   LIG    1       -0.256   1.395  -0.567  0.00  0.00    -0.520 NA
ATOM      2  C   LIG    1       -0.854   2.075  -1.724  0.00  0.00    +0.180 C 
ATOM      3  C   LIG    1       -0.894   3.582  -1.462  0.00  0.00    +0.190 C 
ATOM      4  N   LIG    1        0.470   4.070  -1.214  0.00  0.00    -0.530 NA
ATOM      5  C   LIG    1        1.068   3.390  -0.057  0.00  0.00    +0.200 C 
ATOM      6  C   LIG    1        1.108   1.883  -0.320  0.00  0.00    +0.200 C 
ENDROOT
BRANCH   1   7
ATOM      7  C   LIG    1       -0.268  -0.063  -0.749  0.00  0.00    +0.250 C 
ATOM      8  C   LIG    1        0.274  -0.739   0.512  0.00  0.00    +0.080 C 
BRANCH   7  13
ATOM      9  C   LIG    1       -4.309  -2.394  -2.643  0.00  0.00    +0.240 C 
ATOM     10  C   LIG    1       -3.407  -1.522  -1.809  0.00  0.00    +0.160 A 
ATOM     11  N   LIG    1       -3.775  -0.747  -0.828  0.00  0.00    -0.290 NA
ATOM     12  N   LIG    1       -2.741  -0.156  -0.340  0.00  0.00    -0.260 NA
ATOM     13  C   LIG    1       -1.680  -0.526  -1.000  0.00  0.00    +0.160 A 
ATOM     14  O   LIG    1       -2.075  -1.400  -1.940  0.00  0.00    -0.230 OA
ENDBRANCH   7  13
ENDBRANCH   1   7
BRANCH   4  15
ATOM     15  C   LIG    1        0.483   5.528  -1.033  0.00  0.00    +0.160 C 
BRANCH  15  16
ATOM     16  C   LIG    1        1.899   6.058  -1.264  0.00  0.00    +0.230 C 
BRANCH  16  17
ATOM     17  O   LIG    1        2.292   5.795  -2.613  0.00  0.00    -0.540 OA
ATOM     18  H   LIG    1        1.721   6.207  -3.276  0.00  0.00    +0.370 HD
ENDBRANCH  16  17
BRANCH  16  19
ATOM     19  C   LIG    1        1.927   7.567  -1.010  0.00  0.00    +0.170 C 
BRANCH  19  20
ATOM     20  O   LIG    1        3.270   8.043  -1.112  0.00  0.00    -0.300 OA
BRANCH  20  21
ATOM     21  C   LIG    1        3.471   9.372  -0.912  0.00  0.00    +0.130 A 
ATOM     22  C   LIG    1        2.396  10.202  -0.629  0.00  0.00    -0.080 A 
ATOM     23  C   LIG    1        2.603  11.552  -0.421  0.00  0.00    +0.040 A 
ATOM     24  C   LIG    1        3.879  12.078  -0.505  0.00  0.00    -0.040 A 
ATOM     25  C   LIG    1        4.951  11.253  -0.792  0.00  0.00    +0.050 A 
ATOM     26  C   LIG    1        4.750   9.902  -0.996  0.00  0.00    -0.020 A 
ENDBRANCH  20  21
ENDBRANCH  19  20
ENDBRANCH  16  19
ENDBRANCH  15  16
ENDBRANCH   4  15
TORSDOF 8
