REMARK  Name = ZINCah00000040yo.0
REMARK                            x       y       z     vdW  Elec       q    Type
REMARK                         _______ _______ _______ _____ _____    ______ ____
ROOT
ATOM      1  C   LIG    1       -1.328   1.812   0.018  0.00  0.00    -0.220 C 
ATOM      2  C   LIG    1       -1.915   1.092  -1.198  0.00  0.00    +0.070 C 
ATOM      3  C   LIG    1       -0.400   1.114  -0.979  0.00  0.00    +0.070 C 
ENDROOT
BRANCH   1   4
ATOM      4  C   LIG    1       -1.349   3.341   0.012  0.00  0.00    +0.210 C 
ATOM      5  C   LIG    1       -0.080   3.900   0.702  0.00  0.00    +0.020 C 
ATOM      6  C   LIG    1        0.024   5.301   0.040  0.00  0.00    +0.000 C 
ATOM      7  C   LIG    1       -0.502   5.029  -1.386  0.00  0.00    +0.190 C 
ATOM      8  O   LIG    1       -1.292   3.835  -1.336  0.00  0.00    -0.380 OA
ENDBRANCH   1   4
BRANCH   1  10
ATOM      9  O   LIG    1       -1.573   1.847   2.361  0.00  0.00    -0.450 OA
ATOM     10  C   LIG    1       -1.513   1.164   1.367  0.00  0.00    +0.490 C 
ENDBRANCH   1  10
TORSDOF 2
