REMARK  Name = ZINCpk000005WEBn.0
REMARK                            x       y       z     vdW  Elec       q    Type
REMARK                         _______ _______ _______ _____ _____    ______ ____
ROOT
ATOM      1  C   LIG    1       -3.567   5.012  -4.158  0.00  0.00    +0.290 C 
ENDROOT
BRANCH   1   4
ATOM      2  O   LIG    1       -2.669   7.552  -4.294  0.00  0.00    -0.550 OA
ATOM      3  C   LIG    1       -2.408   6.959  -3.263  0.00  0.00    +0.590 C 
ATOM      4  N   LIG    1       -2.813   5.684  -3.098  0.00  0.00    -0.720 N 
ATOM      5  H   LIG    1       -2.605   5.212  -2.276  0.00  0.00    +0.390 HD
BRANCH   3   6
ATOM      6  C   LIG    1       -1.655   7.630  -2.205  0.00  0.00    -0.250 A 
ATOM      7  C   LIG    1       -1.165   8.948  -2.225  0.00  0.00    +0.120 A 
ATOM      8  C   LIG    1       -1.232   9.966  -3.188  0.00  0.00    +0.070 A 
ATOM      9  C   LIG    1       -0.651  11.171  -2.927  0.00  0.00    +0.030 A 
ATOM     10  C   LIG    1        0.001  11.372  -1.700  0.00  0.00    +0.010 A 
ATOM     11  C   LIG    1        0.055  10.380  -0.786  0.00  0.00    +0.220 A 
ATOM     12  N   LIG    1       -0.523   9.167  -1.036  0.00  0.00    -0.340 N 
ATOM     13  C   LIG    1       -0.599   8.028  -0.279  0.00  0.00    +0.110 A 
ATOM     14  C   LIG    1       -1.280   7.083  -0.952  0.00  0.00    +0.040 A 
ENDBRANCH   3   6
ENDBRANCH   1   4
BRANCH   1  15
ATOM     15  C   LIG    1       -3.793   3.548  -3.774  0.00  0.00    +0.140 C 
ATOM     16  C   LIG    1       -4.992   3.333  -2.836  0.00  0.00    +0.030 C 
ATOM     17  C   LIG    1       -5.310   2.074  -3.658  0.00  0.00    +0.010 C 
ATOM     18  C   LIG    1       -4.576   2.748  -4.829  0.00  0.00    +0.040 C 
BRANCH  15  19
ATOM     19  N   LIG    1       -2.568   2.883  -3.323  0.00  0.00    -0.710 N 
ATOM     20  H   LIG    1       -2.488   2.587  -2.403  0.00  0.00    +0.400 HD
ATOM     21  C   LIG    1       -1.553   2.683  -4.186  0.00  0.00    +0.490 C 
ATOM     22  O   LIG    1       -1.686   2.971  -5.356  0.00  0.00    -0.520 OA
BRANCH  21  23
ATOM     23  C   LIG    1       -0.251   2.103  -3.696  0.00  0.00    +0.250 C 
BRANCH  23  24
ATOM     24  C   LIG    1        0.408   3.080  -2.721  0.00  0.00    -0.080 C 
ATOM     25  C   LIG    1        1.749   2.671  -2.108  0.00  0.00    +0.040 C 
ATOM     26  C   LIG    1        1.698   3.768  -3.173  0.00  0.00    +0.030 C 
ENDBRANCH  23  24
BRANCH  23  27
ATOM     27  O   LIG    1        0.619   1.880  -4.808  0.00  0.00    -0.530 OA
ATOM     28  H   LIG    1        0.833   2.680  -5.306  0.00  0.00    +0.390 HD
ENDBRANCH  23  27
ENDBRANCH  21  23
ENDBRANCH  15  19
ENDBRANCH   1  15
TORSDOF 7
