REMARK  Name = ZINCrD0000074Svy.0
REMARK                            x       y       z     vdW  Elec       q    Type
REMARK                         _______ _______ _______ _____ _____    ______ ____
ROOT
ATOM      1  C   LIG    1       -3.325   2.869  -3.541  0.00  0.00    -0.020 C 
ATOM      2  C   LIG    1       -3.030   4.136  -4.346  0.00  0.00    +0.040 C 
ATOM      3  C   LIG    1       -2.106   5.051  -3.540  0.00  0.00    +0.020 C 
ATOM      4  C   LIG    1       -2.808   5.459  -2.236  0.00  0.00    +0.300 C 
ATOM      5  N   LIG    1       -3.219   4.241  -1.525  0.00  0.00    -1.000 NA
ATOM      6  C   LIG    1       -4.036   3.249  -2.238  0.00  0.00    +0.330 C 
ENDROOT
BRANCH   1   9
ATOM      7  N   LIG    1       -3.788   1.488  -5.540  0.00  0.00    -0.720 N 
ATOM      8  H   LIG    1       -2.915   1.742  -5.879  0.00  0.00    +0.400 HD
ATOM      9  C   LIG    1       -4.210   1.954  -4.348  0.00  0.00    +0.520 C 
ATOM     10  O   LIG    1       -5.301   1.637  -3.925  0.00  0.00    -0.530 OA
BRANCH   7  11
ATOM     11  C   LIG    1       -4.648   0.599  -6.325  0.00  0.00    +0.320 C 
BRANCH  11  18
ATOM     12  C   LIG    1       -2.633  -1.472  -6.319  0.00  0.00    +0.090 C 
ATOM     13  C   LIG    1       -2.984  -0.766  -7.603  0.00  0.00    -0.070 A 
ATOM     14  C   LIG    1       -2.342  -1.109  -8.778  0.00  0.00    +0.000 A 
ATOM     15  C   LIG    1       -2.663  -0.461  -9.956  0.00  0.00    +0.010 A 
ATOM     16  C   LIG    1       -3.627   0.529  -9.959  0.00  0.00    -0.010 A 
ATOM     17  C   LIG    1       -4.273   0.869  -8.785  0.00  0.00    +0.020 A 
ATOM     18  C   LIG    1       -3.947   0.225  -7.606  0.00  0.00    -0.110 A 
ENDBRANCH  11  18
ENDBRANCH   7  11
ENDBRANCH   1   9
BRANCH   5  19
ATOM     19  S   LIG    1       -2.776   3.993   0.051  0.00  0.00    +2.690 S 
ATOM     20  O   LIG    1       -2.511   5.276   0.600  0.00  0.00    -0.950 OA
ATOM     21  O   LIG    1       -3.730   3.094   0.599  0.00  0.00    -0.950 OA
BRANCH  19  22
ATOM     22  C   LIG    1       -1.238   3.133   0.031  0.00  0.00    -0.680 A 
ATOM     23  C   LIG    1       -1.219   1.751   0.017  0.00  0.00    +0.140 A 
ATOM     24  C   LIG    1       -0.013   1.076   0.008  0.00  0.00    +0.020 A 
ATOM     25  C   LIG    1        1.176   1.784   0.000  0.00  0.00    +0.020 A 
ATOM     26  C   LIG    1        1.156   3.167   0.008  0.00  0.00    +0.020 A 
ATOM     27 CL   LIG    1        2.691   0.937  -0.018  0.00  0.00    -0.050 Cl
ATOM     28  C   LIG    1       -0.050   3.841   0.023  0.00  0.00    +0.140 A 
ENDBRANCH  19  22
ENDBRANCH   5  19
TORSDOF 5
