REMARK  Name = ZINCtj00001UqOlJ.2
REMARK                            x       y       z     vdW  Elec       q    Type
REMARK                         _______ _______ _______ _____ _____    ______ ____
ROOT
ATOM      1  C   LIG    1       -2.826   0.545  -0.301  0.00  0.00    +0.340 C 
ENDROOT
BRANCH   1   4
ATOM      2  N   LIG    1       -5.289   0.766  -0.244  0.00  0.00    -0.660 N 
ATOM      3  H   LIG    1       -5.345  -0.203  -0.223  0.00  0.00    +0.420 HD
ATOM      4  C   LIG    1       -4.087   1.369  -0.334  0.00  0.00    +0.510 C 
ATOM      5  O   LIG    1       -4.021   2.576  -0.440  0.00  0.00    -0.520 OA
BRANCH   2   9
ATOM      6  C   LIG    1       -8.766   3.060  -0.061  0.00  0.00    +0.150 A 
ATOM      7  C   LIG    1       -7.694   3.485  -0.834  0.00  0.00    +0.000 A 
ATOM      8  C   LIG    1       -6.543   2.726  -0.895  0.00  0.00    +0.050 A 
ATOM      9  C   LIG    1       -6.457   1.536  -0.183  0.00  0.00    +0.110 A 
ATOM     10  C   LIG    1       -7.532   1.109   0.586  0.00  0.00    +0.020 A 
ATOM     11  C   LIG    1       -8.681   1.871   0.650  0.00  0.00    +0.040 A 
BRANCH   6  13
ATOM     12  C   LIG    1      -10.649   3.881   1.141  0.00  0.00    +0.510 C 
ATOM     13  N   LIG    1       -9.935   3.830  -0.001  0.00  0.00    -0.680 N 
ATOM     14  H   LIG    1      -10.229   4.327  -0.780  0.00  0.00    +0.410 HD
ATOM     15  O   LIG    1      -10.233   3.338   2.142  0.00  0.00    -0.520 OA
BRANCH  12  17
ATOM     16  C   LIG    1      -12.567   4.520   2.577  0.00  0.00    +0.050 C 
ATOM     17  C   LIG    1      -11.966   4.614   1.173  0.00  0.00    +0.060 C 
ENDBRANCH  12  17
ENDBRANCH   6  13
ENDBRANCH   2   9
ENDBRANCH   1   4
BRANCH   1  18
ATOM     18  N   LIG    1       -1.663   1.428  -0.414  0.00  0.00    -0.690 N 
ATOM     19  H   LIG    1       -1.787   2.387  -0.493  0.00  0.00    +0.420 HD
ATOM     20  C   LIG    1       -0.419   0.909  -0.408  0.00  0.00    +0.510 C 
ATOM     21  O   LIG    1       -0.263  -0.290  -0.309  0.00  0.00    -0.530 OA
BRANCH  20  22
ATOM     22  C   LIG    1        0.777   1.817  -0.529  0.00  0.00    +0.290 C 
BRANCH  22  23
ATOM     23  N   LIG    1        2.007   1.013  -0.503  0.00  0.00    -0.370 N 
ATOM     24  C   LIG    1        2.052   0.149  -1.691  0.00  0.00    +0.330 C 
ATOM     25  H   LIG    1        2.018   0.442   0.329  0.00  0.00    +0.440 HD
BRANCH  23  26
ATOM     26  C   LIG    1        3.175   1.904  -0.502  0.00  0.00    +0.260 C 
BRANCH  26  27
ATOM     27  C   LIG    1        3.208   2.698   0.806  0.00  0.00    +0.210 C 
BRANCH  27  28
ATOM     28  O   LIG    1        3.327   1.796   1.908  0.00  0.00    -0.540 OA
ATOM     29  H   LIG    1        4.124   1.250   1.885  0.00  0.00    +0.400 HD
ENDBRANCH  27  28
BRANCH  27  30
ATOM     30  C   LIG    1        4.407   3.649   0.794  0.00  0.00    +0.060 C 
BRANCH  30  31
ATOM     31  C   LIG    1        4.370   4.530   2.045  0.00  0.00    +0.460 C 
ATOM     32  F   LIG    1        3.185   5.274   2.057  0.00  0.00    -0.180 F 
ATOM     33  F   LIG    1        5.466   5.400   2.034  0.00  0.00    -0.170 F 
ATOM     34  F   LIG    1        4.427   3.723   3.186  0.00  0.00    -0.170 F 
ENDBRANCH  30  31
ENDBRANCH  27  30
ENDBRANCH  26  27
ENDBRANCH  23  26
ENDBRANCH  22  23
ENDBRANCH  20  22
ENDBRANCH   1  18
TORSDOF 12
