REMARK  Name = ZINCtj00001UqOlJ.1
REMARK                            x       y       z     vdW  Elec       q    Type
REMARK                         _______ _______ _______ _____ _____    ______ ____
ROOT
ATOM      1  C   LIG    1        2.913  -6.265   5.203  0.00  0.00    +0.340 C 
ENDROOT
BRANCH   1   4
ATOM      2  N   LIG    1        3.531  -8.442   6.202  0.00  0.00    -0.660 N 
ATOM      3  H   LIG    1        4.019  -7.956   6.886  0.00  0.00    +0.420 HD
ATOM      4  C   LIG    1        2.924  -7.772   5.203  0.00  0.00    +0.510 C 
ATOM      5  O   LIG    1        2.385  -8.383   4.303  0.00  0.00    -0.520 OA
BRANCH   2   9
ATOM      6  C   LIG    1        3.316 -12.603   6.357  0.00  0.00    +0.140 A 
ATOM      7  C   LIG    1        3.386 -11.957   5.130  0.00  0.00    +0.000 A 
ATOM      8  C   LIG    1        3.457 -10.579   5.079  0.00  0.00    +0.040 A 
ATOM      9  C   LIG    1        3.459  -9.840   6.254  0.00  0.00    +0.110 A 
ATOM     10  C   LIG    1        3.394 -10.486   7.481  0.00  0.00    +0.010 A 
ATOM     11  C   LIG    1        3.318 -11.864   7.533  0.00  0.00    +0.050 A 
BRANCH   6  13
ATOM     12  C   LIG    1        2.513 -14.603   7.368  0.00  0.00    +0.510 C 
ATOM     13  N   LIG    1        3.245 -14.001   6.409  0.00  0.00    -0.680 N 
ATOM     14  H   LIG    1        3.722 -14.536   5.755  0.00  0.00    +0.410 HD
ATOM     15  O   LIG    1        1.986 -13.939   8.235  0.00  0.00    -0.520 OA
BRANCH  12  17
ATOM     16  C   LIG    1        1.482 -16.525   8.548  0.00  0.00    +0.050 C 
ATOM     17  C   LIG    1        2.351 -16.102   7.362  0.00  0.00    +0.060 C 
ENDBRANCH  12  17
ENDBRANCH   6  13
ENDBRANCH   2   9
ENDBRANCH   1   4
BRANCH   1  18
ATOM     18  N   LIG    1        2.196  -5.782   4.021  0.00  0.00    -0.690 N 
ATOM     19  H   LIG    1        1.819  -6.415   3.389  0.00  0.00    +0.420 HD
ATOM     20  C   LIG    1        2.059  -4.458   3.810  0.00  0.00    +0.510 C 
ATOM     21  O   LIG    1        2.529  -3.666   4.599  0.00  0.00    -0.520 OA
BRANCH  20  22
ATOM     22  C   LIG    1        1.321  -3.961   2.593  0.00  0.00    +0.290 C 
BRANCH  22  23
ATOM     23  N   LIG    1        1.311  -2.492   2.593  0.00  0.00    -0.370 N 
ATOM     24  C   LIG    1        0.535  -2.008   3.743  0.00  0.00    +0.320 C 
ATOM     25  H   LIG    1        2.257  -2.148   2.658  0.00  0.00    +0.440 HD
BRANCH  23  26
ATOM     26  C   LIG    1        0.698  -2.006   1.350  0.00  0.00    +0.250 C 
BRANCH  26  27
ATOM     27  C   LIG    1        0.799  -0.481   1.293  0.00  0.00    +0.220 C 
BRANCH  27  28
ATOM     28  O   LIG    1        2.173  -0.097   1.212  0.00  0.00    -0.540 OA
ATOM     29  H   LIG    1        2.633  -0.443   0.435  0.00  0.00    +0.390 HD
ENDBRANCH  27  28
BRANCH  27  30
ATOM     30  C   LIG    1        0.052   0.034   0.061  0.00  0.00    +0.060 C 
BRANCH  30  31
ATOM     31  C   LIG    1        0.046   1.564   0.070  0.00  0.00    +0.460 C 
ATOM     32  F   LIG    1       -0.593   2.021   1.228  0.00  0.00    -0.180 F 
ATOM     33  F   LIG    1       -0.636   2.035  -1.056  0.00  0.00    -0.170 F 
ATOM     34  F   LIG    1        1.363   2.036   0.049  0.00  0.00    -0.170 F 
ENDBRANCH  30  31
ENDBRANCH  27  30
ENDBRANCH  26  27
ENDBRANCH  23  26
ENDBRANCH  22  23
ENDBRANCH  20  22
ENDBRANCH   1  18
TORSDOF 12
