REMARK  Name = ZINCqH0000008qt8.0
REMARK                            x       y       z     vdW  Elec       q    Type
REMARK                         _______ _______ _______ _____ _____    ______ ____
ROOT
ATOM      1  C   LIG    1        1.759   2.239   1.434  0.00  0.00    +0.060 C 
ATOM      2  C   LIG    1        1.242   2.093   0.001  0.00  0.00    +0.250 C 
ENDROOT
BRANCH   2   3
ATOM      3  C   LIG    1        1.009   3.460  -0.590  0.00  0.00    +0.520 C 
ATOM      4  N   LIG    1        2.033   4.330  -0.699  0.00  0.00    -0.720 N 
ATOM      5  H   LIG    1        2.919   4.077  -0.397  0.00  0.00    +0.410 HD
ATOM      6  O   LIG    1       -0.099   3.776  -0.967  0.00  0.00    -0.530 OA
BRANCH   4   7
ATOM      7  C   LIG    1        1.806   5.659  -1.273  0.00  0.00    +0.430 C 
BRANCH   7   8
ATOM      8  C   LIG    1        3.101   6.430  -1.281  0.00  0.00    +0.150 A 
ATOM      9  N   LIG    1        3.975   6.434  -2.247  0.00  0.00    -0.450 NA
ATOM     10  C   LIG    1        4.996   7.237  -1.900  0.00  0.00    +0.150 A 
ATOM     11  C   LIG    1        4.733   7.728  -0.678  0.00  0.00    -0.010 A 
ATOM     12  O   LIG    1        3.545   7.219  -0.294  0.00  0.00    -0.190 OA
BRANCH  11  13
ATOM     13  C   LIG    1        5.602   8.668   0.116  0.00  0.00    +0.020 C 
ATOM     14  C   LIG    1        6.963   8.017   0.367  0.00  0.00    +0.050 C 
ATOM     15  C   LIG    1        4.930   8.976   1.456  0.00  0.00    +0.040 C 
ATOM     16  C   LIG    1        5.795   9.968  -0.668  0.00  0.00    +0.050 C 
ENDBRANCH  11  13
ENDBRANCH   7   8
ENDBRANCH   4   7
ENDBRANCH   2   3
BRANCH   2  17
ATOM     17  N   LIG    1       -0.016   1.344   0.009  0.00  0.00    -0.710 N 
ATOM     18  H   LIG    1       -0.863   1.817   0.016  0.00  0.00    +0.410 HD
ATOM     19  C   LIG    1        0.002  -0.004   0.002  0.00  0.00    +0.560 C 
ATOM     20  O   LIG    1        1.063  -0.598  -0.011  0.00  0.00    -0.510 OA
BRANCH  19  21
ATOM     21  C   LIG    1       -1.268  -0.760   0.010  0.00  0.00    -0.120 A 
ATOM     22  C   LIG    1       -2.487  -0.082   0.031  0.00  0.00    +0.070 A 
ATOM     23  C   LIG    1       -3.669  -0.793   0.034  0.00  0.00    +0.040 A 
ATOM     24  C   LIG    1       -3.649  -2.177   0.027  0.00  0.00    +0.080 A 
ATOM     25  C   LIG    1       -2.444  -2.857   0.011  0.00  0.00    -0.040 A 
ATOM     26 CL   LIG    1       -2.429  -4.593   0.001  0.00  0.00    -0.040 Cl
ATOM     27  C   LIG    1       -1.252  -2.157   0.002  0.00  0.00    +0.020 A 
ATOM     28 CL   LIG    1        0.259  -3.011  -0.018  0.00  0.00    -0.010 Cl
ENDBRANCH  19  21
ENDBRANCH   2  17
TORSDOF 6
