REMARK  Name = ZINCvU00000003Wl.0
REMARK                            x       y       z     vdW  Elec       q    Type
REMARK                         _______ _______ _______ _____ _____    ______ ____
ROOT
ATOM      1  N   LIG    1        3.348   1.677  -1.558  0.00  0.00    -0.620 N 
ATOM      2  C   LIG    1        2.075   1.299  -1.323  0.00  0.00    +0.510 C 
ATOM      3  O   LIG    1        1.454   0.700  -2.176  0.00  0.00    -0.510 OA
ATOM      4  C   LIG    1        4.098   2.400  -0.528  0.00  0.00    +0.280 C 
ENDROOT
BRANCH   2   5
ATOM      5  C   LIG    1        1.425   1.621  -0.003  0.00  0.00    +0.000 C 
ATOM      6  C   LIG    1        2.199   0.951   1.134  0.00  0.00    +0.080 C 
ATOM      7  C   LIG    1        1.422   1.043   2.414  0.00  0.00    -0.040 C 
ATOM      8  C   LIG    1        0.157   1.314   2.477  0.00  0.00    -0.040 C 
ATOM      9  C   LIG    1       -0.705   1.584   1.278  0.00  0.00    +0.080 C 
ATOM     10  C   LIG    1       -0.013   1.086   0.008  0.00  0.00    +0.110 C 
BRANCH  10  11
ATOM     11  C   LIG    1       -0.750   1.589  -1.206  0.00  0.00    +0.120 A 
ATOM     12  N   LIG    1       -1.271   0.833  -2.096  0.00  0.00    -0.440 NA
ATOM     13  C   LIG    1       -1.902   1.421  -3.131  0.00  0.00    +0.090 A 
ATOM     14  C   LIG    1       -2.555   0.838  -4.235  0.00  0.00    +0.070 A 
ATOM     15  C   LIG    1       -3.138   1.623  -5.184  0.00  0.00    +0.020 A 
ATOM     16  C   LIG    1       -3.101   3.006  -5.083  0.00  0.00    +0.030 A 
ATOM     17  C   LIG    1       -2.469   3.603  -4.014  0.00  0.00    +0.060 A 
ATOM     18  C   LIG    1       -1.868   2.817  -3.035  0.00  0.00    -0.180 A 
ATOM     19  S   LIG    1       -1.000   3.239  -1.562  0.00  0.00    +0.070 S 
ENDBRANCH  10  11
ENDBRANCH   2   5
BRANCH   1  20
ATOM     20  C   LIG    1        3.980   1.363  -2.842  0.00  0.00    +0.290 C 
BRANCH  20  21
ATOM     21  C   LIG    1        3.730   2.508  -3.826  0.00  0.00    +0.060 C 
BRANCH  21  25
ATOM     22  C   LIG    1        5.571   1.591  -7.575  0.00  0.00    +0.100 A 
ATOM     23  C   LIG    1        4.263   1.205  -7.330  0.00  0.00    -0.030 A 
ATOM     24  C   LIG    1        3.670   1.503  -6.117  0.00  0.00    +0.020 A 
ATOM     25  C   LIG    1        4.380   2.186  -5.147  0.00  0.00    -0.080 A 
ATOM     26  C   LIG    1        5.684   2.579  -5.388  0.00  0.00    -0.040 A 
ATOM     27  C   LIG    1        6.285   2.278  -6.599  0.00  0.00    +0.100 A 
BRANCH  22  29
ATOM     28  C   LIG    1        5.362   0.589  -9.723  0.00  0.00    +0.250 C 
ATOM     29  O   LIG    1        6.155   1.298  -8.768  0.00  0.00    -0.310 OA
ENDBRANCH  22  29
BRANCH  27  30
ATOM     30  O   LIG    1        7.569   2.659  -6.835  0.00  0.00    -0.310 OA
ATOM     31  C   LIG    1        8.241   3.361  -5.787  0.00  0.00    +0.230 C 
ENDBRANCH  27  30
ENDBRANCH  21  25
ENDBRANCH  20  21
ENDBRANCH   1  20
TORSDOF 7
