REMARK  Name = ZINCkj000005mkVr.0
REMARK                            x       y       z     vdW  Elec       q    Type
REMARK                         _______ _______ _______ _____ _____    ______ ____
ROOT
ATOM      1  N   LIG    1       -2.935   1.857  -0.030  0.00  0.00    -0.530 NA
ATOM      2  C   LIG    1       -2.333   1.612  -1.346  0.00  0.00    +0.210 C 
ATOM      3  C   LIG    1       -0.994   2.347  -1.441  0.00  0.00    +0.050 C 
ATOM      4  C   LIG    1       -0.063   1.848  -0.333  0.00  0.00    +0.150 C 
ATOM      5  C   LIG    1       -0.733   2.071   1.026  0.00  0.00    +0.050 C 
ATOM      6  C   LIG    1       -2.081   1.343   1.049  0.00  0.00    +0.190 C 
ENDROOT
BRANCH   4   7
ATOM      7  N   LIG    1        1.203   2.591  -0.383  0.00  0.00    -0.380 N 
ATOM      8  C   LIG    1        1.840   2.382  -1.689  0.00  0.00    +0.250 C 
ATOM      9  C   LIG    1        3.118   3.219  -1.777  0.00  0.00    +0.050 C 
ATOM     10  C   LIG    1        4.079   2.790  -0.665  0.00  0.00    +0.030 C 
ATOM     11  C   LIG    1        3.379   2.941   0.688  0.00  0.00    +0.050 C 
ATOM     12  C   LIG    1        2.091   2.115   0.685  0.00  0.00    +0.250 C 
ATOM     13  H   LIG    1        1.020   3.575  -0.253  0.00  0.00    +0.420 HD
ENDBRANCH   4   7
BRANCH   1  14
ATOM     14  C   LIG    1       -4.284   1.280   0.048  0.00  0.00    +0.160 C 
BRANCH  14  15
ATOM     15  C   LIG    1       -4.840   1.472   1.460  0.00  0.00    +0.220 C 
BRANCH  15  16
ATOM     16  C   LIG    1       -6.256   0.896   1.532  0.00  0.00    -0.070 C 
ATOM     17  C   LIG    1       -6.842   1.077   2.950  0.00  0.00    +0.020 C 
ATOM     18  C   LIG    1       -8.085   1.969   2.732  0.00  0.00    +0.190 C 
ATOM     19  O   LIG    1       -8.459   1.749   1.355  0.00  0.00    -0.370 OA
ATOM     20  C   LIG    1       -7.214   1.700   0.625  0.00  0.00    +0.200 C 
ENDBRANCH  15  16
BRANCH  15  21
ATOM     21  O   LIG    1       -4.876   2.866   1.772  0.00  0.00    -0.550 OA
ATOM     22  H   LIG    1       -5.428   3.389   1.175  0.00  0.00    +0.380 HD
ENDBRANCH  15  21
ENDBRANCH  14  15
ENDBRANCH   1  14
TORSDOF 5
