REMARK  Name = ZINCrD00000F5LkZ.2
REMARK                            x       y       z     vdW  Elec       q    Type
REMARK                         _______ _______ _______ _____ _____    ______ ____
ROOT
ATOM      1  C   LIG    1        3.796   1.167  -0.585  0.00  0.00    +0.030 C 
ATOM      2  C   LIG    1        2.555   0.892   0.267  0.00  0.00    +0.020 C 
ATOM      3  C   LIG    1        1.853  -0.415  -0.180  0.00  0.00    +0.200 C 
ATOM      4  N   LIG    1        0.446  -0.251   0.240  0.00  0.00    -0.520 NA
ATOM      5  C   LIG    1        0.153   1.190   0.347  0.00  0.00    +0.200 C 
ATOM      6  C   LIG    1        1.451   1.948  -0.002  0.00  0.00    -0.030 C 
ENDROOT
BRANCH   6   7
ATOM      7  C   LIG    1        1.628   3.144   0.897  0.00  0.00    +0.530 C 
ATOM      8  N   LIG    1        1.037   4.315   0.585  0.00  0.00    -0.620 N 
ATOM      9  C   LIG    1        1.278   5.523   1.389  0.00  0.00    +0.260 C 
ATOM     10  C   LIG    1        1.665   6.664   0.435  0.00  0.00    +0.220 C 
ATOM     11  O   LIG    1        0.676   6.773  -0.592  0.00  0.00    -0.380 OA
ATOM     12  C   LIG    1        0.564   5.614  -1.421  0.00  0.00    +0.220 C 
ATOM     13  C   LIG    1        0.126   4.420  -0.565  0.00  0.00    +0.240 C 
ATOM     14  O   LIG    1        2.302   3.054   1.901  0.00  0.00    -0.530 OA
ENDBRANCH   6   7
BRANCH   4  15
ATOM     15  C   LIG    1       -0.467  -0.905  -0.707  0.00  0.00    +0.260 C 
BRANCH  15  16
ATOM     16  C   LIG    1        0.011  -2.309  -0.977  0.00  0.00    +0.060 A 
ATOM     17  C   LIG    1       -0.460  -3.361  -0.300  0.00  0.00    -0.070 A 
ATOM     18  S   LIG    1        0.339  -4.810  -0.908  0.00  0.00    +0.150 S 
ATOM     19  C   LIG    1        1.260  -3.821  -2.039  0.00  0.00    +0.090 A 
ATOM     20  N   LIG    1        0.919  -2.573  -1.887  0.00  0.00    -0.450 NA
BRANCH  19  21
ATOM     21  C   LIG    1        2.259  -4.327  -3.004  0.00  0.00    -0.010 A 
ATOM     22  C   LIG    1        2.922  -3.442  -3.855  0.00  0.00    +0.080 A 
ATOM     23  C   LIG    1        3.857  -3.919  -4.750  0.00  0.00    +0.030 A 
ATOM     24  C   LIG    1        4.131  -5.274  -4.813  0.00  0.00    +0.050 A 
ATOM     25  C   LIG    1        3.473  -6.158  -3.977  0.00  0.00    +0.040 A 
ATOM     26  C   LIG    1        2.539  -5.693  -3.073  0.00  0.00    -0.030 A 
ATOM     27 CL   LIG    1        1.714  -6.804  -2.025  0.00  0.00    -0.030 Cl
ENDBRANCH  19  21
ENDBRANCH  15  16
ENDBRANCH   4  15
TORSDOF 4
