REMARK  Name = ZINCrD00000cC7ay.0
REMARK                            x       y       z     vdW  Elec       q    Type
REMARK                         _______ _______ _______ _____ _____    ______ ____
ROOT
ATOM      1  C   LIG    1       -3.597   2.785  -1.919  0.00  0.00    +0.270 C 
ENDROOT
BRANCH   1   2
ATOM      2  N   LIG    1       -4.739   3.640  -2.253  0.00  0.00    -0.620 N 
ATOM      3  C   LIG    1       -4.601   4.981  -2.247  0.00  0.00    +0.520 C 
ATOM      4  O   LIG    1       -3.532   5.479  -1.964  0.00  0.00    -0.520 OA
ATOM      5  C   LIG    1       -6.030   3.038  -2.594  0.00  0.00    +0.280 C 
BRANCH   3   6
ATOM      6  C   LIG    1       -5.775   5.860  -2.590  0.00  0.00    +0.000 C 
ATOM      7  C   LIG    1       -6.912   5.647  -1.569  0.00  0.00    +0.060 C 
ATOM      8  C   LIG    1       -7.520   7.060  -1.379  0.00  0.00    +0.060 C 
ATOM      9  C   LIG    1       -6.274   7.978  -1.419  0.00  0.00    -0.020 C 
ATOM     10  C   LIG    1       -5.370   7.342  -2.495  0.00  0.00    +0.080 C 
BRANCH   9  11
ATOM     11  C   LIG    1       -6.669   9.400  -1.824  0.00  0.00    +0.460 C 
ATOM     12  F   LIG    1       -5.517  10.180  -1.970  0.00  0.00    -0.180 F 
ATOM     13  F   LIG    1       -7.487   9.956  -0.835  0.00  0.00    -0.180 F 
ATOM     14  F   LIG    1       -7.364   9.363  -3.038  0.00  0.00    -0.180 F 
ENDBRANCH   9  11
ENDBRANCH   3   6
ENDBRANCH   1   2
BRANCH   1  15
ATOM     15  C   LIG    1       -3.582   2.520  -0.412  0.00  0.00    +0.270 C 
BRANCH  15  17
ATOM     16  C   LIG    1       -1.252   2.219   0.236  0.00  0.00    +0.600 C 
ATOM     17  N   LIG    1       -2.440   1.665  -0.078  0.00  0.00    -0.600 N 
ATOM     18  C   LIG    1       -2.590   0.208  -0.085  0.00  0.00    +0.300 C 
ATOM     19  O   LIG    1       -1.147   3.428   0.314  0.00  0.00    -0.520 OA
BRANCH  16  21
ATOM     20  C   LIG    1        1.197   1.776   0.700  0.00  0.00    +0.060 A 
ATOM     21  C   LIG    1       -0.080   1.359   0.483  0.00  0.00    -0.080 A 
ATOM     22  N   LIG    1       -0.071  -0.000   0.533  0.00  0.00    -0.460 NA
ATOM     23  C   LIG    1        1.144  -0.396   0.766  0.00  0.00    +0.430 A 
ATOM     24  O   LIG    1        1.944   0.674   0.874  0.00  0.00    -0.190 OA
BRANCH  20  26
ATOM     25  C   LIG    1        2.293   3.498   2.108  0.00  0.00    +0.040 C 
ATOM     26  C   LIG    1        1.681   3.203   0.737  0.00  0.00    +0.100 C 
ATOM     27  C   LIG    1        2.737   3.412  -0.349  0.00  0.00    +0.040 C 
ENDBRANCH  20  26
ENDBRANCH  16  21
ENDBRANCH  15  17
ENDBRANCH   1  15
TORSDOF 7
