REMARK  Name = ZINCpk000000mTWi.0
REMARK                            x       y       z     vdW  Elec       q    Type
REMARK                         _______ _______ _______ _____ _____    ______ ____
ROOT
ATOM      1  C   LIG    1        2.421   6.189   1.241  0.00  0.00    +0.510 C 
ATOM      2  N   LIG    1        2.478   5.634   0.014  0.00  0.00    -0.720 N 
ATOM      3  H   LIG    1        2.434   6.196  -0.775  0.00  0.00    +0.410 HD
ATOM      4  O   LIG    1        2.476   5.487   2.228  0.00  0.00    -0.530 OA
ENDROOT
BRANCH   2   5
ATOM      5  C   LIG    1        2.609   4.181  -0.127  0.00  0.00    +0.290 C 
ATOM      6  C   LIG    1        3.235   3.850  -1.483  0.00  0.00    +0.040 C 
ATOM      7  C   LIG    1        3.942   2.510  -1.441  0.00  0.00    -0.060 C 
ATOM      8  C   LIG    1        3.018   1.318  -1.289  0.00  0.00    +0.040 C 
ATOM      9  C   LIG    1        2.362   1.308   0.093  0.00  0.00    +0.060 C 
ATOM     10  C   LIG    1        1.122   2.177   0.042  0.00  0.00    -0.070 A 
ATOM     11  C   LIG    1       -0.127   1.585   0.102  0.00  0.00    +0.000 A 
ATOM     12  C   LIG    1       -1.261   2.376   0.051  0.00  0.00    +0.000 A 
ATOM     13  C   LIG    1       -1.143   3.750  -0.047  0.00  0.00    +0.000 A 
ATOM     14  C   LIG    1        0.109   4.335  -0.107  0.00  0.00    +0.010 A 
ATOM     15  C   LIG    1        4.921   2.514  -0.265  0.00  0.00    +0.020 C 
ATOM     16  C   LIG    1        4.742   2.342  -2.735  0.00  0.00    +0.040 C 
ATOM     17  C   LIG    1        1.239   3.538  -0.061  0.00  0.00    -0.090 A 
ENDBRANCH   2   5
BRANCH   1  18
ATOM     18  C   LIG    1        2.286   7.683   1.386  0.00  0.00    +0.300 C 
BRANCH  18  20
ATOM     19  C   LIG    1        2.128   9.324   3.180  0.00  0.00    +0.520 C 
ATOM     20  N   LIG    1        2.245   8.034   2.808  0.00  0.00    -0.710 N 
ATOM     21  H   LIG    1        2.303   7.338   3.481  0.00  0.00    +0.420 HD
ATOM     22  O   LIG    1        2.056  10.194   2.338  0.00  0.00    -0.540 OA
BRANCH  19  23
ATOM     23  C   LIG    1        2.086   9.685   4.643  0.00  0.00    +0.300 C 
BRANCH  23  26
ATOM     24  C   LIG    1        1.763  13.187   6.155  0.00  0.00    +0.110 C 
ATOM     25  C   LIG    1        1.897  11.693   6.010  0.00  0.00    +0.510 C 
ATOM     26  N   LIG    1        1.955  11.138   4.783  0.00  0.00    -0.720 N 
ATOM     27  H   LIG    1        1.911  11.700   3.994  0.00  0.00    +0.410 HD
ATOM     28  O   LIG    1        1.953  10.991   6.997  0.00  0.00    -0.550 OA
ENDBRANCH  23  26
ENDBRANCH  19  23
ENDBRANCH  18  20
ENDBRANCH   1  18
TORSDOF 5
