REMARK  Name = ZINCtj00000rgITG.0
REMARK                            x       y       z     vdW  Elec       q    Type
REMARK                         _______ _______ _______ _____ _____    ______ ____
ROOT
ATOM      1  C   LIG    1        4.089   5.715   0.549  0.00  0.00    +0.100 C 
ATOM      2  C   LIG    1        4.671   5.776   1.963  0.00  0.00    +0.040 C 
ATOM      3  C   LIG    1        4.516   7.059   1.143  0.00  0.00    +0.050 C 
ENDROOT
BRANCH   1   4
ATOM      4  N   LIG    1        2.653   5.458   0.419  0.00  0.00    -0.700 N 
ATOM      5  H   LIG    1        2.187   4.952   1.103  0.00  0.00    +0.400 HD
ATOM      6  C   LIG    1        1.979   5.924  -0.651  0.00  0.00    +0.560 C 
ATOM      7  O   LIG    1        2.541   6.636  -1.460  0.00  0.00    -0.510 OA
BRANCH   6   8
ATOM      8  C   LIG    1        0.558   5.569  -0.841  0.00  0.00    -0.180 A 
ATOM      9  C   LIG    1       -0.088   4.752   0.085  0.00  0.00    +0.150 A 
ATOM     10  C   LIG    1       -1.428   4.421  -0.102  0.00  0.00    -0.160 A 
ATOM     11  C   LIG    1       -2.120   4.914  -1.212  0.00  0.00    +0.120 A 
ATOM     12  C   LIG    1       -1.476   5.718  -2.129  0.00  0.00    -0.020 A 
ATOM     13  C   LIG    1       -0.144   6.051  -1.952  0.00  0.00    +0.190 A 
ATOM     14  F   LIG    1        0.479   6.843  -2.852  0.00  0.00    -0.110 F 
BRANCH  10  15
ATOM     15  C   LIG    1       -2.119   3.555   0.875  0.00  0.00    +0.570 C 
ATOM     16  O   LIG    1       -1.518   3.131   1.843  0.00  0.00    -0.530 OA
ATOM     17  N   LIG    1       -3.416   3.236   0.694  0.00  0.00    -0.850 N 
ATOM     18  H   LIG    1       -3.870   2.667   1.336  0.00  0.00    +0.410 HD
ATOM     19  H   LIG    1       -3.896   3.575  -0.078  0.00  0.00    +0.400 HD
ENDBRANCH  10  15
ENDBRANCH   6   8
ENDBRANCH   1   4
BRANCH   1  20
ATOM     20  C   LIG    1        4.969   5.118  -0.551  0.00  0.00    +0.080 C 
BRANCH  20  21
ATOM     21  C   LIG    1        4.755   3.605  -0.611  0.00  0.00    +0.260 C 
BRANCH  21  23
ATOM     22  C   LIG    1        5.494   1.720  -1.967  0.00  0.00    +0.540 C 
ATOM     23  N   LIG    1        5.529   3.045  -1.721  0.00  0.00    -0.720 N 
ATOM     24  H   LIG    1        6.067   3.628  -2.280  0.00  0.00    +0.410 HD
ATOM     25  O   LIG    1        4.820   0.990  -1.267  0.00  0.00    -0.540 OA
BRANCH  22  32
ATOM     26  C   LIG    1        4.779  -3.229  -5.935  0.00  0.00    +0.310 C 
ATOM     27  N   LIG    1        5.365  -2.420  -4.858  0.00  0.00    -0.390 N 
ATOM     28  C   LIG    1        6.410  -1.552  -5.416  0.00  0.00    +0.260 C 
ATOM     29  C   LIG    1        7.140  -0.834  -4.276  0.00  0.00    +0.120 C 
ATOM     30  C   LIG    1        6.108  -0.114  -3.432  0.00  0.00    -0.090 C 
ATOM     31  C   LIG    1        4.887  -0.897  -2.996  0.00  0.00    +0.120 C 
ATOM     32  C   LIG    1        6.272   1.159  -3.083  0.00  0.00    -0.030 C 
ATOM     33  C   LIG    1        4.314  -1.609  -4.232  0.00  0.00    +0.270 C 
ATOM     34  H   LIG    1        5.772  -3.031  -4.167  0.00  0.00    +0.430 HD
ENDBRANCH  22  32
ENDBRANCH  21  23
ENDBRANCH  20  21
ENDBRANCH   1  20
TORSDOF 7
