REMARK  Name = ZINCrD00000eO5nL.0
REMARK                            x       y       z     vdW  Elec       q    Type
REMARK                         _______ _______ _______ _____ _____    ______ ____
ROOT
ATOM      1  C   LIG    1       -7.113   2.933   0.297  0.00  0.00    +0.380 A 
ATOM      2  N   LIG    1       -7.101   1.738  -0.250  0.00  0.00    -0.310 NA
ATOM      3  N   LIG    1       -5.903   1.276  -0.278  0.00  0.00    -0.240 NA
ATOM      4  C   LIG    1       -5.075   2.145   0.260  0.00  0.00    +0.240 A 
ATOM      5  N   LIG    1       -5.827   3.235   0.640  0.00  0.00    -0.480 N 
ATOM      6  C   LIG    1       -5.346   4.462   1.280  0.00  0.00    +0.360 C 
ENDROOT
BRANCH   4   7
ATOM      7  C   LIG    1       -3.621   1.986   0.418  0.00  0.00    +0.090 A 
ATOM      8  C   LIG    1       -2.947   0.813   0.307  0.00  0.00    +0.040 A 
ATOM      9  C   LIG    1       -1.537   1.132   0.540  0.00  0.00    -0.130 A 
ATOM     10  C   LIG    1       -0.361   0.381   0.563  0.00  0.00    +0.070 A 
ATOM     11  C   LIG    1        0.833   0.999   0.814  0.00  0.00    +0.000 A 
ATOM     12  C   LIG    1        0.881   2.365   1.050  0.00  0.00    +0.060 A 
ATOM     13  C   LIG    1       -0.272   3.123   1.036  0.00  0.00    +0.020 A 
ATOM     14  C   LIG    1       -1.495   2.517   0.783  0.00  0.00    +0.060 A 
ATOM     15  O   LIG    1       -2.759   2.982   0.707  0.00  0.00    -0.190 OA
ENDBRANCH   4   7
BRANCH   1  19
ATOM     16  C   LIG    1      -11.917   3.303  -0.255  0.00  0.00    +0.050 C 
ATOM     17  C   LIG    1      -10.652   3.965   0.295  0.00  0.00    +0.140 C 
ATOM     18  C   LIG    1       -9.440   3.080  -0.006  0.00  0.00    +0.250 C 
ATOM     19  N   LIG    1       -8.222   3.737   0.489  0.00  0.00    -0.450 N 
ATOM     20  C   LIG    1       -8.039   5.049  -0.148  0.00  0.00    +0.200 C 
ATOM     21  C   LIG    1       -9.251   5.933   0.154  0.00  0.00    +0.210 C 
ATOM     22  N   LIG    1      -10.469   5.277  -0.342  0.00  0.00    -0.520 NA
BRANCH  22  23
ATOM     23  C   LIG    1      -11.647   6.130  -0.138  0.00  0.00    +0.270 C 
BRANCH  23  24
ATOM     24  C   LIG    1      -11.639   6.678   1.291  0.00  0.00    +0.410 C 
ATOM     25  F   LIG    1      -11.521   5.618   2.196  0.00  0.00    -0.180 F 
ATOM     26  F   LIG    1      -12.833   7.366   1.532  0.00  0.00    -0.180 F 
ATOM     27  F   LIG    1      -10.557   7.550   1.450  0.00  0.00    -0.180 F 
ENDBRANCH  23  24
ENDBRANCH  22  23
ENDBRANCH   1  19
TORSDOF 4
