REMARK  Name = ZINCpk00000eaIyj.0
REMARK                            x       y       z     vdW  Elec       q    Type
REMARK                         _______ _______ _______ _____ _____    ______ ____
ROOT
ATOM      1  S   LIG    1        3.212   2.350   5.694  0.00  0.00    +2.700 S 
ATOM      2  O   LIG    1        2.172   3.175   6.201  0.00  0.00    -0.950 OA
ATOM      3  O   LIG    1        4.589   2.681   5.803  0.00  0.00    -0.950 OA
ENDROOT
BRANCH   1   9
ATOM      4  C   LIG    1       -0.172   2.187  -1.192  0.00  0.00    +0.070 C 
ATOM      5  C   LIG    1        0.484   1.512   0.014  0.00  0.00    +0.160 C 
ATOM      6  C   LIG    1        0.071   2.212   1.330  0.00  0.00    +0.090 C 
ATOM      7  C   LIG    1        1.347   2.123   2.146  0.00  0.00    -0.200 A 
ATOM      8  C   LIG    1        1.598   2.290   3.489  0.00  0.00    +0.170 A 
ATOM      9  C   LIG    1        2.885   2.137   3.976  0.00  0.00    -0.710 A 
ATOM     10  C   LIG    1        3.913   1.817   3.109  0.00  0.00    +0.170 A 
ATOM     11  C   LIG    1        3.663   1.652   1.762  0.00  0.00    -0.020 A 
ATOM     12  C   LIG    1        2.372   1.807   1.264  0.00  0.00    +0.170 A 
ATOM     13  O   LIG    1        1.910   1.698  -0.012  0.00  0.00    -0.300 OA
ENDBRANCH   1   9
BRANCH   1  14
ATOM     14  N   LIG    1        3.028   0.870   6.415  0.00  0.00    -1.000 NA
ATOM     15  C   LIG    1        4.165  -0.054   6.542  0.00  0.00    +0.300 C 
ATOM     16  C   LIG    1        4.261  -0.510   8.002  0.00  0.00    +0.180 C 
ATOM     17  N   LIG    1        2.966  -1.056   8.427  0.00  0.00    -0.520 NA
ATOM     18  C   LIG    1        1.915  -0.030   8.388  0.00  0.00    +0.230 C 
ATOM     19  C   LIG    1        3.062  -1.661   9.762  0.00  0.00    +0.200 C 
ATOM     20  C   LIG    1        1.725   0.447   6.949  0.00  0.00    +0.330 C 
BRANCH  18  21
ATOM     21  C   LIG    1        0.624  -0.613   8.902  0.00  0.00    +0.210 A 
ATOM     22  N   LIG    1       -0.038  -1.595   8.355  0.00  0.00    -0.460 NA
ATOM     23  C   LIG    1       -1.137  -1.847   9.081  0.00  0.00    +0.140 A 
ATOM     24  C   LIG    1       -1.157  -0.988  10.118  0.00  0.00    +0.130 A 
ATOM     25  N   LIG    1       -0.037  -0.208  10.008  0.00  0.00    -0.570 N 
ATOM     26  H   LIG    1        0.231   0.503  10.611  0.00  0.00    +0.420 HD
ENDBRANCH  18  21
ENDBRANCH   1  14
TORSDOF 3
