REMARK  Name = ZINCvU0000000Be5.0
REMARK                            x       y       z     vdW  Elec       q    Type
REMARK                         _______ _______ _______ _____ _____    ______ ____
ROOT
ATOM      1  C   LIG    1        5.098   0.937  -0.071  0.00  0.00    +0.010 C 
ATOM      2  C   LIG    1        4.893   1.713   1.231  0.00  0.00    +0.080 C 
ENDROOT
BRANCH   1   5
ATOM      3  N   LIG    1        7.456   1.435  -0.627  0.00  0.00    -0.660 N 
ATOM      4  H   LIG    1        7.170   2.315  -0.919  0.00  0.00    +0.410 HD
ATOM      5  C   LIG    1        6.546   0.539  -0.197  0.00  0.00    +0.540 C 
ATOM      6  O   LIG    1        6.892  -0.587   0.089  0.00  0.00    -0.500 OA
BRANCH   3  10
ATOM      7  C   LIG    1       11.501   0.427  -0.701  0.00  0.00    +0.130 A 
ATOM      8  C   LIG    1       10.541  -0.536  -0.981  0.00  0.00    +0.000 A 
ATOM      9  C   LIG    1        9.201  -0.202  -0.957  0.00  0.00    +0.040 A 
ATOM     10  C   LIG    1        8.815   1.097  -0.651  0.00  0.00    +0.130 A 
ATOM     11  C   LIG    1        9.776   2.061  -0.376  0.00  0.00    +0.010 A 
ATOM     12  C   LIG    1       11.115   1.725  -0.396  0.00  0.00    +0.040 A 
BRANCH   7  15
ATOM     13  C   LIG    1       15.155   0.222   0.188  0.00  0.00    +0.110 C 
ATOM     14  C   LIG    1       13.714   0.662   0.145  0.00  0.00    +0.510 C 
ATOM     15  N   LIG    1       12.860   0.088  -0.726  0.00  0.00    -0.670 N 
ATOM     16  H   LIG    1       13.187  -0.559  -1.371  0.00  0.00    +0.410 HD
ATOM     17  O   LIG    1       13.323   1.531   0.894  0.00  0.00    -0.530 OA
ENDBRANCH   7  15
ENDBRANCH   3  10
ENDBRANCH   1   5
BRANCH   1  18
ATOM     18  S   LIG    1        4.063  -0.548  -0.059  0.00  0.00    +0.070 S 
BRANCH  18  19
ATOM     19  C   LIG    1        2.464   0.193  -0.059  0.00  0.00    +0.190 A 
ATOM     20  N   LIG    1        2.319   1.512  -0.067  0.00  0.00    -0.520 NA
ATOM     21  C   LIG    1        1.111   2.075  -0.067  0.00  0.00    +0.410 A 
ATOM     22  N   LIG    1       -0.015   1.382  -0.059  0.00  0.00    -0.510 NA
ATOM     23  C   LIG    1        0.001   0.042  -0.050  0.00  0.00    +0.170 A 
ATOM     24  C   LIG    1       -1.178  -0.716  -0.042  0.00  0.00    +0.040 A 
ATOM     25  C   LIG    1       -1.103  -2.077  -0.035  0.00  0.00    +0.060 A 
ATOM     26  C   LIG    1        0.127  -2.728  -0.034  0.00  0.00    +0.020 A 
ATOM     27  C   LIG    1        1.295  -2.020  -0.042  0.00  0.00    +0.070 A 
ATOM     28  C   LIG    1        1.252  -0.624  -0.050  0.00  0.00    -0.140 A 
BRANCH  21  29
ATOM     29  C   LIG    1        1.025   3.547  -0.076  0.00  0.00    -0.160 A 
ATOM     30  C   LIG    1        2.080   4.389  -0.079  0.00  0.00    +0.070 A 
ATOM     31  C   LIG    1        1.750   5.726  -0.091  0.00  0.00    +0.000 A 
ATOM     32  C   LIG    1        0.437   5.986  -0.088  0.00  0.00    -0.040 A 
ATOM     33  S   LIG    1       -0.467   4.478  -0.077  0.00  0.00    +0.190 S 
ENDBRANCH  21  29
ENDBRANCH  18  19
ENDBRANCH   1  18
TORSDOF 6
