REMARK  Name = ZINCvU0000000IQb.0
REMARK                            x       y       z     vdW  Elec       q    Type
REMARK                         _______ _______ _______ _____ _____    ______ ____
ROOT
ATOM      1  C   LIG    1        3.639   3.117  -0.016  0.00  0.00    +0.100 C 
ENDROOT
BRANCH   1   3
ATOM      2  N   LIG    1        5.709   4.471  -0.029  0.00  0.00    -0.560 N 
ATOM      3  C   LIG    1        4.362   4.439  -0.017  0.00  0.00    +0.540 C 
ATOM      4  O   LIG    1        3.731   5.476  -0.006  0.00  0.00    -0.500 OA
BRANCH   2   5
ATOM      5  C   LIG    1        6.379   5.695  -0.030  0.00  0.00    +0.140 A 
ATOM      6  C   LIG    1        6.724   6.300   1.160  0.00  0.00    +0.030 A 
ATOM      7  C   LIG    1        7.392   7.521   1.170  0.00  0.00    +0.020 A 
ATOM      8  C   LIG    1        7.723   8.151   0.010  0.00  0.00    +0.030 A 
ATOM      9  C   LIG    1        7.390   7.568  -1.225  0.00  0.00    -0.050 A 
ATOM     10  C   LIG    1        7.719   8.196  -2.438  0.00  0.00    +0.030 A 
ATOM     11  C   LIG    1        7.380   7.604  -3.616  0.00  0.00    +0.020 A 
ATOM     12  C   LIG    1        6.711   6.382  -3.639  0.00  0.00    +0.010 A 
ATOM     13  C   LIG    1        6.376   5.746  -2.482  0.00  0.00    +0.020 A 
ATOM     14  C   LIG    1        6.714   6.323  -1.248  0.00  0.00    -0.040 A 
ENDBRANCH   2   5
BRANCH   2  16
ATOM     15  C   LIG    1        6.722   2.790  -1.489  0.00  0.00    +0.030 C 
ATOM     16  C   LIG    1        6.471   3.219  -0.042  0.00  0.00    +0.280 C 
ENDBRANCH   2  16
ENDBRANCH   1   3
BRANCH   1  17
ATOM     17  S   LIG    1        1.852   3.407   0.002  0.00  0.00    +0.150 S 
BRANCH  17  18
ATOM     18  C   LIG    1        1.272   1.743  -0.001  0.00  0.00    +0.110 A 
ATOM     19  N   LIG    1        2.015   0.663  -0.014  0.00  0.00    -0.280 NA
ATOM     20  N   LIG    1        1.259  -0.378  -0.012  0.00  0.00    -0.270 NA
ATOM     21  C   LIG    1        0.002  -0.004   0.002  0.00  0.00    +0.260 A 
ATOM     22  O   LIG    1       -0.016   1.347   0.009  0.00  0.00    -0.210 OA
BRANCH  21  23
ATOM     23  C   LIG    1       -1.175  -0.894   0.009  0.00  0.00    -0.130 A 
ATOM     24  C   LIG    1       -2.479  -0.515   0.030  0.00  0.00    +0.310 A 
ATOM     25  N   LIG    1       -3.280  -1.620   0.026  0.00  0.00    -0.580 N 
ATOM     26  H   LIG    1       -4.250  -1.602   0.036  0.00  0.00    +0.430 HD
ATOM     27  C   LIG    1       -2.512  -2.764   0.012  0.00  0.00    +0.090 A 
ATOM     28  C   LIG    1       -2.824  -4.120   0.008  0.00  0.00    +0.000 A 
ATOM     29  C   LIG    1       -1.814  -5.058  -0.006  0.00  0.00    +0.040 A 
ATOM     30  C   LIG    1       -0.484  -4.664  -0.017  0.00  0.00    -0.010 A 
ATOM     31  C   LIG    1       -0.154  -3.327  -0.014  0.00  0.00    +0.070 A 
ATOM     32  C   LIG    1       -1.164  -2.367   0.001  0.00  0.00    -0.070 A 
ENDBRANCH  21  23
ENDBRANCH  17  18
ENDBRANCH   1  17
TORSDOF 6
