REMARK  Name = ZINCfA000000bjYB.0
REMARK                            x       y       z     vdW  Elec       q    Type
REMARK                         _______ _______ _______ _____ _____    ______ ____
ROOT
ATOM      1  N   LIG    1       -0.647   2.137  -1.214  0.00  0.00    -0.500 N 
ATOM      2  H   LIG    1       -0.308   1.854  -2.122  0.00  0.00    +0.420 HD
ATOM      3  H   LIG    1       -0.443   3.115  -1.069  0.00  0.00    +0.430 HD
ENDROOT
BRANCH   1   7
ATOM      4  C   LIG    1       -3.957   1.739  -2.763  0.00  0.00    +0.030 C 
ATOM      5  C   LIG    1       -3.906   0.486  -1.865  0.00  0.00    +0.070 C 
ATOM      6  C   LIG    1       -2.439   0.431  -1.371  0.00  0.00    +0.050 C 
ATOM      7  C   LIG    1       -2.099   1.925  -1.145  0.00  0.00    +0.170 C 
ATOM      8  C   LIG    1       -2.807   2.654  -2.305  0.00  0.00    +0.090 C 
BRANCH   4  10
ATOM      9  C   LIG    1       -6.734   1.403  -3.245  0.00  0.00    +0.150 C 
ATOM     10  S   LIG    1       -5.546   2.588  -2.556  0.00  0.00    -0.240 S 
ENDBRANCH   4  10
ENDBRANCH   1   7
BRANCH   1  11
ATOM     11  C   LIG    1        0.015   1.338  -0.174  0.00  0.00    +0.230 C 
BRANCH  11  12
ATOM     12  C   LIG    1       -0.364   1.881   1.205  0.00  0.00    -0.070 C 
ATOM     13  C   LIG    1       -0.698   0.863   2.297  0.00  0.00    +0.090 C 
ATOM     14  C   LIG    1       -1.813   1.697   1.662  0.00  0.00    +0.040 C 
ENDBRANCH  11  12
BRANCH  11  15
ATOM     15  C   LIG    1        1.532   1.422  -0.356  0.00  0.00    -0.030 C 
ATOM     16  C   LIG    1        2.062   2.336  -1.463  0.00  0.00    +0.020 C 
ATOM     17  C   LIG    1        2.126   0.816  -1.629  0.00  0.00    +0.050 C 
ENDBRANCH  11  15
ENDBRANCH   1  11
TORSDOF 5
