REMARK  Name = ZINCrD000000Asuf.0
REMARK                            x       y       z     vdW  Elec       q    Type
REMARK                         _______ _______ _______ _____ _____    ______ ____
ROOT
ATOM      1  C   LIG    1       -3.788   2.660  -1.682  0.00  0.00    +0.530 C 
ATOM      2  N   LIG    1       -2.818   3.551  -1.393  0.00  0.00    -0.580 N 
ATOM      3  O   LIG    1       -4.278   1.990  -0.798  0.00  0.00    -0.480 OA
ENDROOT
BRANCH   2   4
ATOM      4  C   LIG    1       -2.141   4.272  -2.474  0.00  0.00    +0.220 C 
ATOM      5  C   LIG    1       -2.915   4.482  -3.777  0.00  0.00    +0.010 C 
ATOM      6  C   LIG    1       -1.761   3.477  -3.724  0.00  0.00    +0.020 C 
ENDBRANCH   2   4
BRANCH   1   7
ATOM      7  C   LIG    1       -4.263   2.498  -3.103  0.00  0.00    +0.090 C 
BRANCH   7   8
ATOM      8  S   LIG    1       -5.140   0.919  -3.270  0.00  0.00    -0.150 S 
BRANCH   8   9
ATOM      9  C   LIG    1       -5.626   0.905  -5.018  0.00  0.00    +0.160 C 
BRANCH   9  13
ATOM     10  O   LIG    1       -9.632  -1.535  -5.908  0.00  0.00    -0.520 OA
ATOM     11  C   LIG    1       -8.420  -1.536  -5.762  0.00  0.00    +0.530 A 
ATOM     12  C   LIG    1       -7.747  -0.345  -5.482  0.00  0.00    -0.120 A 
ATOM     13  C   LIG    1       -6.378  -0.366  -5.320  0.00  0.00    +0.230 A 
ATOM     14  N   LIG    1       -5.730  -1.518  -5.439  0.00  0.00    -0.490 NA
ATOM     15  C   LIG    1       -6.368  -2.644  -5.698  0.00  0.00    +0.320 A 
ATOM     16  S   LIG    1       -5.784  -4.304  -5.904  0.00  0.00    +0.180 S 
ATOM     17  C   LIG    1       -7.395  -4.976  -6.210  0.00  0.00    +0.020 A 
ATOM     18  C   LIG    1       -8.224  -3.949  -6.140  0.00  0.00    +0.240 A 
ATOM     19  N   LIG    1       -7.718  -2.702  -5.871  0.00  0.00    -0.470 N 
ENDBRANCH   9  13
ENDBRANCH   8   9
ENDBRANCH   7   8
ENDBRANCH   1   7
BRANCH   2  20
ATOM     20  C   LIG    1       -2.441   3.797   0.001  0.00  0.00    +0.360 C 
BRANCH  20  21
ATOM     21  C   LIG    1       -1.340   2.849   0.398  0.00  0.00    -0.150 A 
ATOM     22  C   LIG    1       -0.041   3.308   0.515  0.00  0.00    +0.050 A 
ATOM     23  C   LIG    1        0.970   2.438   0.879  0.00  0.00    -0.010 A 
ATOM     24  C   LIG    1        0.683   1.109   1.128  0.00  0.00    +0.050 A 
ATOM     25  C   LIG    1       -0.615   0.648   1.012  0.00  0.00    -0.030 A 
ATOM     26  C   LIG    1       -1.627   1.516   0.642  0.00  0.00    +0.120 A 
ATOM     27  F   LIG    1       -2.895   1.066   0.523  0.00  0.00    -0.110 F 
ENDBRANCH  20  21
ENDBRANCH   2  20
TORSDOF 7
