REMARK  Name = ZINCvU00000006y0.0
REMARK                            x       y       z     vdW  Elec       q    Type
REMARK                         _______ _______ _______ _____ _____    ______ ____
ROOT
ATOM      1  C   LIG    1       -2.604  -3.471   0.273  0.00  0.00    +0.130 C 
ATOM      2  C   LIG    1       -3.844  -2.616   0.224  0.00  0.00    +0.220 C 
ATOM      3  C   LIG    1       -3.722  -1.277   0.113  0.00  0.00    -0.290 C 
ATOM      4  C   LIG    1       -4.994  -0.455   0.061  0.00  0.00    +0.340 C 
ATOM      5  N   LIG    1       -6.268  -1.190   0.143  0.00  0.00    -0.710 N 
ATOM      6  H   LIG    1       -7.115  -0.719   0.115  0.00  0.00    +0.430 HD
ATOM      7  C   LIG    1       -6.227  -2.532   0.257  0.00  0.00    +0.710 C 
ATOM      8  O   LIG    1       -7.273  -3.148   0.325  0.00  0.00    -0.550 OA
ATOM      9  N   LIG    1       -5.073  -3.209   0.299  0.00  0.00    -0.520 N 
ENDROOT
BRANCH   4  10
ATOM     10  C   LIG    1       -4.990   0.326  -1.228  0.00  0.00    -0.090 A 
ATOM     11  C   LIG    1       -5.609  -0.190  -2.350  0.00  0.00    +0.030 A 
ATOM     12  C   LIG    1       -5.606   0.527  -3.533  0.00  0.00    +0.030 A 
ATOM     13  C   LIG    1       -4.983   1.759  -3.593  0.00  0.00    +0.030 A 
ATOM     14  C   LIG    1       -4.363   2.276  -2.470  0.00  0.00    +0.050 A 
ATOM     15  C   LIG    1       -4.371   1.562  -1.286  0.00  0.00    -0.080 A 
ATOM     16 BR   LIG    1       -3.529   2.272   0.252  0.00  0.00    -0.030 Br
ENDBRANCH   4  10
BRANCH   3  17
ATOM     17  C   LIG    1       -2.449  -0.660   0.042  0.00  0.00    +0.600 C 
ATOM     18  N   LIG    1       -1.759  -0.671  -1.116  0.00  0.00    -0.670 N 
ATOM     19  H   LIG    1       -2.170  -1.020  -1.922  0.00  0.00    +0.410 HD
ATOM     20  O   LIG    1       -1.977  -0.122   1.027  0.00  0.00    -0.480 OA
BRANCH  18  21
ATOM     21  C   LIG    1       -0.451  -0.177  -1.155  0.00  0.00    +0.210 A 
ATOM     22  C   LIG    1        0.280  -0.050   0.019  0.00  0.00    +0.030 A 
ATOM     23  C   LIG    1        1.574   0.432  -0.024  0.00  0.00    +0.080 A 
ATOM     24  C   LIG    1        2.139   0.794  -1.233  0.00  0.00    -0.010 A 
ATOM     25  C   LIG    1        1.411   0.674  -2.403  0.00  0.00    +0.090 A 
ATOM     26  C   LIG    1        0.118   0.192  -2.368  0.00  0.00    -0.220 A 
BRANCH  26  27
ATOM     27  C   LIG    1       -0.674   0.061  -3.643  0.00  0.00    +0.510 C 
ATOM     28  F   LIG    1       -1.876   0.768  -3.521  0.00  0.00    -0.170 F 
ATOM     29  F   LIG    1       -0.950  -1.289  -3.885  0.00  0.00    -0.180 F 
ATOM     30  F   LIG    1        0.067   0.584  -4.708  0.00  0.00    -0.170 F 
ENDBRANCH  26  27
ENDBRANCH  18  21
ENDBRANCH   3  17
BRANCH   9  31
ATOM     31  C   LIG    1       -5.131  -4.667   0.425  0.00  0.00    +0.190 C 
ATOM     32  C   LIG    1       -6.062  -5.248   1.492  0.00  0.00    +0.080 C 
ATOM     33  C   LIG    1       -4.545  -5.290   1.694  0.00  0.00    +0.030 C 
ENDBRANCH   9  31
TORSDOF 5
