REMARK  Name = ZINCpk00000UjjYK.0
REMARK                            x       y       z     vdW  Elec       q    Type
REMARK                         _______ _______ _______ _____ _____    ______ ____
ROOT
ATOM      1  C   LIG    1        1.258   1.968   0.001  0.00  0.00    +0.130 A 
ATOM      2  C   LIG    1        2.470   1.280  -0.009  0.00  0.00    +0.000 A 
ATOM      3  C   LIG    1        3.662   2.002  -0.021  0.00  0.00    +0.240 A 
ATOM      4  C   LIG    1        3.593   3.395  -0.013  0.00  0.00    +0.010 A 
ATOM      5  C   LIG    1        2.344   4.013   0.002  0.00  0.00    +0.130 A 
ATOM      6  N   LIG    1        1.232   3.293   0.008  0.00  0.00    -0.420 NA
ENDROOT
BRANCH   1   7
ATOM      7  C   LIG    1       -0.014   1.210   0.009  0.00  0.00    +0.530 C 
ATOM      8  O   LIG    1        0.002  -0.004   0.002  0.00  0.00    -0.490 OA
BRANCH   7  10
ATOM      9  C   LIG    1       -2.397   1.060   0.019  0.00  0.00    +0.280 C 
ATOM     10  O   LIG    1       -1.190   1.867   0.018  0.00  0.00    -0.330 OA
ENDBRANCH   7  10
ENDBRANCH   1   7
BRANCH   5  11
ATOM     11  C   LIG    1        2.258   5.492   0.010  0.00  0.00    +0.530 C 
ATOM     12  O   LIG    1        3.273   6.158   0.004  0.00  0.00    -0.490 OA
BRANCH  11  13
ATOM     13  O   LIG    1        1.055   6.097   0.024  0.00  0.00    -0.330 OA
ATOM     14  C   LIG    1        1.048   7.549   0.031  0.00  0.00    +0.280 C 
ENDBRANCH  11  13
ENDBRANCH   5  11
BRANCH   3  15
ATOM     15  N   LIG    1        4.891   1.350  -0.036  0.00  0.00    -0.730 N 
ATOM     16  H   LIG    1        5.714   1.864  -0.041  0.00  0.00    +0.410 HD
BRANCH  15  17
ATOM     17  C   LIG    1        4.944  -0.114  -0.044  0.00  0.00    +0.240 C 
ATOM     18  C   LIG    1        4.794  -0.615  -1.478  0.00  0.00    +0.070 C 
ATOM     19  C   LIG    1        5.775   0.121  -2.394  0.00  0.00    -0.420 C 
ATOM     20  S   LIG    1        7.473  -0.279  -1.884  0.00  0.00    +2.410 S 
ATOM     21  C   LIG    1        7.430   0.167  -0.123  0.00  0.00    -0.440 C 
ATOM     22  C   LIG    1        8.749  -0.234   0.541  0.00  0.00    +0.090 C 
ATOM     23  O   LIG    1        7.664  -1.683  -1.993  0.00  0.00    -0.930 OA
ATOM     24  O   LIG    1        8.367   0.599  -2.553  0.00  0.00    -0.930 OA
ATOM     25  C   LIG    1        5.558  -0.323  -3.842  0.00  0.00    +0.090 C 
ATOM     26  C   LIG    1        6.272  -0.574   0.550  0.00  0.00    +0.100 C 
ENDBRANCH  15  17
ENDBRANCH   3  15
TORSDOF 6
