REMARK  Name = ZINCpk00000G4L0e.0
REMARK                            x       y       z     vdW  Elec       q    Type
REMARK                         _______ _______ _______ _____ _____    ______ ____
ROOT
ATOM      1  CA  LIG    1        0.901   3.231  -2.903  0.00  0.00    +0.250 C 
ATOM      2  N   LIG    1        0.696   1.821  -3.206  0.00  0.00    -0.710 N 
ATOM      3  H   LIG    1        1.137   1.445  -3.985  0.00  0.00    +0.410 HD
ATOM      4  C   LIG    1       -0.072   1.022  -2.458  0.00  0.00    +0.520 C 
ATOM      5  CA  LIG    1       -0.795   1.506  -1.238  0.00  0.00    +0.260 C 
ATOM      6  N   LIG    1       -0.936   2.956  -1.246  0.00  0.00    -0.710 N 
ATOM      7  H   LIG    1       -1.615   3.359  -0.682  0.00  0.00    +0.410 HD
ATOM      8  O   LIG    1       -0.189  -0.141  -2.781  0.00  0.00    -0.530 OA
ATOM      9  C   LIG    1       -0.172   3.754  -1.997  0.00  0.00    +0.520 C 
ATOM     10  O   LIG    1       -0.354   4.952  -1.944  0.00  0.00    -0.520 OA
ENDROOT
BRANCH   1  11
ATOM     11  C   LIG    1        2.260   3.404  -2.222  0.00  0.00    +0.140 C 
BRANCH  11  18
ATOM     12  C   LIG    1        3.560   5.323  -4.383  0.00  0.00    +0.150 C 
ATOM     13  C   LIG    1        3.931   3.882  -4.142  0.00  0.00    +0.080 A 
ATOM     14  N   LIG    1        4.847   3.207  -4.789  0.00  0.00    -0.290 NA
ATOM     15  N   LIG    1        4.884   1.908  -4.266  0.00  0.00    -0.370 N 
ATOM     16  C   LIG    1        3.964   1.830  -3.282  0.00  0.00    +0.240 A 
ATOM     17  C   LIG    1        5.769   0.827  -4.707  0.00  0.00    +0.360 C 
ATOM     18  C   LIG    1        3.357   3.036  -3.188  0.00  0.00    -0.240 A 
ENDBRANCH  11  18
ENDBRANCH   1  11
BRANCH   5  19
ATOM     19  C   LIG    1       -0.013   1.086   0.008  0.00  0.00    +0.050 C 
BRANCH  19  20
ATOM     20  C   LIG    1       -0.808   1.460   1.260  0.00  0.00    -0.010 C 
ATOM     21  C   LIG    1        0.035   1.174   2.505  0.00  0.00    +0.050 C 
ATOM     22  C   LIG    1       -0.760   1.548   3.757  0.00  0.00    +0.030 C 
ATOM     23  C   LIG    1       -2.046   0.721   3.811  0.00  0.00    +0.290 C 
ATOM     24  C   LIG    1       -2.889   1.007   2.567  0.00  0.00    +0.030 C 
ATOM     25  F   LIG    1       -1.724  -0.640   3.852  0.00  0.00    -0.200 F 
ATOM     26  F   LIG    1       -2.773   1.063   4.956  0.00  0.00    -0.200 F 
ATOM     27  C   LIG    1       -2.094   0.633   1.314  0.00  0.00    +0.040 C 
ENDBRANCH  19  20
ENDBRANCH   5  19
TORSDOF 4
