REMARK  Name = ZINCqH0000008tiA.0
REMARK                            x       y       z     vdW  Elec       q    Type
REMARK                         _______ _______ _______ _____ _____    ______ ____
ROOT
ATOM      1  C   LIG    1       -1.125   4.117   1.486  0.00  0.00    +0.070 C 
ATOM      2  C   LIG    1       -1.143   3.610   0.043  0.00  0.00    +0.190 C 
ENDROOT
BRANCH   2   3
ATOM      3  C   LIG    1       -2.350   4.163  -0.669  0.00  0.00    +0.520 C 
ATOM      4  N   LIG    1       -2.460   5.490  -0.879  0.00  0.00    -0.670 N 
ATOM      5  H   LIG    1       -1.795   6.095  -0.515  0.00  0.00    +0.420 HD
ATOM      6  O   LIG    1       -3.223   3.414  -1.054  0.00  0.00    -0.490 OA
BRANCH   4   7
ATOM      7  C   LIG    1       -3.534   5.995  -1.622  0.00  0.00    +0.160 A 
ATOM      8  C   LIG    1       -4.780   5.388  -1.543  0.00  0.00    +0.060 A 
ATOM      9  C   LIG    1       -5.840   5.892  -2.272  0.00  0.00    +0.070 A 
ATOM     10  C   LIG    1       -5.658   6.993  -3.090  0.00  0.00    -0.040 A 
ATOM     11  C   LIG    1       -4.416   7.596  -3.176  0.00  0.00    +0.070 A 
ATOM     12 CL   LIG    1       -6.991   7.619  -4.010  0.00  0.00    -0.050 Cl
ATOM     13  C   LIG    1       -3.354   7.101  -2.444  0.00  0.00    -0.050 A 
ATOM     14 CL   LIG    1       -1.795   7.858  -2.552  0.00  0.00    -0.050 Cl
ENDBRANCH   4   7
ENDBRANCH   2   3
BRANCH   2  15
ATOM     15  O   LIG    1       -1.201   2.159   0.040  0.00  0.00    -0.330 OA
BRANCH  15  16
ATOM     16  C   LIG    1       -0.031   1.502   0.041  0.00  0.00    +0.470 C 
ATOM     17  O   LIG    1        1.008   2.119   0.040  0.00  0.00    -0.500 OA
BRANCH  16  18
ATOM     18  C   LIG    1       -0.013  -0.005   0.038  0.00  0.00    +0.110 C 
BRANCH  18  19
ATOM     19  C   LIG    1        1.436  -0.497   0.034  0.00  0.00    +0.290 C 
BRANCH  19  20
ATOM     20  N   LIG    1        1.454  -1.962   0.031  0.00  0.00    -0.730 N 
ATOM     21  H   LIG    1        0.620  -2.457   0.032  0.00  0.00    +0.400 HD
ATOM     22  C   LIG    1        2.629  -2.622   0.026  0.00  0.00    +0.580 C 
ATOM     23  O   LIG    1        3.675  -2.001   0.025  0.00  0.00    -0.530 OA
BRANCH  22  24
ATOM     24  C   LIG    1        2.647  -4.093   0.024  0.00  0.00    -0.160 A 
ATOM     25  C   LIG    1        1.521  -4.857   0.024  0.00  0.00    -0.050 A 
ATOM     26  S   LIG    1        1.915  -6.516   0.020  0.00  0.00    +0.200 S 
ATOM     27  C   LIG    1        3.638  -6.184   0.016  0.00  0.00    -0.060 A 
ATOM     28  C   LIG    1        3.861  -4.875   0.013  0.00  0.00    +0.070 A 
ENDBRANCH  22  24
ENDBRANCH  19  20
ENDBRANCH  18  19
ENDBRANCH  16  18
ENDBRANCH  15  16
ENDBRANCH   2  15
TORSDOF 8
