REMARK  Name = ZINCqH0000031IGy.0
REMARK                            x       y       z     vdW  Elec       q    Type
REMARK                         _______ _______ _______ _____ _____    ______ ____
ROOT
ATOM      1  C   LIG    1       -1.461   3.934   2.516  0.00  0.00    +0.520 C 
ATOM      2  N   LIG    1       -1.599   5.256   2.739  0.00  0.00    -0.670 N 
ATOM      3  H   LIG    1       -1.181   5.895   2.140  0.00  0.00    +0.420 HD
ATOM      4  O   LIG    1       -1.911   3.135   3.310  0.00  0.00    -0.510 OA
ENDROOT
BRANCH   2   5
ATOM      5  C   LIG    1       -2.344   5.708   3.835  0.00  0.00    +0.140 A 
ATOM      6  C   LIG    1       -2.330   4.995   5.026  0.00  0.00    +0.130 A 
ATOM      7  C   LIG    1       -3.066   5.442   6.106  0.00  0.00    +0.040 A 
ATOM      8  C   LIG    1       -3.817   6.600   6.002  0.00  0.00    +0.160 A 
ATOM      9  C   LIG    1       -3.831   7.313   4.814  0.00  0.00    -0.070 A 
ATOM     10  F   LIG    1       -4.535   7.036   7.059  0.00  0.00    -0.100 F 
ATOM     11  C   LIG    1       -3.093   6.872   3.734  0.00  0.00    +0.110 A 
BRANCH   9  12
ATOM     12  N   LIG    1       -4.634   8.552   4.706  0.00  0.00    +0.030 N 
ATOM     13  O   LIG    1       -5.282   8.944   5.660  0.00  0.00    -0.140 OA
ATOM     14  O   LIG    1       -4.648   9.179   3.662  0.00  0.00    -0.150 OA
ENDBRANCH   9  12
ENDBRANCH   2   5
BRANCH   1  15
ATOM     15  C   LIG    1       -0.748   3.448   1.280  0.00  0.00    +0.080 C 
BRANCH  15  16
ATOM     16  C   LIG    1       -0.731   1.918   1.270  0.00  0.00    +0.070 C 
BRANCH  16  17
ATOM     17  C   LIG    1       -0.007   1.425   0.015  0.00  0.00    +0.200 C 
BRANCH  17  18
ATOM     18  O   LIG    1        0.009  -0.004   0.005  0.00  0.00    -0.310 OA
BRANCH  18  22
ATOM     19  C   LIG    1        1.859  -1.833  -3.194  0.00  0.00    -0.210 A 
ATOM     20  C   LIG    1        1.282  -2.607  -2.179  0.00  0.00    +0.120 A 
ATOM     21  C   LIG    1        0.668  -1.994  -1.117  0.00  0.00    -0.020 A 
ATOM     22  C   LIG    1        0.618  -0.606  -1.047  0.00  0.00    +0.160 A 
ATOM     23  C   LIG    1        1.184   0.168  -2.055  0.00  0.00    -0.090 A 
ATOM     24  C   LIG    1        1.805  -0.435  -3.118  0.00  0.00    +0.110 A 
BRANCH  19  26
ATOM     25  C   LIG    1        3.136  -1.649  -5.424  0.00  0.00    +0.070 C 
ATOM     26  C   LIG    1        2.517  -2.484  -4.334  0.00  0.00    +0.400 C 
ATOM     27  O   LIG    1        2.561  -3.695  -4.398  0.00  0.00    -0.460 OA
ENDBRANCH  19  26
ENDBRANCH  18  22
ENDBRANCH  17  18
ENDBRANCH  16  17
ENDBRANCH  15  16
ENDBRANCH   1  15
TORSDOF 8
