REMARK  Name = ZINCrg000000qjiq.0
REMARK                            x       y       z     vdW  Elec       q    Type
REMARK                         _______ _______ _______ _____ _____    ______ ____
ROOT
ATOM      1  N   LIG    1        1.120   2.062   0.002  0.00  0.00    -0.500 N 
ATOM      2  C   LIG    1       -0.016   1.340   0.009  0.00  0.00    +0.710 A 
ATOM      3  N   LIG    1        0.002  -0.004   0.002  0.00  0.00    -0.650 N 
ATOM      4  H   LIG    1       -0.836  -0.493   0.007  0.00  0.00    +0.440 HD
ATOM      5  C   LIG    1        1.168  -0.683  -0.013  0.00  0.00    +0.600 A 
ATOM      6  C   LIG    1        2.382   0.032  -0.021  0.00  0.00    -0.140 A 
ATOM      7  N   LIG    1        3.717  -0.329  -0.035  0.00  0.00    -0.380 N 
ATOM      8  C   LIG    1        4.437   0.827  -0.036  0.00  0.00    +0.360 A 
ATOM      9  N   LIG    1        3.610   1.855  -0.022  0.00  0.00    -0.450 NA
ATOM     10  O   LIG    1        1.170  -1.902  -0.020  0.00  0.00    -0.510 OA
ATOM     11  O   LIG    1       -1.086   1.918   0.018  0.00  0.00    -0.530 OA
ATOM     12  C   LIG    1        2.350   1.423  -0.013  0.00  0.00    +0.340 A 
ENDROOT
BRANCH   8  13
ATOM     13  C   LIG    1        5.911   0.916  -0.049  0.00  0.00    +0.090 A 
ATOM     14  C   LIG    1        6.607   2.095  -0.049  0.00  0.00    -0.030 A 
ATOM     15  S   LIG    1        8.257   1.608  -0.067  0.00  0.00    +0.490 S 
ATOM     16  N   LIG    1        7.976   0.069  -0.072  0.00  0.00    -0.280 NA
ATOM     17  N   LIG    1        6.718  -0.137  -0.056  0.00  0.00    -0.230 NA
ENDBRANCH   8  13
BRANCH   1  18
ATOM     18  C   LIG    1        1.056   3.526   0.011  0.00  0.00    +0.350 C 
BRANCH  18  19
ATOM     19  C   LIG    1        1.048   4.027   1.456  0.00  0.00    +0.170 C 
BRANCH  19  21
ATOM     20  C   LIG    1        2.387   4.126   3.442  0.00  0.00    +0.190 C 
ATOM     21  O   LIG    1        2.290   3.700   2.082  0.00  0.00    -0.380 OA
ENDBRANCH  19  21
ENDBRANCH  18  19
ENDBRANCH   1  18
BRANCH   7  22
ATOM     22  C   LIG    1        4.254  -1.692  -0.048  0.00  0.00    +0.370 C 
BRANCH  22  23
ATOM     23  C   LIG    1        4.425  -2.152  -1.473  0.00  0.00    -0.120 A 
ATOM     24  C   LIG    1        3.391  -2.807  -2.116  0.00  0.00    +0.040 A 
ATOM     25  C   LIG    1        3.545  -3.224  -3.425  0.00  0.00    -0.010 A 
ATOM     26  C   LIG    1        4.737  -2.996  -4.087  0.00  0.00    +0.020 A 
ATOM     27  C   LIG    1        5.773  -2.347  -3.441  0.00  0.00    -0.010 A 
ATOM     28  C   LIG    1        5.617  -1.925  -2.134  0.00  0.00    +0.040 A 
ENDBRANCH  22  23
ENDBRANCH   7  22
TORSDOF 6
