REMARK  Name = ZINCAx0000000fY5.0
REMARK                            x       y       z     vdW  Elec       q    Type
REMARK                         _______ _______ _______ _____ _____    ______ ____
ROOT
ATOM      1  C   LIG    1       -2.445   1.128   0.020  0.00  0.00    +0.350 C 
ATOM      2  N   LIG    1       -1.188   1.880   0.018  0.00  0.00    -0.550 N 
ATOM      3  C   LIG    1       -0.014   1.214   0.009  0.00  0.00    +0.600 A 
ATOM      4  C   LIG    1        1.193   1.944   0.001  0.00  0.00    -0.140 A 
ATOM      5  C   LIG    1        1.145   3.333   0.009  0.00  0.00    +0.320 A 
ATOM      6  N   LIG    1       -0.091   3.958   0.024  0.00  0.00    -0.510 N 
ATOM      7  C   LIG    1       -0.171   5.421   0.033  0.00  0.00    +0.340 C 
ATOM      8  N   LIG    1        2.405   3.773  -0.000  0.00  0.00    -0.490 NA
ATOM      9  C   LIG    1        3.230   2.757  -0.013  0.00  0.00    +0.310 A 
ATOM     10  N   LIG    1        2.531   1.605  -0.013  0.00  0.00    -0.390 N 
ATOM     11  O   LIG    1        0.002  -0.004   0.002  0.00  0.00    -0.510 OA
ATOM     12  C   LIG    1       -1.220   3.224   0.031  0.00  0.00    +0.710 A 
ATOM     13  O   LIG    1       -2.296   3.791   0.044  0.00  0.00    -0.530 OA
ENDROOT
BRANCH   9  14
ATOM     14  C   LIG    1        4.733   2.859  -0.027  0.00  0.00    +0.310 C 
BRANCH  14  15
ATOM     15  N   LIG    1        5.235   2.886   1.354  0.00  0.00    -0.540 NA
ATOM     16  C   LIG    1        4.802   4.106   2.048  0.00  0.00    +0.170 C 
ATOM     17  C   LIG    1        5.217   4.032   3.519  0.00  0.00    +0.030 C 
ATOM     18  C   LIG    1        6.738   3.884   3.608  0.00  0.00    -0.010 C 
ATOM     19  C   LIG    1        7.167   2.632   2.837  0.00  0.00    +0.030 C 
ATOM     20  C   LIG    1        6.696   2.747   1.386  0.00  0.00    +0.180 C 
BRANCH  18  21
ATOM     21  C   LIG    1        7.153   3.748   5.075  0.00  0.00    +0.060 C 
BRANCH  21  22
ATOM     22  C   LIG    1        6.841   5.029   5.806  0.00  0.00    -0.080 A 
ATOM     23  C   LIG    1        7.788   6.033   5.876  0.00  0.00    +0.000 A 
ATOM     24  C   LIG    1        7.500   7.209   6.543  0.00  0.00    +0.000 A 
ATOM     25  C   LIG    1        6.268   7.377   7.147  0.00  0.00    -0.010 A 
ATOM     26  C   LIG    1        5.323   6.371   7.081  0.00  0.00    +0.000 A 
ATOM     27  C   LIG    1        5.609   5.197   6.410  0.00  0.00    +0.000 A 
ENDBRANCH  21  22
ENDBRANCH  18  21
ENDBRANCH  14  15
ENDBRANCH   9  14
BRANCH  10  28
ATOM     28  C   LIG    1        3.086   0.249  -0.025  0.00  0.00    +0.340 C 
BRANCH  28  29
ATOM     29  C   LIG    1        3.263  -0.209  -1.449  0.00  0.00    +0.390 C 
ATOM     30  O   LIG    1        2.956   0.524  -2.365  0.00  0.00    -0.430 OA
BRANCH  29  31
ATOM     31  C   LIG    1        3.809  -1.547  -1.730  0.00  0.00    -0.170 A 
ATOM     32  C   LIG    1        4.169  -2.394  -0.677  0.00  0.00    +0.060 A 
ATOM     33  C   LIG    1        4.675  -3.648  -0.947  0.00  0.00    +0.000 A 
ATOM     34  C   LIG    1        4.836  -4.065  -2.257  0.00  0.00    +0.050 A 
ATOM     35  C   LIG    1        4.486  -3.231  -3.305  0.00  0.00    +0.000 A 
ATOM     36  C   LIG    1        3.974  -1.976  -3.050  0.00  0.00    +0.070 A 
ENDBRANCH  29  31
ENDBRANCH  28  29
ENDBRANCH  10  28
TORSDOF 7
