REMARK  Name = ZINCAx0000000b8O.0
REMARK                            x       y       z     vdW  Elec       q    Type
REMARK                         _______ _______ _______ _____ _____    ______ ____
ROOT
ATOM      1  C   LIG    1        4.109   0.548  -1.342  0.00  0.00    +0.510 C 
ATOM      2  N   LIG    1        5.436   0.446  -1.555  0.00  0.00    -0.610 N 
ATOM      3  C   LIG    1        6.374   0.400  -0.425  0.00  0.00    +0.280 C 
ATOM      4  C   LIG    1        7.434   1.483  -0.614  0.00  0.00    +0.040 C 
ATOM      5  C   LIG    1        8.093   1.316  -1.986  0.00  0.00    +0.010 C 
ATOM      6  C   LIG    1        7.038   1.473  -3.083  0.00  0.00    +0.060 C 
ATOM      7  C   LIG    1        5.973   0.384  -2.921  0.00  0.00    +0.280 C 
ATOM      8  O   LIG    1        3.346   0.590  -2.284  0.00  0.00    -0.520 OA
ENDROOT
BRANCH   5   9
ATOM      9  C   LIG    1        9.160   2.365  -2.161  0.00  0.00    +0.520 C 
ATOM     10  N   LIG    1       10.199   2.420  -1.304  0.00  0.00    -0.670 N 
ATOM     11  H   LIG    1       10.225   1.828  -0.536  0.00  0.00    +0.410 HD
ATOM     12  O   LIG    1        9.084   3.160  -3.074  0.00  0.00    -0.510 OA
BRANCH  10  13
ATOM     13  C   LIG    1       11.240   3.332  -1.522  0.00  0.00    +0.150 A 
ATOM     14  C   LIG    1       10.967   4.580  -2.065  0.00  0.00    +0.040 A 
ATOM     15  C   LIG    1       11.993   5.480  -2.281  0.00  0.00    +0.060 A 
ATOM     16  C   LIG    1       13.296   5.140  -1.957  0.00  0.00    +0.020 A 
ATOM     17  O   LIG    1       14.467   5.835  -2.070  0.00  0.00    -0.310 OA
ATOM     18  C   LIG    1       15.510   4.848  -1.971  0.00  0.00    +0.430 C 
ATOM     19  O   LIG    1       14.916   3.799  -1.184  0.00  0.00    -0.310 OA
ATOM     20  C   LIG    1       13.573   3.888  -1.412  0.00  0.00    +0.050 A 
ATOM     21  C   LIG    1       12.544   2.989  -1.191  0.00  0.00    +0.010 A 
ENDBRANCH  10  13
ENDBRANCH   5   9
BRANCH   1  22
ATOM     22  C   LIG    1        3.574   0.610   0.065  0.00  0.00    +0.360 C 
BRANCH  22  32
ATOM     23  C   LIG    1       -1.528   3.987  -2.545  0.00  0.00    +0.030 C 
ATOM     24  C   LIG    1       -0.887   3.519  -1.234  0.00  0.00    +0.000 C 
ATOM     25  C   LIG    1       -1.811   3.863  -0.067  0.00  0.00    +0.040 C 
ATOM     26  C   LIG    1       -1.189   3.444   1.260  0.00  0.00    -0.050 C 
ATOM     27  C   LIG    1       -0.718   2.001   1.262  0.00  0.00    +0.060 C 
ATOM     28  C   LIG    1       -0.024   1.527   0.002  0.00  0.00    +0.140 C 
ATOM     29  N   LIG    1       -0.009   0.046   0.004  0.00  0.00    -0.720 N 
ATOM     30  H   LIG    1       -0.790  -0.528  -0.009  0.00  0.00    +0.440 HD
ATOM     31  C   LIG    1        1.281  -0.328   0.027  0.00  0.00    +0.710 C 
ATOM     32  N   LIG    1        2.114   0.718   0.028  0.00  0.00    -0.570 N 
ATOM     33  O   LIG    1        1.650  -1.486   0.044  0.00  0.00    -0.540 OA
ATOM     34  C   LIG    1        1.442   1.889  -0.010  0.00  0.00    +0.540 C 
ATOM     35  O   LIG    1        1.941   2.993  -0.064  0.00  0.00    -0.450 OA
ATOM     36  C   LIG    1       -0.040   4.391   1.621  0.00  0.00    +0.030 C 
ATOM     37  C   LIG    1       -2.271   3.595   2.352  0.00  0.00    +0.030 C 
ATOM     38  C   LIG    1       -0.705   2.001  -1.274  0.00  0.00    +0.060 C 
ENDBRANCH  22  32
ENDBRANCH   1  22
TORSDOF 4
