REMARK  Name = ZINCrg000000tdoR.0
REMARK                            x       y       z     vdW  Elec       q    Type
REMARK                         _______ _______ _______ _____ _____    ______ ____
ROOT
ATOM      1  C   LIG    1        0.037   1.026   4.867  0.00  0.00    +0.250 C 
ATOM      2  C   LIG    1        0.730  -0.160   4.145  0.00  0.00    +0.050 C 
ATOM      3  C   LIG    1        0.955   0.425   2.729  0.00  0.00    +0.270 C 
ATOM      4  N   LIG    1       -0.242   1.246   2.466  0.00  0.00    -0.620 N 
ATOM      5  C   LIG    1       -0.718   1.572   1.248  0.00  0.00    +0.530 C 
ATOM      6  O   LIG    1       -1.714   2.256   1.150  0.00  0.00    -0.510 OA
ATOM      7  C   LIG    1       -0.825   1.655   3.752  0.00  0.00    +0.260 C 
ENDROOT
BRANCH   1  10
ATOM      8  O   LIG    1       -0.637   2.484   7.031  0.00  0.00    -0.530 OA
ATOM      9  C   LIG    1       -1.082   1.356   7.006  0.00  0.00    +0.510 C 
ATOM     10  N   LIG    1       -0.803   0.545   5.966  0.00  0.00    -0.720 N 
ATOM     11  H   LIG    1       -1.159  -0.357   5.946  0.00  0.00    +0.410 HD
BRANCH   9  12
ATOM     12  C   LIG    1       -1.946   0.861   8.137  0.00  0.00    +0.300 C 
BRANCH  12  13
ATOM     13  N   LIG    1       -2.099   1.922   9.135  0.00  0.00    -0.720 N 
ATOM     14  H   LIG    1       -1.669   2.781   9.000  0.00  0.00    +0.410 HD
ATOM     15  C   LIG    1       -2.836   1.704  10.242  0.00  0.00    +0.520 C 
ATOM     16  O   LIG    1       -3.373   0.630  10.412  0.00  0.00    -0.540 OA
BRANCH  15  17
ATOM     17  C   LIG    1       -2.993   2.796  11.270  0.00  0.00    -0.010 C 
ATOM     18  C   LIG    1       -1.618   3.164  11.864  0.00  0.00    +0.020 C 
ATOM     19  C   LIG    1       -1.915   3.449  13.358  0.00  0.00    +0.020 C 
ATOM     20  C   LIG    1       -2.981   2.380  13.705  0.00  0.00    +0.010 C 
ATOM     21  C   LIG    1       -3.860   2.298  12.440  0.00  0.00    +0.040 C 
ENDBRANCH  15  17
ENDBRANCH  12  13
ENDBRANCH   9  12
ENDBRANCH   1  10
BRANCH   5  22
ATOM     22  C   LIG    1       -0.013   1.086   0.008  0.00  0.00    +0.230 C 
BRANCH  22  23
ATOM     23  O   LIG    1       -0.704   1.559  -1.150  0.00  0.00    -0.290 OA
BRANCH  23  24
ATOM     24  C   LIG    1       -0.194   1.208  -2.359  0.00  0.00    +0.130 A 
ATOM     25  C   LIG    1        0.951   0.428  -2.431  0.00  0.00    -0.080 A 
ATOM     26  C   LIG    1        1.464   0.067  -3.662  0.00  0.00    +0.050 A 
ATOM     27  C   LIG    1        0.844   0.492  -4.822  0.00  0.00    -0.030 A 
ATOM     28  C   LIG    1       -0.294   1.274  -4.753  0.00  0.00    +0.050 A 
ATOM     29  C   LIG    1       -0.815   1.633  -3.525  0.00  0.00    -0.020 A 
ENDBRANCH  23  24
ENDBRANCH  22  23
ENDBRANCH   5  22
TORSDOF 7
