REMARK  Name = ZINCrD00000l0jrV.0
REMARK                            x       y       z     vdW  Elec       q    Type
REMARK                         _______ _______ _______ _____ _____    ______ ____
ROOT
ATOM      1  S   LIG    1       -5.461   2.358   2.075  0.00  0.00    +2.670 S 
ATOM      2  O   LIG    1       -6.622   1.581   1.815  0.00  0.00    -0.930 OA
ATOM      3  O   LIG    1       -5.490   3.771   2.230  0.00  0.00    -0.930 OA
ENDROOT
BRANCH   1   4
ATOM      4  C   LIG    1       -4.750   1.710   3.551  0.00  0.00    -0.630 A 
ATOM      5  C   LIG    1       -3.709   0.804   3.477  0.00  0.00    +0.140 A 
ATOM      6  C   LIG    1       -3.147   0.300   4.635  0.00  0.00    +0.070 A 
ATOM      7  C   LIG    1       -3.634   0.693   5.868  0.00  0.00    +0.010 A 
ATOM      8  C   LIG    1       -4.679   1.596   5.942  0.00  0.00    +0.080 A 
ATOM      9 CL   LIG    1       -2.933   0.055   7.322  0.00  0.00    -0.030 Cl
ATOM     10  C   LIG    1       -5.237   2.104   4.784  0.00  0.00    -0.080 A 
BRANCH  10  11
ATOM     11  C   LIG    1       -6.376   3.088   4.865  0.00  0.00    +0.480 C 
ATOM     12  F   LIG    1       -7.450   2.621   4.100  0.00  0.00    -0.170 F 
ATOM     13  F   LIG    1       -5.957   4.328   4.372  0.00  0.00    -0.140 F 
ATOM     14  F   LIG    1       -6.778   3.228   6.197  0.00  0.00    -0.160 F 
ENDBRANCH  10  11
ENDBRANCH   1   4
BRANCH   1  18
ATOM     15  C   LIG    1       -2.120   0.971  -0.439  0.00  0.00    +0.000 C 
ATOM     16  C   LIG    1       -1.978   2.112   0.571  0.00  0.00    +0.030 C 
ATOM     17  C   LIG    1       -3.267   2.941   0.584  0.00  0.00    +0.310 C 
ATOM     18  N   LIG    1       -4.402   2.044   0.842  0.00  0.00    -0.990 NA
ATOM     19  C   LIG    1       -4.579   0.864  -0.015  0.00  0.00    +0.300 C 
ATOM     20  C   LIG    1       -3.275   0.059  -0.021  0.00  0.00    +0.050 C 
BRANCH  15  22
ATOM     21  O   LIG    1       -0.805  -0.939  -0.000  0.00  0.00    -0.540 OA
ATOM     22  C   LIG    1       -0.841   0.175  -0.479  0.00  0.00    +0.530 C 
ATOM     23  N   LIG    1        0.261   0.698  -1.053  0.00  0.00    -0.620 N 
ATOM     24  C   LIG    1        0.331   1.987  -1.757  0.00  0.00    +0.240 C 
ATOM     25  C   LIG    1        1.779   2.155  -2.263  0.00  0.00    +0.030 C 
ATOM     26  C   LIG    1        2.298   0.693  -2.314  0.00  0.00    +0.030 C 
ATOM     27  C   LIG    1        1.594   0.070  -1.084  0.00  0.00    +0.250 C 
ENDBRANCH  15  22
ENDBRANCH   1  18
TORSDOF 4
