REMARK  Name = ZINCrD00000dAtZE.0
REMARK                            x       y       z     vdW  Elec       q    Type
REMARK                         _______ _______ _______ _____ _____    ______ ____
ROOT
ATOM      1  N   LIG    1       -2.145  -0.411   1.390  0.00  0.00    -0.710 N 
ATOM      2  H   LIG    1       -2.229  -0.832   2.260  0.00  0.00    +0.400 HD
ATOM      3  C   LIG    1       -2.010  -1.170   0.285  0.00  0.00    +0.590 C 
ATOM      4  O   LIG    1       -1.905  -0.643  -0.806  0.00  0.00    -0.490 OA
ENDROOT
BRANCH   3   5
ATOM      5  C   LIG    1       -1.991  -2.640   0.398  0.00  0.00    -0.060 A 
ATOM      6  N   LIG    1       -2.099  -3.217   1.574  0.00  0.00    -0.140 NA
ATOM      7  N   LIG    1       -2.098  -4.484   1.758  0.00  0.00    -0.420 N 
ATOM      8  H   LIG    1       -2.188  -4.817   2.664  0.00  0.00    +0.450 HD
ATOM      9  C   LIG    1       -1.969  -5.394   0.737  0.00  0.00    +0.110 A 
ATOM     10  C   LIG    1       -1.966  -6.767   0.984  0.00  0.00    +0.060 A 
ATOM     11  C   LIG    1       -1.835  -7.651  -0.066  0.00  0.00    +0.060 A 
ATOM     12  C   LIG    1       -1.704  -7.194  -1.370  0.00  0.00    +0.040 A 
ATOM     13  C   LIG    1       -1.706  -5.842  -1.637  0.00  0.00    +0.120 A 
ATOM     14  F   LIG    1       -2.091  -7.228   2.248  0.00  0.00    -0.130 F 
ATOM     15  C   LIG    1       -1.837  -4.936  -0.588  0.00  0.00    -0.170 A 
ATOM     16  C   LIG    1       -1.844  -3.478  -0.807  0.00  0.00    +0.410 A 
ATOM     17  O   LIG    1       -1.736  -2.993  -1.920  0.00  0.00    -0.410 OA
ENDBRANCH   3   5
BRANCH   1  18
ATOM     18  C   LIG    1       -2.164   1.050   1.278  0.00  0.00    +0.250 C 
BRANCH  18  19
ATOM     19  C   LIG    1       -2.918   1.643   2.470  0.00  0.00    +0.000 C 
ATOM     20  C   LIG    1       -2.296   1.172   3.801  0.00  0.00    +0.080 C 
ATOM     21  C   LIG    1       -3.469   1.011   4.749  0.00  0.00    -0.100 A 
ATOM     22  C   LIG    1       -3.500   0.922   6.130  0.00  0.00    +0.010 A 
ATOM     23  C   LIG    1       -4.705   0.781   6.791  0.00  0.00    +0.000 A 
ATOM     24  C   LIG    1       -5.884   0.728   6.072  0.00  0.00    +0.000 A 
ATOM     25  C   LIG    1       -5.856   0.817   4.693  0.00  0.00    +0.010 A 
ATOM     26  C   LIG    1       -4.649   0.959   4.029  0.00  0.00    -0.090 A 
ATOM     27  C   LIG    1       -4.351   1.077   2.550  0.00  0.00    +0.080 C 
ENDBRANCH  18  19
BRANCH  18  29
ATOM     28  C   LIG    1       -0.013   1.086   0.008  0.00  0.00    +0.010 C 
ATOM     29  C   LIG    1       -0.729   1.579   1.267  0.00  0.00    +0.010 C 
ENDBRANCH  18  29
ENDBRANCH   1  18
TORSDOF 4
