REMARK  Name = ZINCpk00000y0eZ4.0
REMARK                            x       y       z     vdW  Elec       q    Type
REMARK                         _______ _______ _______ _____ _____    ______ ____
ROOT
ATOM      1  C   LIG    1       -0.744   3.086   1.290  0.00  0.00    +0.140 C 
ATOM      2  C   LIG    1       -0.949   1.573   1.184  0.00  0.00    +0.050 C 
ATOM      3  C   LIG    1       -0.253   1.050  -0.075  0.00  0.00    +0.030 C 
ATOM      4  C   LIG    1       -0.874   1.710  -1.310  0.00  0.00    +0.260 C 
ATOM      5  N   LIG    1       -0.810   3.169  -1.148  0.00  0.00    -0.600 N 
ATOM      6  C   LIG    1       -0.249   3.942  -2.099  0.00  0.00    +0.520 C 
ATOM      7  O   LIG    1       -0.203   5.145  -1.953  0.00  0.00    -0.520 OA
ATOM      8  C   LIG    1       -1.370   3.770   0.071  0.00  0.00    +0.270 C 
ENDROOT
BRANCH   1   9
ATOM      9  O   LIG    1        0.654   3.375   1.333  0.00  0.00    -0.530 OA
ATOM     10  H   LIG    1        0.859   4.318   1.399  0.00  0.00    +0.370 HD
ENDBRANCH   1   9
BRANCH   1  11
ATOM     11  C   LIG    1       -1.413   3.603   2.566  0.00  0.00    +0.030 C 
BRANCH  11  15
ATOM     12  N   LIG    1       -1.254   3.193   5.000  0.00  0.00    -0.860 N 
ATOM     13  H   LIG    1       -0.827   2.794   5.774  0.00  0.00    +0.400 HD
ATOM     14  H   LIG    1       -2.044   3.745   5.112  0.00  0.00    +0.400 HD
ATOM     15  C   LIG    1       -0.750   2.982   3.768  0.00  0.00    +0.520 C 
ATOM     16  O   LIG    1        0.238   2.293   3.627  0.00  0.00    -0.520 OA
ENDBRANCH  11  15
ENDBRANCH   1  11
BRANCH   6  17
ATOM     17  C   LIG    1        0.320   3.312  -3.343  0.00  0.00    +0.230 C 
BRANCH  17  18
ATOM     18  O   LIG    1        0.854   4.330  -4.192  0.00  0.00    -0.290 OA
BRANCH  18  19
ATOM     19  C   LIG    1        1.409   3.927  -5.364  0.00  0.00    +0.150 A 
ATOM     20  C   LIG    1        1.442   2.601  -5.689  0.00  0.00    -0.100 A 
ATOM     21  C   LIG    1        2.008   2.172  -6.887  0.00  0.00    +0.050 A 
ATOM     22  C   LIG    1        2.545   3.060  -7.769  0.00  0.00    -0.010 A 
ATOM     23  C   LIG    1        2.531   4.434  -7.470  0.00  0.00    -0.020 A 
ATOM     24  C   LIG    1        3.077   5.377  -8.356  0.00  0.00    +0.010 A 
ATOM     25  C   LIG    1        3.047   6.700  -8.034  0.00  0.00    +0.030 A 
ATOM     26  C   LIG    1        2.482   7.133  -6.837  0.00  0.00    +0.000 A 
ATOM     27  C   LIG    1        1.943   6.247  -5.955  0.00  0.00    +0.050 A 
ATOM     28  C   LIG    1        1.951   4.876  -6.255  0.00  0.00    -0.070 A 
ENDBRANCH  18  19
ENDBRANCH  17  18
ENDBRANCH   6  17
TORSDOF 6
