REMARK  Name = ZINCrg00000bj2DE.0
REMARK                            x       y       z     vdW  Elec       q    Type
REMARK                         _______ _______ _______ _____ _____    ______ ____
ROOT
ATOM      1  C   LIG    1       -0.893   2.878   5.727  0.00  0.00    -0.100 A 
ATOM      2  C   LIG    1       -2.176   2.397   5.991  0.00  0.00    +0.040 A 
ATOM      3  C   LIG    1       -2.885   2.874   7.071  0.00  0.00    +0.090 A 
ATOM      4  C   LIG    1       -2.325   3.848   7.900  0.00  0.00    -0.130 A 
ATOM      5  C   LIG    1       -2.834   4.540   9.103  0.00  0.00    +0.560 C 
ATOM      6  N   LIG    1       -1.918   5.410   9.562  0.00  0.00    -0.600 N 
ATOM      7  C   LIG    1       -0.737   5.355   8.693  0.00  0.00    +0.360 C 
ATOM      8  O   LIG    1       -3.924   4.349   9.605  0.00  0.00    -0.510 OA
ATOM      9  C   LIG    1       -1.042   4.331   7.628  0.00  0.00    -0.080 A 
ATOM     10  C   LIG    1       -0.331   3.853   6.554  0.00  0.00    +0.090 A 
ENDROOT
BRANCH   1  17
ATOM     11  C   LIG    1        0.191  -0.688   0.957  0.00  0.00    +0.090 C 
ATOM     12  C   LIG    1       -0.494  -0.115   2.200  0.00  0.00    +0.020 C 
ATOM     13  C   LIG    1        0.553   0.541   3.106  0.00  0.00    +0.310 C 
ATOM     14  N   LIG    1       -0.095   1.035   4.322  0.00  0.00    -0.610 N 
ATOM     15  C   LIG    1       -0.704   0.106   5.275  0.00  0.00    +0.290 C 
ATOM     16  C   LIG    1       -1.892  -0.599   4.612  0.00  0.00    +0.100 C 
ATOM     17  C   LIG    1       -0.131   2.360   4.568  0.00  0.00    +0.560 C 
ATOM     18  O   LIG    1        0.463   3.130   3.838  0.00  0.00    -0.520 OA
ATOM     19  S   LIG    1       -1.308  -1.454   3.119  0.00  0.00    -0.240 S 
ENDBRANCH   1  17
BRANCH   6  20
ATOM     20  C   LIG    1       -2.074   6.272  10.736  0.00  0.00    +0.290 C 
ATOM     21  C   LIG    1       -2.302   5.406  11.980  0.00  0.00    +0.060 C 
ATOM     22  C   LIG    1       -2.574   6.328  13.173  0.00  0.00    +0.100 C 
ATOM     23  C   LIG    1       -3.732   7.232  12.846  0.00  0.00    +0.520 C 
ATOM     24  N   LIG    1       -3.995   7.598  11.582  0.00  0.00    -0.670 N 
ATOM     25  H   LIG    1       -4.746   8.188  11.415  0.00  0.00    +0.420 HD
ATOM     26  O   LIG    1       -4.441   7.638  13.742  0.00  0.00    -0.500 OA
ATOM     27  C   LIG    1       -3.259   7.180  10.541  0.00  0.00    +0.510 C 
ATOM     28  O   LIG    1       -3.554   7.540   9.421  0.00  0.00    -0.480 OA
ENDBRANCH   6  20
TORSDOF 2
