REMARK  Name = ZINCvU0000000DQc.0
REMARK                            x       y       z     vdW  Elec       q    Type
REMARK                         _______ _______ _______ _____ _____    ______ ____
ROOT
ATOM      1  C   LIG    1        1.385  -2.497   2.675  0.00  0.00    +0.240 C 
ATOM      2  C   LIG    1        1.071  -1.893   1.302  0.00  0.00    +0.010 C 
ATOM      3  C   LIG    1        1.717  -0.510   1.198  0.00  0.00    +0.010 C 
ATOM      4  C   LIG    1        3.235  -0.643   1.331  0.00  0.00    +0.010 C 
ATOM      5  C   LIG    1        3.574  -1.232   2.704  0.00  0.00    +0.270 C 
ATOM      6  N   LIG    1        2.841  -2.494   2.870  0.00  0.00    -0.610 N 
ATOM      7  C   LIG    1        3.491  -3.629   3.197  0.00  0.00    +0.520 C 
ATOM      8  O   LIG    1        2.891  -4.681   3.240  0.00  0.00    -0.520 OA
ENDROOT
BRANCH   1   9
ATOM      9  C   LIG    1        0.858  -3.932   2.737  0.00  0.00    +0.170 C 
BRANCH   9  12
ATOM     10  C   LIG    1       -2.719  -3.281   2.993  0.00  0.00    +0.300 A 
ATOM     11  N   LIG    1       -1.454  -3.199   3.267  0.00  0.00    -0.520 NA
ATOM     12  C   LIG    1       -0.635  -3.928   2.532  0.00  0.00    +0.110 A 
ATOM     13  C   LIG    1       -1.235  -4.657   1.590  0.00  0.00    -0.120 A 
ATOM     14  S   LIG    1       -2.969  -4.365   1.694  0.00  0.00    +0.100 S 
BRANCH  10  15
ATOM     15  N   LIG    1       -3.723  -2.591   3.656  0.00  0.00    -0.630 N 
ATOM     16  H   LIG    1       -4.654  -2.778   3.456  0.00  0.00    +0.420 HD
BRANCH  15  21
ATOM     17  C   LIG    1       -2.385   1.319   7.540  0.00  0.00    +0.090 C 
ATOM     18  C   LIG    1       -2.741   0.281   6.507  0.00  0.00    -0.110 A 
ATOM     19  C   LIG    1       -3.904  -0.456   6.642  0.00  0.00    +0.020 A 
ATOM     20  C   LIG    1       -4.232  -1.409   5.698  0.00  0.00    -0.030 A 
ATOM     21  C   LIG    1       -3.394  -1.627   4.612  0.00  0.00    +0.160 A 
ATOM     22  C   LIG    1       -2.224  -0.889   4.483  0.00  0.00    +0.020 A 
ATOM     23  C   LIG    1       -1.904   0.066   5.428  0.00  0.00    +0.020 A 
ENDBRANCH  15  21
ENDBRANCH  10  15
ENDBRANCH   9  12
ENDBRANCH   1   9
BRANCH   7  24
ATOM     24  C   LIG    1        4.965  -3.589   3.508  0.00  0.00    +0.090 C 
BRANCH  24  25
ATOM     25  C   LIG    1        5.480  -5.014   3.721  0.00  0.00    -0.090 C 
ATOM     26  C   LIG    1        5.316  -6.003   2.524  0.00  0.00    +0.030 C 
ATOM     27  C   LIG    1        6.290  -7.173   2.903  0.00  0.00    -0.010 C 
ATOM     28  C   LIG    1        6.926  -6.732   4.257  0.00  0.00    +0.090 C 
ATOM     29  O   LIG    1        5.846  -6.837   5.224  0.00  0.00    -0.380 OA
ATOM     30  C   LIG    1        8.227  -7.441   4.639  0.00  0.00    +0.100 C 
ATOM     31  C   LIG    1        4.888  -5.801   4.933  0.00  0.00    +0.210 C 
ATOM     32  C   LIG    1        7.009  -5.179   4.051  0.00  0.00    +0.010 C 
ENDBRANCH  24  25
ENDBRANCH   7  24
TORSDOF 6
