REMARK  Name = ZINCvU00000003Jk.0
REMARK                            x       y       z     vdW  Elec       q    Type
REMARK                         _______ _______ _______ _____ _____    ______ ____
ROOT
ATOM      1  C   LIG    1        0.028   0.902  -2.822  0.00  0.00    +0.070 C 
ATOM      2  C   LIG    1       -0.155  -0.614  -2.740  0.00  0.00    +0.080 C 
ENDROOT
BRANCH   1   3
ATOM      3  C   LIG    1       -0.507   1.403  -4.138  0.00  0.00    +0.460 A 
ATOM      4  N   LIG    1       -1.411   2.343  -4.130  0.00  0.00    -0.550 NA
ATOM      5  C   LIG    1       -1.921   2.833  -5.273  0.00  0.00    +0.540 A 
ATOM      6  C   LIG    1       -1.449   2.280  -6.556  0.00  0.00    -0.210 A 
ATOM      7  C   LIG    1       -0.493   1.281  -6.504  0.00  0.00    +0.060 A 
ATOM      8  S   LIG    1       -0.072   0.766  -8.130  0.00  0.00    +0.210 S 
ATOM      9  C   LIG    1       -1.189   1.904  -8.858  0.00  0.00    -0.010 A 
ATOM     10  C   LIG    1       -1.826   2.614  -7.923  0.00  0.00    +0.040 A 
ATOM     11  O   LIG    1       -2.763   3.716  -5.248  0.00  0.00    -0.460 OA
ATOM     12  N   LIG    1       -0.039   0.861  -5.273  0.00  0.00    -0.580 N 
ATOM     13  H   LIG    1        0.631   0.161  -5.226  0.00  0.00    +0.420 HD
BRANCH  10  14
ATOM     14  C   LIG    1       -2.829   3.649  -8.248  0.00  0.00    +0.040 A 
ATOM     15  C   LIG    1       -2.666   4.666  -9.136  0.00  0.00    -0.030 A 
ATOM     16  C   LIG    1       -3.867   5.406  -9.130  0.00  0.00    -0.070 A 
ATOM     17  C   LIG    1       -4.691   4.814  -8.244  0.00  0.00    +0.180 A 
ATOM     18  O   LIG    1       -4.060   3.753  -7.712  0.00  0.00    -0.150 OA
ENDBRANCH  10  14
ENDBRANCH   1   3
BRANCH   1  19
ATOM     19  S   LIG    1       -0.874   1.694  -1.462  0.00  0.00    -0.050 S 
BRANCH  19  20
ATOM     20  C   LIG    1       -0.001   1.095   0.011  0.00  0.00    -0.020 C 
ATOM     21  C   LIG    1        1.431   1.632   0.009  0.00  0.00    +0.080 C 
BRANCH  20  24
ATOM     22  N   LIG    1       -0.515   0.950   2.426  0.00  0.00    -0.660 N 
ATOM     23  H   LIG    1        0.025   0.145   2.463  0.00  0.00    +0.410 HD
ATOM     24  C   LIG    1       -0.715   1.574   1.248  0.00  0.00    +0.540 C 
ATOM     25  O   LIG    1       -1.471   2.521   1.184  0.00  0.00    -0.490 OA
BRANCH  22  31
ATOM     26  C   LIG    1       -2.321   4.778   4.927  0.00  0.00    +0.090 C 
ATOM     27  C   LIG    1       -1.972   3.315   4.836  0.00  0.00    -0.070 A 
ATOM     28  C   LIG    1       -2.217   2.478   5.909  0.00  0.00    -0.010 A 
ATOM     29  C   LIG    1       -1.898   1.135   5.828  0.00  0.00    +0.030 A 
ATOM     30  C   LIG    1       -1.334   0.625   4.675  0.00  0.00    -0.120 A 
ATOM     31  C   LIG    1       -1.087   1.463   3.596  0.00  0.00    +0.150 A 
ATOM     32  C   LIG    1       -0.987  -0.839   4.589  0.00  0.00    +0.090 C 
ATOM     33  C   LIG    1       -1.402   2.812   3.682  0.00  0.00    +0.020 A 
ENDBRANCH  22  31
ENDBRANCH  20  24
ENDBRANCH  19  20
ENDBRANCH   1  19
TORSDOF 6
