REMARK  Name = ZINCtV00000L6kqF.0
REMARK                            x       y       z     vdW  Elec       q    Type
REMARK                         _______ _______ _______ _____ _____    ______ ____
ROOT
ATOM      1  C   LIG    1       -0.149   1.182   2.380  0.00  0.00    +0.140 A 
ATOM      2  C   LIG    1        0.975   0.410   2.401  0.00  0.00    +0.010 A 
ATOM      3  C   LIG    1        1.531   0.030   3.636  0.00  0.00    +0.080 A 
ATOM      4  N   LIG    1        2.629  -0.724   3.707  0.00  0.00    -0.380 NA
ATOM      5  C   LIG    1        3.117  -1.057   4.889  0.00  0.00    +0.100 A 
ATOM      6  C   LIG    1        2.496  -0.629   6.087  0.00  0.00    +0.320 A 
ATOM      7  N   LIG    1        3.222  -1.126   7.152  0.00  0.00    -0.490 N 
ATOM      8  C   LIG    1        4.301  -1.867   6.697  0.00  0.00    +0.180 A 
ATOM      9  C   LIG    1        5.308  -2.556   7.365  0.00  0.00    +0.010 A 
ATOM     10  C   LIG    1        6.280  -3.224   6.650  0.00  0.00    +0.110 A 
ATOM     11  C   LIG    1        6.265  -3.216   5.263  0.00  0.00    -0.130 A 
ATOM     12 BR   LIG    1        7.607  -4.138   4.301  0.00  0.00    -0.040 Br
ATOM     13  C   LIG    1        5.275  -2.538   4.583  0.00  0.00    +0.130 A 
ATOM     14  N   LIG    1        1.406   0.119   6.050  0.00  0.00    -0.460 NA
ATOM     15  C   LIG    1        4.288  -1.860   5.295  0.00  0.00    -0.100 A 
ATOM     16  C   LIG    1        0.885   0.474   4.873  0.00  0.00    +0.150 A 
ATOM     17  C   LIG    1       -0.271   1.269   4.789  0.00  0.00    -0.020 A 
ATOM     18  C   LIG    1       -0.764   1.613   3.565  0.00  0.00    +0.160 A 
ENDROOT
BRANCH   1  19
ATOM     19  O   LIG    1       -0.682   1.547   1.184  0.00  0.00    -0.300 OA
BRANCH  19  21
ATOM     20  C   LIG    1       -0.753   1.593  -1.232  0.00  0.00    +0.070 C 
ATOM     21  C   LIG    1       -0.013   1.086   0.008  0.00  0.00    +0.190 C 
ENDBRANCH  19  21
ENDBRANCH   1  19
BRANCH   7  22
ATOM     22  C   LIG    1        2.897  -0.901   8.563  0.00  0.00    +0.300 C 
BRANCH  22  23
ATOM     23  C   LIG    1        3.601   0.366   9.052  0.00  0.00    +0.010 C 
BRANCH  23  24
ATOM     24  C   LIG    1        3.262   0.601  10.526  0.00  0.00    -0.020 C 
ATOM     25  C   LIG    1        1.766   0.888  10.665  0.00  0.00    +0.030 C 
ATOM     26  C   LIG    1        4.062   1.795  11.049  0.00  0.00    +0.030 C 
ENDBRANCH  23  24
ENDBRANCH  22  23
ENDBRANCH   7  22
BRANCH  18  27
ATOM     27  O   LIG    1       -1.879   2.386   3.491  0.00  0.00    -0.290 OA
BRANCH  27  28
ATOM     28  C   LIG    1       -2.466   2.797   4.728  0.00  0.00    +0.190 C 
ATOM     29  C   LIG    1       -3.702   3.653   4.445  0.00  0.00    +0.070 C 
ENDBRANCH  27  28
ENDBRANCH  18  27
TORSDOF 7
