REMARK  Name = ZINCpe00000MG9cs.0
REMARK                            x       y       z     vdW  Elec       q    Type
REMARK                         _______ _______ _______ _____ _____    ______ ____
ROOT
ATOM      1  C   LIG    1       -0.157   1.590   0.177  0.00  0.00    +0.530 C 
ATOM      2  N   LIG    1        0.936   2.361   0.343  0.00  0.00    -0.610 N 
ATOM      3  C   LIG    1        2.261   1.759   0.561  0.00  0.00    +0.250 C 
ATOM      4  C   LIG    1        2.894   2.417   1.793  0.00  0.00    +0.240 C 
ATOM      5  O   LIG    1        2.860   3.838   1.637  0.00  0.00    -0.380 OA
ATOM      6  C   LIG    1        1.542   4.386   1.555  0.00  0.00    +0.140 C 
ATOM      7  C   LIG    1        0.841   3.829   0.306  0.00  0.00    +0.290 C 
ATOM      8  O   LIG    1       -1.239   2.104  -0.007  0.00  0.00    -0.500 OA
ENDROOT
BRANCH   1  10
ATOM      9  C   LIG    1        0.816  -0.381  -0.971  0.00  0.00    +0.060 C 
ATOM     10  C   LIG    1       -0.032   0.088   0.212  0.00  0.00    +0.170 C 
BRANCH  10  11
ATOM     11  O   LIG    1       -1.332  -0.499   0.130  0.00  0.00    -0.280 OA
BRANCH  11  12
ATOM     12  C   LIG    1       -1.481  -1.745   0.653  0.00  0.00    +0.160 A 
ATOM     13  C   LIG    1       -2.739  -2.326   0.715  0.00  0.00    -0.020 A 
ATOM     14  C   LIG    1       -2.888  -3.595   1.242  0.00  0.00    +0.090 A 
ATOM     15  C   LIG    1       -1.787  -4.281   1.719  0.00  0.00    -0.050 A 
ATOM     16  C   LIG    1       -0.530  -3.701   1.664  0.00  0.00    +0.140 A 
ATOM     17  F   LIG    1        0.545  -4.372   2.131  0.00  0.00    -0.130 F 
ATOM     18  C   LIG    1       -0.376  -2.433   1.131  0.00  0.00    -0.110 A 
ENDBRANCH  11  12
ENDBRANCH  10  11
ENDBRANCH   1  10
BRANCH   6  19
ATOM     19  C   LIG    1        1.628   5.910   1.454  0.00  0.00    +0.270 C 
BRANCH  19  20
ATOM     20  N   LIG    1        2.307   6.443   2.643  0.00  0.00    -0.360 N 
ATOM     21  C   LIG    1        1.488   6.178   3.833  0.00  0.00    +0.310 C 
ATOM     22  H   LIG    1        3.205   5.995   2.746  0.00  0.00    +0.430 HD
BRANCH  20  23
ATOM     23  C   LIG    1        2.496   7.892   2.491  0.00  0.00    +0.160 C 
BRANCH  23  24
ATOM     24  C   LIG    1        3.299   8.418   3.652  0.00  0.00    +0.490 C 
ATOM     25  O   LIG    1        3.570   9.605   3.718  0.00  0.00    -0.640 OA
ATOM     26  O   LIG    1        3.679   7.657   4.526  0.00  0.00    -0.670 OA
ENDBRANCH  23  24
ENDBRANCH  20  23
ENDBRANCH  19  20
ENDBRANCH   6  19
TORSDOF 7
