REMARK  Name = ZINCpe00000MG9cs.1
REMARK                            x       y       z     vdW  Elec       q    Type
REMARK                         _______ _______ _______ _____ _____    ______ ____
ROOT
ATOM      1  C   LIG    1        1.365  -3.970   3.204  0.00  0.00    +0.530 C 
ATOM      2  N   LIG    1        1.630  -2.975   2.335  0.00  0.00    -0.610 N 
ATOM      3  C   LIG    1        2.839  -2.148   2.475  0.00  0.00    +0.250 C 
ATOM      4  C   LIG    1        2.425  -0.673   2.423  0.00  0.00    +0.240 C 
ATOM      5  O   LIG    1        1.634  -0.447   1.254  0.00  0.00    -0.380 OA
ATOM      6  C   LIG    1        0.408  -1.181   1.226  0.00  0.00    +0.140 C 
ATOM      7  C   LIG    1        0.718  -2.683   1.217  0.00  0.00    +0.290 C 
ATOM      8  O   LIG    1        0.363  -4.640   3.072  0.00  0.00    -0.500 OA
ENDROOT
BRANCH   1  10
ATOM      9  C   LIG    1        3.655  -4.728   3.780  0.00  0.00    +0.050 C 
ATOM     10  C   LIG    1        2.314  -4.250   4.341  0.00  0.00    +0.170 C 
BRANCH  10  11
ATOM     11  O   LIG    1        1.762  -5.264   5.183  0.00  0.00    -0.280 OA
BRANCH  11  12
ATOM     12  C   LIG    1        2.187  -5.292   6.474  0.00  0.00    +0.160 A 
ATOM     13  C   LIG    1        1.713  -6.267   7.340  0.00  0.00    -0.020 A 
ATOM     14  C   LIG    1        2.150  -6.298   8.650  0.00  0.00    +0.090 A 
ATOM     15  C   LIG    1        3.049  -5.351   9.104  0.00  0.00    -0.050 A 
ATOM     16  C   LIG    1        3.519  -4.373   8.243  0.00  0.00    +0.140 A 
ATOM     17  F   LIG    1        4.398  -3.448   8.688  0.00  0.00    -0.130 F 
ATOM     18  C   LIG    1        3.089  -4.342   6.929  0.00  0.00    -0.110 A 
ENDBRANCH  11  12
ENDBRANCH  10  11
ENDBRANCH   1  10
BRANCH   6  19
ATOM     19  C   LIG    1       -0.379  -0.815  -0.033  0.00  0.00    +0.270 C 
BRANCH  19  20
ATOM     20  N   LIG    1       -0.699   0.619  -0.011  0.00  0.00    -0.360 N 
ATOM     21  C   LIG    1       -1.315   1.004  -1.288  0.00  0.00    +0.320 C 
ATOM     22  H   LIG    1        0.148   1.150   0.127  0.00  0.00    +0.430 HD
BRANCH  20  23
ATOM     23  C   LIG    1       -1.635   0.895   1.087  0.00  0.00    +0.150 C 
BRANCH  23  24
ATOM     24  C   LIG    1       -1.867   2.381   1.188  0.00  0.00    +0.490 C 
ATOM     25  O   LIG    1       -2.617   2.824   2.041  0.00  0.00    -0.640 OA
ATOM     26  O   LIG    1       -1.305   3.139   0.416  0.00  0.00    -0.670 OA
ENDBRANCH  23  24
ENDBRANCH  20  23
ENDBRANCH  19  20
ENDBRANCH   6  19
TORSDOF 7
