REMARK  Name = ZINCrH000004qqiR.1
REMARK                            x       y       z     vdW  Elec       q    Type
REMARK                         _______ _______ _______ _____ _____    ______ ____
ROOT
ATOM      1  N   LIG    1        1.126  -0.782   3.283  0.00  0.00    -0.510 N 
ATOM      2  H   LIG    1        1.972  -0.902   2.824  0.00  0.00    +0.430 HD
ATOM      3  C   LIG    1       -0.027  -0.787   2.586  0.00  0.00    +0.600 C 
ATOM      4  O   LIG    1       -1.087  -0.636   3.162  0.00  0.00    -0.510 OA
ENDROOT
BRANCH   3   5
ATOM      5  C   LIG    1       -0.003  -0.976   1.125  0.00  0.00    -0.240 A 
ATOM      6  C   LIG    1       -0.018  -0.022   0.139  0.00  0.00    +0.040 A 
ATOM      7  O   LIG    1        0.010  -0.677  -1.024  0.00  0.00    +0.120 OA
ATOM      8  N   LIG    1        0.048  -1.876  -0.898  0.00  0.00    -0.320 NA
ATOM      9  C   LIG    1       -0.064   1.472   0.331  0.00  0.00    +0.210 C 
ATOM     10  C   LIG    1        0.043  -2.240   0.359  0.00  0.00    +0.090 A 
BRANCH  10  11
ATOM     11  C   LIG    1        0.076  -3.620   0.899  0.00  0.00    -0.060 A 
ATOM     12  C   LIG    1       -0.836  -4.011   1.880  0.00  0.00    +0.140 A 
ATOM     13  C   LIG    1       -0.799  -5.301   2.378  0.00  0.00    +0.000 A 
ATOM     14  C   LIG    1        0.138  -6.200   1.907  0.00  0.00    +0.090 A 
ATOM     15  C   LIG    1        1.045  -5.818   0.935  0.00  0.00    +0.030 A 
ATOM     16  F   LIG    1       -1.753  -3.133   2.341  0.00  0.00    -0.110 F 
ATOM     17  C   LIG    1        1.016  -4.535   0.425  0.00  0.00    +0.020 A 
ATOM     18 CL   LIG    1        2.152  -4.060  -0.799  0.00  0.00    -0.040 Cl
ENDBRANCH  10  11
ENDBRANCH   3   5
BRANCH   1  20
ATOM     19  C   LIG    1        2.256  -0.597   5.370  0.00  0.00    +0.600 C 
ATOM     20  N   LIG    1        1.103  -0.602   4.673  0.00  0.00    -0.510 N 
ATOM     21  H   LIG    1        0.257  -0.482   5.132  0.00  0.00    +0.430 HD
ATOM     22  O   LIG    1        3.316  -0.748   4.794  0.00  0.00    -0.540 OA
BRANCH  19  26
ATOM     23  C   LIG    1        0.667   0.130  10.164  0.00  0.00    +0.180 C 
ATOM     24  C   LIG    1        1.514  -0.087   8.936  0.00  0.00    -0.000 A 
ATOM     25  C   LIG    1        1.049  -0.214   7.684  0.00  0.00    -0.030 A 
ATOM     26  C   LIG    1        2.232  -0.408   6.832  0.00  0.00    -0.250 A 
ATOM     27  C   LIG    1        3.302  -0.383   7.678  0.00  0.00    +0.100 A 
ATOM     28  C   LIG    1        4.745  -0.547   7.278  0.00  0.00    +0.190 C 
ATOM     29  O   LIG    1        2.852  -0.186   8.921  0.00  0.00    -0.170 OA
ENDBRANCH  19  26
ENDBRANCH   1  20
TORSDOF 4
