REMARK  Name = ZINCpe000000UI59.0
REMARK                            x       y       z     vdW  Elec       q    Type
REMARK                         _______ _______ _______ _____ _____    ______ ____
ROOT
ATOM      1  C   LIG    1       -2.551   1.063  -4.788  0.00  0.00    +0.510 C 
ATOM      2  N   LIG    1       -2.025   1.549  -3.646  0.00  0.00    -0.610 N 
ATOM      3  C   LIG    1       -0.627   2.002  -3.591  0.00  0.00    +0.300 C 
ATOM      4  C   LIG    1        0.059   1.323  -2.401  0.00  0.00    +0.170 C 
ATOM      5  N   LIG    1       -0.723   1.572  -1.182  0.00  0.00    -0.530 NA
ATOM      6  C   LIG    1       -2.062   0.976  -1.276  0.00  0.00    +0.170 C 
ATOM      7  C   LIG    1       -2.834   1.641  -2.421  0.00  0.00    +0.290 C 
ATOM      8  O   LIG    1       -1.869   0.995  -5.788  0.00  0.00    -0.530 OA
ENDROOT
BRANCH   1   9
ATOM      9  C   LIG    1       -3.986   0.605  -4.821  0.00  0.00    +0.360 C 
BRANCH   9  14
ATOM     10  C   LIG    1       -4.501  -2.580  -8.601  0.00  0.00    +0.350 C 
ATOM     11  N   LIG    1       -4.537  -1.324  -7.847  0.00  0.00    -0.630 N 
ATOM     12  C   LIG    1       -4.989  -0.013  -8.344  0.00  0.00    +0.330 C 
ATOM     13  C   LIG    1       -4.810   0.901  -7.148  0.00  0.00    +0.530 C 
ATOM     14  N   LIG    1       -4.314   0.124  -6.165  0.00  0.00    -0.560 N 
ATOM     15  O   LIG    1       -5.060   2.086  -7.088  0.00  0.00    -0.460 OA
ATOM     16  C   LIG    1       -4.163  -1.143  -6.568  0.00  0.00    +0.710 C 
ATOM     17  O   LIG    1       -3.735  -2.032  -5.857  0.00  0.00    -0.540 OA
ENDBRANCH   9  14
ENDBRANCH   1   9
BRANCH   5  18
ATOM     18  C   LIG    1       -0.013   1.086   0.008  0.00  0.00    +0.230 C 
BRANCH  18  19
ATOM     19  C   LIG    1       -0.718   1.572   1.248  0.00  0.00    -0.080 A 
ATOM     20  C   LIG    1       -0.360   2.779   1.818  0.00  0.00    +0.050 A 
ATOM     21  C   LIG    1       -1.010   3.228   2.952  0.00  0.00    +0.020 A 
ATOM     22  C   LIG    1       -2.012   2.464   3.523  0.00  0.00    -0.030 A 
ATOM     23  C   LIG    1       -2.367   1.253   2.955  0.00  0.00    +0.020 A 
ATOM     24 CL   LIG    1       -2.825   3.024   4.951  0.00  0.00    -0.070 Cl
ATOM     25  C   LIG    1       -1.719   0.808   1.817  0.00  0.00    +0.030 A 
ENDBRANCH  18  19
ENDBRANCH   5  18
TORSDOF 4
