REMARK  Name = ZINCrD000000CWKb.0
REMARK                            x       y       z     vdW  Elec       q    Type
REMARK                         _______ _______ _______ _____ _____    ______ ____
ROOT
ATOM      1  C   LIG    1        0.384   6.071   1.024  0.00  0.00    +0.150 A 
ATOM      2  N   LIG    1        0.177   7.303   0.620  0.00  0.00    -0.250 NA
ATOM      3  N   LIG    1       -0.376   7.297  -0.540  0.00  0.00    -0.240 NA
ATOM      4  C   LIG    1       -0.551   6.072  -0.948  0.00  0.00    +0.180 A 
ATOM      5  N   LIG    1       -0.069   5.245   0.032  0.00  0.00    -0.410 N 
ENDROOT
BRANCH   5   6
ATOM      6  C   LIG    1       -0.050   3.842   0.024  0.00  0.00    +0.090 A 
ATOM      7  C   LIG    1        1.161   3.163   0.008  0.00  0.00    +0.030 A 
ATOM      8  C   LIG    1        1.176   1.782   0.000  0.00  0.00    +0.040 A 
ATOM      9  C   LIG    1       -0.013   1.076   0.008  0.00  0.00    +0.040 A 
ATOM     10  C   LIG    1       -1.220   1.750   0.017  0.00  0.00    +0.030 A 
ATOM     11  C   LIG    1       -1.242   3.131   0.031  0.00  0.00    +0.040 A 
ENDBRANCH   5   6
BRANCH   1  12
ATOM     12  S   LIG    1        1.110   5.577   2.551  0.00  0.00    +0.070 S 
BRANCH  12  18
ATOM     13  O   LIG    1        2.416   8.275   1.357  0.00  0.00    -0.410 OA
ATOM     14  C   LIG    1        2.507   7.926   2.510  0.00  0.00    +0.490 C 
ATOM     15  O   LIG    1        3.577   8.124   3.298  0.00  0.00    -0.340 OA
ATOM     16  C   LIG    1        3.185   8.040   4.700  0.00  0.00    +0.270 C 
ATOM     17  C   LIG    1        2.007   7.039   4.711  0.00  0.00    +0.090 C 
ATOM     18  C   LIG    1        1.431   7.199   3.287  0.00  0.00    -0.010 C 
ENDBRANCH  12  18
ENDBRANCH   1  12
BRANCH   4  19
ATOM     19  C   LIG    1       -1.167   5.644  -2.255  0.00  0.00    +0.350 C 
BRANCH  19  20
ATOM     20  O   LIG    1       -2.577   5.489  -2.088  0.00  0.00    -0.300 OA
BRANCH  20  21
ATOM     21  C   LIG    1       -3.289   5.103  -3.180  0.00  0.00    +0.100 A 
ATOM     22  C   LIG    1       -2.644   4.880  -4.386  0.00  0.00    -0.040 A 
ATOM     23  C   LIG    1       -3.370   4.489  -5.496  0.00  0.00    +0.050 A 
ATOM     24  C   LIG    1       -4.738   4.319  -5.404  0.00  0.00    +0.010 A 
ATOM     25  C   LIG    1       -5.386   4.541  -4.203  0.00  0.00    +0.030 A 
ATOM     26  C   LIG    1       -4.665   4.927  -3.088  0.00  0.00    +0.070 A 
ATOM     27  F   LIG    1       -5.296   5.138  -1.913  0.00  0.00    -0.130 F 
ENDBRANCH  20  21
ENDBRANCH  19  20
ENDBRANCH   4  19
TORSDOF 6
