REMARK  Name = ZINCrg000000siim.1
REMARK                            x       y       z     vdW  Elec       q    Type
REMARK                         _______ _______ _______ _____ _____    ______ ____
ROOT
ATOM      1  N   LIG    1       -5.167   4.671   1.275  0.00  0.00    -0.520 NA
ATOM      2  C   LIG    1       -3.805   5.123   1.585  0.00  0.00    +0.170 C 
ATOM      3  C   LIG    1       -3.770   5.712   2.998  0.00  0.00    +0.040 C 
ATOM      4  C   LIG    1       -4.749   6.886   3.080  0.00  0.00    -0.020 C 
ATOM      5  C   LIG    1       -6.152   6.398   2.706  0.00  0.00    +0.050 C 
ATOM      6  C   LIG    1       -6.117   5.790   1.302  0.00  0.00    +0.190 C 
ENDROOT
BRANCH   4   7
ATOM      7  C   LIG    1       -4.765   7.433   4.484  0.00  0.00    +0.520 C 
ATOM      8  N   LIG    1       -3.755   8.216   4.913  0.00  0.00    -0.620 N 
ATOM      9  C   LIG    1       -2.565   8.443   4.078  0.00  0.00    +0.250 C 
ATOM     10  C   LIG    1       -2.316   9.958   4.000  0.00  0.00    +0.220 C 
ATOM     11  O   LIG    1       -2.273  10.495   5.325  0.00  0.00    -0.380 OA
ATOM     12  C   LIG    1       -3.496  10.354   6.053  0.00  0.00    +0.220 C 
ATOM     13  C   LIG    1       -3.808   8.864   6.233  0.00  0.00    +0.260 C 
ATOM     14  O   LIG    1       -5.685   7.168   5.228  0.00  0.00    -0.530 OA
ENDBRANCH   4   7
BRANCH   1  15
ATOM     15  C   LIG    1       -5.209   3.975  -0.018  0.00  0.00    +0.300 C 
BRANCH  15  24
ATOM     16  C   LIG    1       -6.712   8.313  -2.023  0.00  0.00    +0.140 C 
ATOM     17  C   LIG    1       -5.420   7.959  -2.714  0.00  0.00    -0.100 A 
ATOM     18  C   LIG    1       -4.910   8.776  -3.678  0.00  0.00    +0.110 A 
ATOM     19  C   LIG    1       -3.708   8.432  -4.311  0.00  0.00    +0.000 A 
ATOM     20  C   LIG    1       -3.059   7.298  -3.966  0.00  0.00    +0.270 A 
ATOM     21  N   LIG    1       -3.562   6.472  -3.007  0.00  0.00    -0.430 N 
ATOM     22  C   LIG    1       -2.899   5.342  -2.683  0.00  0.00    +0.510 A 
ATOM     23  C   LIG    1       -3.430   4.504  -1.695  0.00  0.00    -0.170 A 
ATOM     24  C   LIG    1       -4.616   4.860  -1.084  0.00  0.00    +0.180 A 
ATOM     25  N   LIG    1       -5.227   5.983  -1.426  0.00  0.00    -0.530 NA
ATOM     26  O   LIG    1       -1.852   5.055  -3.242  0.00  0.00    -0.530 OA
ATOM     27  C   LIG    1       -4.731   6.783  -2.369  0.00  0.00    +0.390 A 
ENDBRANCH  15  24
ENDBRANCH   1  15
TORSDOF 3
