REMARK  Name = ZINCrH000004tFHN.0
REMARK                            x       y       z     vdW  Elec       q    Type
REMARK                         _______ _______ _______ _____ _____    ______ ____
ROOT
ATOM      1  O   LIG    1        3.377   3.583   0.091  0.00  0.00    -0.510 OA
ATOM      2  C   LIG    1        2.319   4.174   0.104  0.00  0.00    +0.510 C 
ATOM      3  N   LIG    1        1.162   3.488   0.009  0.00  0.00    -0.670 N 
ATOM      4  H   LIG    1        0.320   3.965  -0.058  0.00  0.00    +0.410 HD
ENDROOT
BRANCH   3   5
ATOM      5  C   LIG    1        1.177   2.089   0.008  0.00  0.00    +0.180 A 
ATOM      6  C   LIG    1        0.234   1.385  -0.730  0.00  0.00    -0.050 A 
ATOM      7  C   LIG    1        0.249   0.003  -0.732  0.00  0.00    +0.070 A 
ATOM      8  C   LIG    1        1.199  -0.681   0.001  0.00  0.00    -0.090 A 
ATOM      9  C   LIG    1        2.143   0.018   0.741  0.00  0.00    +0.150 A 
ATOM     10  C   LIG    1        2.132   1.403   0.745  0.00  0.00    -0.010 A 
BRANCH   9  11
ATOM     11  O   LIG    1        3.078  -0.657   1.462  0.00  0.00    -0.310 OA
BRANCH  11  12
ATOM     12  C   LIG    1        3.029  -2.084   1.412  0.00  0.00    +0.200 C 
BRANCH  12  13
ATOM     13  C   LIG    1        4.150  -2.663   2.278  0.00  0.00    +0.350 C 
BRANCH  13  14
ATOM     14  N   LIG    1        4.101  -4.126   2.227  0.00  0.00    -0.380 N 
ATOM     15  C   LIG    1        5.116  -4.943   1.877  0.00  0.00    +0.240 A 
ATOM     16  C   LIG    1        4.667  -6.217   1.958  0.00  0.00    -0.120 A 
ATOM     17  C   LIG    1        3.332  -6.177   2.372  0.00  0.00    +0.240 A 
ATOM     18  N   LIG    1        2.993  -4.925   2.538  0.00  0.00    -0.300 NA
ENDBRANCH  13  14
ENDBRANCH  12  13
ENDBRANCH  11  12
ENDBRANCH   9  11
ENDBRANCH   3   5
BRANCH   2  19
ATOM     19  C   LIG    1        2.296   5.676   0.225  0.00  0.00    +0.060 C 
BRANCH  19  20
ATOM     20  C   LIG    1        3.730   6.202   0.316  0.00  0.00    +0.050 C 
BRANCH  20  21
ATOM     21  C   LIG    1        3.708   7.727   0.439  0.00  0.00    +0.180 C 
BRANCH  21  22
ATOM     22  O   LIG    1        5.047   8.218   0.523  0.00  0.00    -0.310 OA
BRANCH  22  23
ATOM     23  C   LIG    1        5.205   9.563   0.638  0.00  0.00    +0.130 A 
ATOM     24  C   LIG    1        4.094  10.393   0.663  0.00  0.00    -0.080 A 
ATOM     25  C   LIG    1        4.257  11.760   0.784  0.00  0.00    +0.040 A 
ATOM     26  C   LIG    1        5.526  12.300   0.871  0.00  0.00    -0.040 A 
ATOM     27  C   LIG    1        6.636  11.475   0.841  0.00  0.00    +0.050 A 
ATOM     28  C   LIG    1        6.478  10.108   0.725  0.00  0.00    -0.020 A 
ENDBRANCH  22  23
ENDBRANCH  21  22
ENDBRANCH  20  21
ENDBRANCH  19  20
ENDBRANCH   2  19
TORSDOF 10
