REMARK  Name = ZINCvU0000000GPj.0
REMARK                            x       y       z     vdW  Elec       q    Type
REMARK                         _______ _______ _______ _____ _____    ______ ____
ROOT
ATOM      1  C   LIG    1       -0.370   5.129   0.567  0.00  0.00    -0.060 A 
ATOM      2  C   LIG    1       -1.013   5.641   1.696  0.00  0.00    +0.070 A 
ATOM      3  C   LIG    1       -1.537   4.783   2.640  0.00  0.00    -0.040 A 
ATOM      4  C   LIG    1       -1.428   3.411   2.471  0.00  0.00    +0.120 A 
ATOM      5  C   LIG    1       -0.787   2.893   1.346  0.00  0.00    +0.100 A 
ATOM      6  C   LIG    1       -0.255   3.747   0.400  0.00  0.00    +0.000 A 
ENDROOT
BRANCH   1   8
ATOM      7  N   LIG    1        0.088   7.326  -0.284  0.00  0.00    -0.340 NA
ATOM      8  C   LIG    1        0.191   6.046  -0.443  0.00  0.00    +0.290 C 
BRANCH   7   9
ATOM      9  O   LIG    1        0.627   8.206  -1.254  0.00  0.00    -0.230 OA
BRANCH   9  10
ATOM     10  C   LIG    1        0.441   9.590  -0.951  0.00  0.00    +0.250 C 
BRANCH  10  14
ATOM     11  C   LIG    1        2.167  11.974  -4.053  0.00  0.00    -0.120 A 
ATOM     12  C   LIG    1        0.833  11.572  -4.138  0.00  0.00    +0.080 A 
ATOM     13  C   LIG    1        0.282  10.803  -3.134  0.00  0.00    +0.030 A 
ATOM     14  C   LIG    1        1.049  10.430  -2.044  0.00  0.00    -0.060 A 
ATOM     15  C   LIG    1        2.371  10.829  -1.950  0.00  0.00    +0.030 A 
ATOM     16  C   LIG    1        2.936  11.594  -2.950  0.00  0.00    +0.080 A 
BRANCH  11  17
ATOM     17  C   LIG    1        2.764  12.798  -5.124  0.00  0.00    +0.510 C 
ATOM     18  O   LIG    1        2.093  13.128  -6.081  0.00  0.00    -0.500 OA
BRANCH  17  20
ATOM     19  C   LIG    1        4.571  13.993  -6.127  0.00  0.00    +0.290 C 
ATOM     20  O   LIG    1        4.051  13.184  -5.038  0.00  0.00    -0.350 OA
ENDBRANCH  17  20
ENDBRANCH  11  17
ENDBRANCH  10  14
ENDBRANCH   9  10
ENDBRANCH   7   9
ENDBRANCH   1   8
BRANCH   5  21
ATOM     21  O   LIG    1       -0.682   1.547   1.184  0.00  0.00    -0.300 OA
ATOM     22  C   LIG    1       -0.013   1.086   0.008  0.00  0.00    +0.240 C 
ENDBRANCH   5  21
BRANCH   4  23
ATOM     23  O   LIG    1       -1.947   2.569   3.403  0.00  0.00    -0.290 OA
BRANCH  23  24
ATOM     24  C   LIG    1       -2.590   3.167   4.530  0.00  0.00    +0.260 C 
BRANCH  24  25
ATOM     25  C   LIG    1       -3.099   2.087   5.450  0.00  0.00    -0.090 A 
ATOM     26  C   LIG    1       -4.377   1.586   5.286  0.00  0.00    +0.060 A 
ATOM     27  C   LIG    1       -4.843   0.592   6.125  0.00  0.00    +0.030 A 
ATOM     28  C   LIG    1       -4.034   0.106   7.137  0.00  0.00    -0.020 A 
ATOM     29  C   LIG    1       -2.757   0.612   7.304  0.00  0.00    +0.030 A 
ATOM     30 CL   LIG    1       -4.621  -1.137   8.197  0.00  0.00    -0.060 Cl
ATOM     31  C   LIG    1       -2.290   1.602   6.460  0.00  0.00    +0.060 A 
ENDBRANCH  24  25
ENDBRANCH  23  24
ENDBRANCH   4  23
TORSDOF 10
