REMARK  Name = ZINCpe000000VNMY.2
REMARK                            x       y       z     vdW  Elec       q    Type
REMARK                         _______ _______ _______ _____ _____    ______ ____
ROOT
ATOM      1  C   LIG    1        3.152  -2.282   1.775  0.00  0.00    +0.240 C 
ENDROOT
BRANCH   1   2
ATOM      2  N   LIG    1        3.445  -2.183   0.339  0.00  0.00    -0.520 NA
ATOM      3  C   LIG    1        2.371  -2.792  -0.461  0.00  0.00    +0.240 C 
ATOM      4  C   LIG    1        1.032  -2.202  -0.017  0.00  0.00    +0.100 C 
ATOM      5  C   LIG    1        1.113  -0.696  -0.016  0.00  0.00    +0.070 A 
ATOM      6  N   LIG    1        0.002  -0.004   0.002  0.00  0.00    -0.220 NA
ATOM      7  N   LIG    1       -0.015   1.278   0.009  0.00  0.00    -0.340 N 
ATOM      8  C   LIG    1        1.121   2.001   0.002  0.00  0.00    +0.480 A 
ATOM      9  C   LIG    1        2.362   1.329  -0.020  0.00  0.00    -0.030 A 
ATOM     10  O   LIG    1        1.078   3.221   0.014  0.00  0.00    -0.530 OA
ATOM     11  C   LIG    1       -1.304   1.974   0.019  0.00  0.00    +0.360 C 
ATOM     12  C   LIG    1        2.348  -0.038  -0.031  0.00  0.00    -0.060 A 
ATOM     13  C   LIG    1        3.651  -0.787  -0.061  0.00  0.00    +0.290 C 
ENDBRANCH   1   2
BRANCH   1  17
ATOM     14  C   LIG    1        6.543  -1.067   3.990  0.00  0.00    +0.400 A 
ATOM     15  C   LIG    1        6.419  -2.412   3.656  0.00  0.00    -0.110 A 
ATOM     16  C   LIG    1        5.313  -2.826   2.936  0.00  0.00    +0.120 A 
ATOM     17  C   LIG    1        4.370  -1.877   2.565  0.00  0.00    -0.200 A 
ATOM     18  C   LIG    1        4.557  -0.559   2.931  0.00  0.00    +0.290 A 
ATOM     19  N   LIG    1        5.620  -0.193   3.622  0.00  0.00    -0.540 NA
BRANCH  14  20
ATOM     20  N   LIG    1        7.647  -0.638   4.718  0.00  0.00    -0.600 N 
ATOM     21  C   LIG    1        8.726  -1.576   5.035  0.00  0.00    +0.300 C 
BRANCH  20  22
ATOM     22  C   LIG    1        7.731   0.754   5.169  0.00  0.00    +0.310 C 
BRANCH  22  23
ATOM     23  C   LIG    1        7.090   0.882   6.552  0.00  0.00    +0.150 C 
BRANCH  23  25
ATOM     24  C   LIG    1        7.334   0.183   8.832  0.00  0.00    +0.200 C 
ATOM     25  O   LIG    1        7.851   0.131   7.501  0.00  0.00    -0.390 OA
ENDBRANCH  23  25
ENDBRANCH  22  23
ENDBRANCH  20  22
ENDBRANCH  14  20
ENDBRANCH   1  17
TORSDOF 6
