REMARK  Name = ZINCrD00000gYB1I.0
REMARK                            x       y       z     vdW  Elec       q    Type
REMARK                         _______ _______ _______ _____ _____    ______ ____
ROOT
ATOM      1  N   LIG    1        0.090   1.835   0.517  0.00  0.00    -0.690 N 
ATOM      2  H   LIG    1        0.411   0.922   0.463  0.00  0.00    +0.410 HD
ATOM      3  C   LIG    1        0.952   2.838   0.782  0.00  0.00    +0.570 C 
ATOM      4  O   LIG    1        0.550   3.982   0.849  0.00  0.00    -0.520 OA
ENDROOT
BRANCH   3   5
ATOM      5  C   LIG    1        2.390   2.543   0.992  0.00  0.00    +0.150 A 
ATOM      6  N   LIG    1        2.809   1.294   0.922  0.00  0.00    -0.440 NA
ATOM      7  C   LIG    1        4.092   0.988   1.099  0.00  0.00    +0.170 A 
ATOM      8  C   LIG    1        4.559  -0.340   1.022  0.00  0.00    -0.120 A 
ATOM      9  C   LIG    1        5.886  -0.580   1.220  0.00  0.00    +0.300 A 
ATOM     10  N   LIG    1        6.744   0.396   1.482  0.00  0.00    -0.470 NA
ATOM     11  C   LIG    1        6.382   1.654   1.568  0.00  0.00    +0.360 A 
ATOM     12 BR   LIG    1        3.368  -1.761   0.651  0.00  0.00    -0.010 Br
ATOM     13  C   LIG    1        5.037   2.010   1.381  0.00  0.00    -0.150 A 
ATOM     14  C   LIG    1        4.600   3.344   1.464  0.00  0.00    +0.130 A 
ATOM     15  C   LIG    1        3.272   3.599   1.267  0.00  0.00    +0.030 A 
ENDBRANCH   3   5
BRANCH   1  21
ATOM     16  C   LIG    1       -1.538   0.675   3.514  0.00  0.00    +0.550 C 
ATOM     17  N   LIG    1       -2.013   0.846   2.264  0.00  0.00    -0.610 N 
ATOM     18  C   LIG    1       -2.505  -0.299   1.487  0.00  0.00    +0.270 C 
ATOM     19  C   LIG    1       -1.780  -0.327   0.137  0.00  0.00    +0.020 C 
ATOM     20  C   LIG    1       -1.953   1.026  -0.558  0.00  0.00    -0.010 C 
ATOM     21  C   LIG    1       -1.329   2.127   0.303  0.00  0.00    +0.230 C 
ATOM     22  C   LIG    1       -1.259   0.990  -1.921  0.00  0.00    +0.030 C 
ATOM     23  C   LIG    1       -2.049   2.182   1.654  0.00  0.00    +0.280 C 
ATOM     24  O   LIG    1       -1.041   1.611   4.109  0.00  0.00    -0.540 OA
BRANCH  16  27
ATOM     25  C   LIG    1       -0.140   0.209   5.924  0.00  0.00    +0.100 C 
ATOM     26  C   LIG    1       -1.035  -0.850   5.334  0.00  0.00    -0.020 C 
ATOM     27  C   LIG    1       -1.621  -0.645   4.157  0.00  0.00    -0.120 C 
ATOM     28  C   LIG    1       -1.266  -2.141   6.077  0.00  0.00    +0.100 C 
ENDBRANCH  16  27
ENDBRANCH   1  21
TORSDOF 3
