REMARK  Name = ZINCvU0000000Jkx.1
REMARK                            x       y       z     vdW  Elec       q    Type
REMARK                         _______ _______ _______ _____ _____    ______ ____
ROOT
ATOM      1  C   LIG    1        3.752  -0.805  -0.234  0.00  0.00    -0.160 A 
ATOM      2  C   LIG    1        4.942  -0.078  -0.303  0.00  0.00    +0.140 A 
ATOM      3  C   LIG    1        6.150  -0.722  -0.138  0.00  0.00    +0.030 A 
ATOM      4  C   LIG    1        6.185  -2.088   0.086  0.00  0.00    +0.080 A 
ATOM      5  C   LIG    1        5.008  -2.816   0.149  0.00  0.00    -0.680 A 
ATOM      6 CL   LIG    1        7.711  -2.892   0.286  0.00  0.00    -0.020 Cl
ATOM      7  C   LIG    1        3.794  -2.183  -0.010  0.00  0.00    +0.230 A 
ENDROOT
BRANCH   1   9
ATOM      8  O   LIG    1        1.419  -0.757  -0.350  0.00  0.00    -0.500 OA
ATOM      9  C   LIG    1        2.454  -0.121  -0.406  0.00  0.00    +0.570 C 
ATOM     10  N   LIG    1        2.416   1.209  -0.623  0.00  0.00    -0.670 N 
ATOM     11  H   LIG    1        3.242   1.705  -0.739  0.00  0.00    +0.430 HD
BRANCH  10  12
ATOM     12  C   LIG    1        1.187   1.874  -0.679  0.00  0.00    +0.220 A 
ATOM     13  C   LIG    1        0.086   1.253  -1.254  0.00  0.00    +0.060 A 
ATOM     14  C   LIG    1       -1.125   1.914  -1.314  0.00  0.00    +0.130 A 
ATOM     15  C   LIG    1       -1.245   3.191  -0.793  0.00  0.00    -0.050 A 
ATOM     16  C   LIG    1       -0.149   3.812  -0.220  0.00  0.00    +0.140 A 
ATOM     17 CL   LIG    1       -2.770   4.016  -0.864  0.00  0.00    -0.030 Cl
ATOM     18  C   LIG    1        1.066   3.158  -0.162  0.00  0.00    -0.060 A 
BRANCH  18  19
ATOM     19  N   LIG    1        2.237   3.823   0.451  0.00  0.00    +0.040 N 
ATOM     20  O   LIG    1        3.327   3.280   0.427  0.00  0.00    -0.180 OA
ATOM     21  O   LIG    1        2.111   4.913   0.980  0.00  0.00    -0.130 OA
ENDBRANCH  18  19
ENDBRANCH  10  12
ENDBRANCH   1   9
BRANCH   5  22
ATOM     22  S   LIG    1        5.063  -4.554   0.433  0.00  0.00    +2.690 S 
ATOM     23  O   LIG    1        3.717  -5.008   0.401  0.00  0.00    -0.930 OA
ATOM     24  O   LIG    1        5.924  -4.752   1.546  0.00  0.00    -0.920 OA
BRANCH  22  25
ATOM     25  N   LIG    1        5.819  -5.240  -0.871  0.00  0.00    -1.050 N 
ATOM     26  H   LIG    1        6.666  -5.698  -0.755  0.00  0.00    +0.430 HD
BRANCH  25  27
ATOM     27  C   LIG    1        5.237  -5.159  -2.139  0.00  0.00    +0.140 A 
ATOM     28  C   LIG    1        3.883  -5.425  -2.301  0.00  0.00    +0.030 A 
ATOM     29  C   LIG    1        3.309  -5.339  -3.555  0.00  0.00    +0.050 A 
ATOM     30  C   LIG    1        4.083  -4.998  -4.650  0.00  0.00    -0.040 A 
ATOM     31  C   LIG    1        5.433  -4.737  -4.492  0.00  0.00    +0.050 A 
ATOM     32 CL   LIG    1        3.360  -4.896  -6.224  0.00  0.00    -0.060 Cl
ATOM     33  C   LIG    1        6.011  -4.817  -3.240  0.00  0.00    +0.030 A 
ENDBRANCH  25  27
ENDBRANCH  22  25
ENDBRANCH   5  22
TORSDOF 6
