REMARK  Name = ZINCrD00000F5LjB.0
REMARK                            x       y       z     vdW  Elec       q    Type
REMARK                         _______ _______ _______ _____ _____    ______ ____
ROOT
ATOM      1  C   LIG    1        1.687   3.173   0.003  0.00  0.00    +0.360 C 
ENDROOT
BRANCH   1   2
ATOM      2  C   LIG    1        1.244   1.732  -0.001  0.00  0.00    -0.030 A 
ATOM      3  C   LIG    1        2.043   0.640  -0.014  0.00  0.00    +0.170 A 
ATOM      4  N   LIG    1        1.216  -0.432  -0.012  0.00  0.00    -0.290 N 
ATOM      5  N   LIG    1        0.002  -0.004   0.002  0.00  0.00    -0.060 NA
ATOM      6  N   LIG    1       -0.015   1.282   0.009  0.00  0.00    -0.240 NA
BRANCH   4   7
ATOM      7  C   LIG    1        1.631  -1.836  -0.023  0.00  0.00    +0.330 C 
BRANCH   7   8
ATOM      8  C   LIG    1        0.994  -2.566   1.161  0.00  0.00    +0.210 C 
BRANCH   8   9
ATOM      9  C   LIG    1        1.524  -4.000   1.223  0.00  0.00    +0.430 C 
ATOM     10  F   LIG    1        1.203  -4.667   0.036  0.00  0.00    -0.180 F 
ATOM     11  F   LIG    1        0.941  -4.667   2.306  0.00  0.00    -0.170 F 
ATOM     12  F   LIG    1        2.914  -3.976   1.383  0.00  0.00    -0.180 F 
ENDBRANCH   8   9
BRANCH   8  13
ATOM     13  O   LIG    1       -0.426  -2.590   0.998  0.00  0.00    -0.510 OA
ATOM     14  H   LIG    1       -0.721  -3.038   0.193  0.00  0.00    +0.390 HD
ENDBRANCH   8  13
ENDBRANCH   7   8
ENDBRANCH   4   7
ENDBRANCH   1   2
BRANCH   1  16
ATOM     15  C   LIG    1        1.962   4.874   1.725  0.00  0.00    +0.610 C 
ATOM     16  N   LIG    1        1.285   3.805   1.262  0.00  0.00    -0.710 N 
ATOM     17  H   LIG    1        0.532   3.453   1.762  0.00  0.00    +0.410 HD
ATOM     18  O   LIG    1        2.907   5.315   1.098  0.00  0.00    -0.510 OA
BRANCH  15  23
ATOM     19  C   LIG    1       -0.544   5.828   5.954  0.00  0.00    +0.200 C 
ATOM     20  C   LIG    1        0.465   5.930   4.840  0.00  0.00    +0.070 A 
ATOM     21  C   LIG    1        1.448   6.853   4.750  0.00  0.00    -0.200 A 
ATOM     22  C   LIG    1        2.155   6.590   3.566  0.00  0.00    +0.080 A 
ATOM     23  C   LIG    1        1.559   5.506   2.986  0.00  0.00    -0.080 A 
ATOM     24 BR   LIG    1        1.806   8.238   5.988  0.00  0.00    +0.000 Br
ATOM     25  O   LIG    1        0.532   5.123   3.772  0.00  0.00    -0.150 OA
ENDBRANCH  15  23
ENDBRANCH   1  16
BRANCH   1  26
ATOM     26  C   LIG    1        1.034   3.909  -1.169  0.00  0.00    -0.070 C 
ATOM     27  C   LIG    1        1.454   3.250  -2.484  0.00  0.00    +0.030 C 
ATOM     28  C   LIG    1        1.484   5.372  -1.166  0.00  0.00    +0.020 C 
ATOM     29  C   LIG    1       -0.488   3.844  -1.029  0.00  0.00    +0.030 C 
ENDBRANCH   1  26
TORSDOF 8
