REMARK  Name = ZINCpk00000e1qKY.0
REMARK                            x       y       z     vdW  Elec       q    Type
REMARK                         _______ _______ _______ _____ _____    ______ ____
ROOT
ATOM      1  N   LIG    1        2.083   0.816   0.104  0.00  0.00    -0.580 N 
ATOM      2  C   LIG    1        1.229   1.848   0.117  0.00  0.00    +0.700 C 
ATOM      3  N   LIG    1       -0.059   1.450   0.101  0.00  0.00    -0.720 N 
ATOM      4  H   LIG    1       -0.845   2.018   0.102  0.00  0.00    +0.440 HD
ATOM      5  C   LIG    1       -0.033  -0.012   0.074  0.00  0.00    +0.120 C 
ATOM      6  C   LIG    1       -0.759  -0.614   1.282  0.00  0.00    +0.060 C 
ATOM      7  C   LIG    1       -1.873  -1.495   0.669  0.00  0.00    +0.200 C 
ATOM      8  N   LIG    1       -1.386  -1.822  -0.696  0.00  0.00    -0.480 NA
ATOM      9  C   LIG    1       -0.741  -0.567  -1.169  0.00  0.00    +0.200 C 
ATOM     10  O   LIG    1        1.577   3.012   0.141  0.00  0.00    -0.530 OA
ATOM     11  C   LIG    1        1.431  -0.367   0.077  0.00  0.00    +0.540 C 
ATOM     12  O   LIG    1        1.919  -1.477   0.060  0.00  0.00    -0.440 OA
ENDROOT
BRANCH   1  14
ATOM     13  C   LIG    1        3.991   1.741  -1.115  0.00  0.00    +0.050 C 
ATOM     14  C   LIG    1        3.541   0.952   0.117  0.00  0.00    +0.250 C 
ATOM     15  C   LIG    1        3.973   1.695   1.383  0.00  0.00    +0.050 C 
ENDBRANCH   1  14
BRANCH   8  16
ATOM     16  C   LIG    1       -2.499  -2.204  -1.575  0.00  0.00    +0.340 C 
BRANCH  16  17
ATOM     17  C   LIG    1       -3.414  -1.023  -1.769  0.00  0.00    +0.240 A 
ATOM     18  N   LIG    1       -4.364  -0.674  -0.952  0.00  0.00    -0.480 NA
ATOM     19  C   LIG    1       -4.992   0.432  -1.427  0.00  0.00    +0.040 A 
ATOM     20  C   LIG    1       -6.055   1.211  -0.963  0.00  0.00    +0.070 A 
ATOM     21  C   LIG    1       -6.472   2.293  -1.685  0.00  0.00    +0.000 A 
ATOM     22  C   LIG    1       -5.850   2.630  -2.878  0.00  0.00    +0.030 A 
ATOM     23  C   LIG    1       -4.799   1.876  -3.356  0.00  0.00    +0.010 A 
ATOM     24  C   LIG    1       -4.362   0.772  -2.636  0.00  0.00    +0.050 A 
ATOM     25  N   LIG    1       -3.365  -0.164  -2.823  0.00  0.00    -0.490 N 
ATOM     26  C   LIG    1       -2.428  -0.223  -3.948  0.00  0.00    +0.330 C 
ENDBRANCH  16  17
ENDBRANCH   8  16
TORSDOF 3
