REMARK  Name = ZINCvU000000080Z.0
REMARK                            x       y       z     vdW  Elec       q    Type
REMARK                         _______ _______ _______ _____ _____    ______ ____
ROOT
ATOM      1  N   LIG    1        2.421   5.362   0.195  0.00  0.00    -0.440 N 
ATOM      2  C   LIG    1        3.737   5.677   0.009  0.00  0.00    +0.120 A 
ATOM      3  N   LIG    1        4.383   4.549  -0.191  0.00  0.00    -0.280 NA
ATOM      4  N   LIG    1        3.566   3.558  -0.138  0.00  0.00    -0.260 NA
ATOM      5  C   LIG    1        2.350   3.992   0.099  0.00  0.00    +0.220 A 
ENDROOT
BRANCH   1  12
ATOM      6  C   LIG    1        0.923   6.489  -2.012  0.00  0.00    +0.020 C 
ATOM      7  C   LIG    1        1.195   7.268  -0.724  0.00  0.00    +0.000 C 
ATOM      8  C   LIG    1        2.499   8.055  -0.869  0.00  0.00    +0.030 C 
ATOM      9  C   LIG    1        2.771   8.834   0.419  0.00  0.00    +0.040 C 
ATOM     10  C   LIG    1        2.893   7.856   1.590  0.00  0.00    +0.010 C 
ATOM     11  C   LIG    1        1.589   7.070   1.735  0.00  0.00    +0.030 C 
ATOM     12  C   LIG    1        1.317   6.291   0.447  0.00  0.00    +0.230 C 
ENDBRANCH   1  12
BRANCH   5  13
ATOM     13  C   LIG    1        1.133   3.164   0.232  0.00  0.00    -0.070 A 
ATOM     14  C   LIG    1        1.206   1.870   0.760  0.00  0.00    +0.120 A 
ATOM     15  C   LIG    1        0.037   1.136   0.863  0.00  0.00    -0.020 A 
ATOM     16  C   LIG    1       -1.154   1.697   0.440  0.00  0.00    +0.270 A 
ATOM     17  N   LIG    1       -1.194   2.922  -0.048  0.00  0.00    -0.480 NA
ATOM     18  C   LIG    1       -0.110   3.660  -0.167  0.00  0.00    +0.270 A 
ENDBRANCH   5  13
BRANCH   2  19
ATOM     19  S   LIG    1        4.438   7.293   0.028  0.00  0.00    +0.230 S 
BRANCH  19  20
ATOM     20  C   LIG    1        6.173   6.887  -0.292  0.00  0.00    -0.050 C 
BRANCH  20  21
ATOM     21  C   LIG    1        6.988   8.154  -0.322  0.00  0.00    +0.450 C 
ATOM     22  O   LIG    1        6.449   9.227  -0.144  0.00  0.00    -0.470 OA
BRANCH  21  23
ATOM     23  C   LIG    1        8.384   8.093  -0.557  0.00  0.00    -0.270 A 
ATOM     24  C   LIG    1        9.139   6.960  -0.770  0.00  0.00    +0.340 A 
ATOM     25  N   LIG    1       10.428   7.303  -0.961  0.00  0.00    -0.570 N 
ATOM     26  H   LIG    1       11.146   6.675  -1.132  0.00  0.00    +0.420 HD
ATOM     27  C   LIG    1       10.586   8.671  -0.873  0.00  0.00    +0.070 A 
ATOM     28  C   LIG    1       11.691   9.508  -0.985  0.00  0.00    +0.000 A 
ATOM     29  C   LIG    1       11.539  10.871  -0.847  0.00  0.00    +0.030 A 
ATOM     30  C   LIG    1       10.291  11.421  -0.595  0.00  0.00    +0.000 A 
ATOM     31  C   LIG    1        9.184  10.608  -0.480  0.00  0.00    +0.060 A 
ATOM     32  C   LIG    1        9.324   9.230  -0.618  0.00  0.00    -0.060 A 
ENDBRANCH  21  23
ENDBRANCH  20  21
ENDBRANCH  19  20
ENDBRANCH   2  19
TORSDOF 6
