REMARK  Name = ZINCpe00000MJJyi.0
REMARK                            x       y       z     vdW  Elec       q    Type
REMARK                         _______ _______ _______ _____ _____    ______ ____
ROOT
ATOM      1  C   LIG    1        0.076  -0.362   2.214  0.00  0.00    -0.080 C 
ATOM      2  C   LIG    1        0.899  -1.637   2.173  0.00  0.00    +0.030 C 
ATOM      3  C   LIG    1        1.975  -1.667   3.250  0.00  0.00    +0.220 C 
ATOM      4  O   LIG    1        2.797  -0.504   3.078  0.00  0.00    -0.370 OA
ATOM      5  C   LIG    1        2.108   0.690   3.432  0.00  0.00    +0.240 C 
ATOM      6  C   LIG    1       -0.337  -0.023   0.754  0.00  0.00    +0.300 C 
ATOM      7  N   LIG    1       -0.261   1.456   0.672  0.00  0.00    -0.620 N 
ATOM      8  C   LIG    1       -1.090   2.296   0.020  0.00  0.00    +0.590 C 
ATOM      9  O   LIG    1       -1.990   1.851  -0.665  0.00  0.00    -0.520 OA
ATOM     10  C   LIG    1        0.947   1.794   1.472  0.00  0.00    +0.280 C 
ATOM     11  C   LIG    1        0.816   0.872   2.697  0.00  0.00    -0.030 C 
ENDROOT
BRANCH   8  12
ATOM     12  C   LIG    1       -0.904   3.755   0.138  0.00  0.00    -0.130 A 
ATOM     13  C   LIG    1        0.382   4.305   0.136  0.00  0.00    +0.050 A 
ATOM     14  C   LIG    1        0.549   5.668   0.246  0.00  0.00    +0.020 A 
ATOM     15  C   LIG    1       -0.551   6.504   0.360  0.00  0.00    +0.050 A 
ATOM     16  C   LIG    1       -1.828   5.971   0.363  0.00  0.00    +0.060 A 
ATOM     17  O   LIG    1       -2.915   6.789   0.474  0.00  0.00    -0.320 OA
ATOM     18  C   LIG    1       -3.741   6.885  -0.699  0.00  0.00    +0.230 C 
ATOM     19  C   LIG    1       -4.744   5.743  -0.744  0.00  0.00    -0.010 C 
ATOM     20  C   LIG    1       -4.071   4.388  -0.897  0.00  0.00    +0.240 C 
ATOM     21  O   LIG    1       -3.273   4.087   0.249  0.00  0.00    -0.310 OA
ATOM     22  C   LIG    1       -2.012   4.601   0.248  0.00  0.00    +0.120 A 
ENDBRANCH   8  12
BRANCH   1  26
ATOM     23  N   LIG    1       -2.014  -1.572   2.749  0.00  0.00    -0.850 N 
ATOM     24  H   LIG    1       -2.808  -1.711   3.289  0.00  0.00    +0.410 HD
ATOM     25  H   LIG    1       -1.838  -2.148   1.988  0.00  0.00    +0.400 HD
ATOM     26  C   LIG    1       -1.157  -0.578   3.054  0.00  0.00    +0.530 C 
ATOM     27  O   LIG    1       -1.377   0.142   4.005  0.00  0.00    -0.530 OA
ENDBRANCH   1  26
TORSDOF 2
