REMARK  Name = ZINCrg00000KR9bK.0
REMARK                            x       y       z     vdW  Elec       q    Type
REMARK                         _______ _______ _______ _____ _____    ______ ____
ROOT
ATOM      1  N   LIG    1       -0.398   1.608  -1.295  0.00  0.00    -0.510 N 
ATOM      2  H   LIG    1        0.316   1.388  -1.973  0.00  0.00    +0.420 HD
ATOM      3  H   LIG    1       -0.515   2.608  -1.242  0.00  0.00    +0.420 HD
ENDROOT
BRANCH   1   4
ATOM      4  C   LIG    1       -0.000   1.091   0.021  0.00  0.00    +0.160 C 
BRANCH   4   5
ATOM      5  C   LIG    1        0.097  -0.435  -0.038  0.00  0.00    +0.100 C 
BRANCH   5   7
ATOM      6  O   LIG    1        0.028  -0.815   2.296  0.00  0.00    -0.660 OA
ATOM      7  C   LIG    1        0.658  -0.953   1.261  0.00  0.00    +0.510 C 
ATOM      8  O   LIG    1        1.743  -1.510   1.278  0.00  0.00    -0.640 OA
ENDBRANCH   5   7
BRANCH   5   9
ATOM      9  O   LIG    1        0.957  -0.816  -1.114  0.00  0.00    -0.520 OA
ATOM     10  H   LIG    1        0.613  -0.594  -1.990  0.00  0.00    +0.340 HD
ENDBRANCH   5   9
ENDBRANCH   4   5
BRANCH   4  11
ATOM     11  C   LIG    1       -1.044   1.496   1.064  0.00  0.00    +0.140 C 
BRANCH  11  12
ATOM     12  C   LIG    1       -1.053   2.995   1.211  0.00  0.00    -0.110 A 
ATOM     13  C   LIG    1       -0.232   3.604   2.142  0.00  0.00    +0.030 A 
ATOM     14  C   LIG    1       -0.237   4.980   2.273  0.00  0.00    +0.020 A 
ATOM     15  C   LIG    1       -1.070   5.747   1.480  0.00  0.00    +0.020 A 
ATOM     16  C   LIG    1       -1.895   5.138   0.553  0.00  0.00    +0.020 A 
ATOM     17  C   LIG    1       -1.886   3.762   0.418  0.00  0.00    -0.030 A 
ENDBRANCH  11  12
ENDBRANCH   4  11
ENDBRANCH   1   4
BRANCH   1  18
ATOM     18  C   LIG    1       -1.666   0.987  -1.702  0.00  0.00    +0.320 C 
BRANCH  18  19
ATOM     19  C   LIG    1       -2.035   1.458  -3.085  0.00  0.00    -0.240 A 
ATOM     20  C   LIG    1       -1.604   0.757  -4.203  0.00  0.00    +0.130 A 
ATOM     21  C   LIG    1       -1.965   1.224  -5.455  0.00  0.00    -0.030 A 
ATOM     22  C   LIG    1       -2.743   2.373  -5.550  0.00  0.00    +0.340 A 
ATOM     23  N   LIG    1       -3.134   3.014  -4.459  0.00  0.00    -0.510 NA
ATOM     24  C   LIG    1       -2.810   2.589  -3.253  0.00  0.00    +0.320 A 
BRANCH  22  25
ATOM     25  N   LIG    1       -3.113   2.853  -6.801  0.00  0.00    -0.480 N 
ATOM     26  C   LIG    1       -1.932   3.100  -7.640  0.00  0.00    +0.180 C 
ATOM     27  C   LIG    1       -2.386   3.569  -9.025  0.00  0.00    +0.240 C 
ATOM     28  O   LIG    1       -3.204   4.734  -8.884  0.00  0.00    -0.380 OA
ATOM     29  C   LIG    1       -4.363   4.529  -8.072  0.00  0.00    +0.230 C 
ATOM     30  C   LIG    1       -3.929   4.070  -6.678  0.00  0.00    +0.190 C 
ENDBRANCH  22  25
ENDBRANCH  18  19
ENDBRANCH   1  18
TORSDOF 9
