REMARK  Name = ZINCrg00000SjSnZ.0
REMARK                            x       y       z     vdW  Elec       q    Type
REMARK                         _______ _______ _______ _____ _____    ______ ____
ROOT
ATOM      1  N   LIG    1       -0.976  -0.989   0.006  0.00  0.00    -0.440 N 
ATOM      2  C   LIG    1       -0.328  -2.184  -0.007  0.00  0.00    +0.560 A 
ATOM      3  N   LIG    1        0.973  -1.976  -0.018  0.00  0.00    -0.540 NA
ATOM      4  C   LIG    1        1.225  -0.666  -0.013  0.00  0.00    +0.360 A 
ATOM      5  N   LIG    1        2.390   0.083  -0.020  0.00  0.00    -0.510 N 
ATOM      6  C   LIG    1        3.692  -0.588  -0.036  0.00  0.00    +0.340 C 
ATOM      7  C   LIG    1        2.327   1.428  -0.012  0.00  0.00    +0.710 A 
ATOM      8  O   LIG    1        3.359   2.070  -0.018  0.00  0.00    -0.540 OA
ATOM      9  N   LIG    1        1.150   2.078   0.002  0.00  0.00    -0.650 N 
ATOM     10  H   LIG    1        1.141   3.048   0.007  0.00  0.00    +0.440 HD
ATOM     11  C   LIG    1       -0.017   1.402   0.010  0.00  0.00    +0.600 A 
ATOM     12  O   LIG    1       -1.077   2.003   0.018  0.00  0.00    -0.520 OA
ATOM     13  C   LIG    1        0.002  -0.004   0.002  0.00  0.00    -0.180 A 
ENDROOT
BRANCH   2  14
ATOM     14  N   LIG    1       -0.937  -3.418  -0.009  0.00  0.00    -0.700 N 
ATOM     15  H   LIG    1       -1.905  -3.482  -0.001  0.00  0.00    +0.410 HD
BRANCH  14  16
ATOM     16  C   LIG    1       -0.122  -4.636  -0.024  0.00  0.00    +0.350 C 
BRANCH  16  17
ATOM     17  C   LIG    1       -1.024  -5.844  -0.023  0.00  0.00    -0.160 A 
ATOM     18  C   LIG    1       -1.422  -6.407   1.175  0.00  0.00    +0.080 A 
ATOM     19  C   LIG    1       -2.253  -7.511   1.179  0.00  0.00    -0.080 A 
ATOM     20  C   LIG    1       -2.679  -8.060  -0.022  0.00  0.00    +0.140 A 
ATOM     21  C   LIG    1       -2.275  -7.496  -1.223  0.00  0.00    -0.030 A 
ATOM     22  C   LIG    1       -1.448  -6.389  -1.221  0.00  0.00    +0.070 A 
BRANCH  20  23
ATOM     23  O   LIG    1       -3.492  -9.149  -0.021  0.00  0.00    -0.320 OA
ATOM     24  C   LIG    1       -3.869  -9.677   1.253  0.00  0.00    +0.250 C 
ENDBRANCH  20  23
ENDBRANCH  16  17
ENDBRANCH  14  16
ENDBRANCH   2  14
BRANCH   1  25
ATOM     25  C   LIG    1       -2.426  -0.781   0.020  0.00  0.00    +0.330 C 
BRANCH  25  26
ATOM     26  C   LIG    1       -2.945  -0.701  -1.417  0.00  0.00    +0.160 C 
BRANCH  26  27
ATOM     27  O   LIG    1       -4.359  -0.498  -1.402  0.00  0.00    -0.380 OA
BRANCH  27  29
ATOM     28  C   LIG    1       -6.455  -0.192  -2.566  0.00  0.00    +0.050 C 
ATOM     29  C   LIG    1       -4.947  -0.408  -2.702  0.00  0.00    +0.160 C 
ENDBRANCH  27  29
ENDBRANCH  26  27
ENDBRANCH  25  26
ENDBRANCH   1  25
TORSDOF 8
