REMARK  Name = ZINCrD00000hQ6Nw.0
REMARK                            x       y       z     vdW  Elec       q    Type
REMARK                         _______ _______ _______ _____ _____    ______ ____
ROOT
ATOM      1  C   LIG    1       -4.702   8.155   0.898  0.00  0.00    +0.530 C 
ATOM      2  N   LIG    1       -3.861   7.369   0.196  0.00  0.00    -0.720 N 
ATOM      3  H   LIG    1       -3.306   7.754  -0.501  0.00  0.00    +0.410 HD
ATOM      4  O   LIG    1       -5.395   7.674   1.769  0.00  0.00    -0.520 OA
ENDROOT
BRANCH   2   5
ATOM      5  C   LIG    1       -3.785   5.935   0.484  0.00  0.00    +0.210 C 
ATOM      6  C   LIG    1       -4.884   5.192  -0.288  0.00  0.00    +0.230 C 
ATOM      7  O   LIG    1       -4.836   3.814   0.082  0.00  0.00    -0.310 OA
ATOM      8  C   LIG    1       -3.631   3.185   0.054  0.00  0.00    +0.140 A 
ATOM      9  C   LIG    1       -2.459   3.880   0.040  0.00  0.00    -0.160 A 
ATOM     10  C   LIG    1       -1.236   3.182   0.029  0.00  0.00    -0.010 A 
ATOM     11  C   LIG    1       -0.011   3.871   0.021  0.00  0.00    +0.010 A 
ATOM     12  C   LIG    1        1.155   3.170   0.008  0.00  0.00    +0.020 A 
ATOM     13  C   LIG    1        1.155   1.777   0.001  0.00  0.00    -0.010 A 
ATOM     14  C   LIG    1       -0.013   1.076   0.008  0.00  0.00    +0.040 A 
ATOM     15  C   LIG    1       -1.236   1.766   0.018  0.00  0.00    -0.080 A 
ATOM     16  C   LIG    1       -2.463   1.079   0.032  0.00  0.00    +0.070 A 
ATOM     17  C   LIG    1       -3.624   1.781   0.048  0.00  0.00    +0.010 A 
ATOM     18  C   LIG    1       -2.431   5.387   0.030  0.00  0.00    +0.090 C 
ENDBRANCH   2   5
BRANCH   1  28
ATOM     19  C   LIG    1       -6.361  10.682   3.944  0.00  0.00    +0.020 C 
ATOM     20  C   LIG    1       -5.245  10.294   2.972  0.00  0.00    -0.010 C 
ATOM     21  C   LIG    1       -4.094  11.301   3.087  0.00  0.00    +0.100 C 
ATOM     22  C   LIG    1       -3.119  11.033   1.967  0.00  0.00    -0.220 A 
ATOM     23  C   LIG    1       -1.845  11.450   1.852  0.00  0.00    +0.240 A 
ATOM     24  N   LIG    1       -1.360  10.967   0.686  0.00  0.00    -0.480 N 
ATOM     25  H   LIG    1       -0.465  11.106   0.340  0.00  0.00    +0.440 HD
ATOM     26  N   LIG    1       -2.379  10.227   0.067  0.00  0.00    -0.280 NA
ATOM     27  C   LIG    1       -3.431  10.268   0.831  0.00  0.00    +0.080 A 
ATOM     28  C   LIG    1       -4.779   9.630   0.601  0.00  0.00    +0.100 C 
ATOM     29  C   LIG    1       -5.792  10.295   1.542  0.00  0.00    +0.070 C 
ENDBRANCH   1  28
TORSDOF 2
