REMARK  Name = ZINCrD000000AKs9.0
REMARK                            x       y       z     vdW  Elec       q    Type
REMARK                         _______ _______ _______ _____ _____    ______ ____
ROOT
ATOM      1  O   LIG    1        0.102   0.411   0.430  0.00  0.00    -0.510 OA
ATOM      2  C   LIG    1       -0.099   1.604   0.343  0.00  0.00    +0.530 C 
ATOM      3  N   LIG    1       -1.349   2.064   0.138  0.00  0.00    -0.720 N 
ATOM      4  H   LIG    1       -1.522   3.018   0.143  0.00  0.00    +0.400 HD
ENDROOT
BRANCH   2   5
ATOM      5  C   LIG    1        1.051   2.572   0.457  0.00  0.00    -0.010 C 
ATOM      6  C   LIG    1        0.860   3.517   1.666  0.00  0.00    +0.070 C 
ATOM      7  C   LIG    1        2.257   3.701   2.217  0.00  0.00    +0.520 C 
ATOM      8  N   LIG    1        3.074   2.752   1.730  0.00  0.00    -0.610 N 
ATOM      9  O   LIG    1        2.591   4.578   2.986  0.00  0.00    -0.520 OA
ATOM     10  C   LIG    1        2.356   1.838   0.834  0.00  0.00    +0.300 C 
BRANCH   8  11
ATOM     11  C   LIG    1        4.499   2.642   2.054  0.00  0.00    +0.240 C 
ATOM     12  C   LIG    1        4.685   2.498   3.579  0.00  0.00    +0.010 C 
ATOM     13  C   LIG    1        5.969   3.311   3.883  0.00  0.00    +0.020 C 
ATOM     14  C   LIG    1        5.841   4.524   2.928  0.00  0.00    +0.010 C 
ATOM     15  C   LIG    1        5.234   3.929   1.640  0.00  0.00    +0.010 C 
ENDBRANCH   8  11
ENDBRANCH   2   5
BRANCH   3  16
ATOM     16  C   LIG    1       -2.447   1.122  -0.091  0.00  0.00    +0.220 C 
ATOM     17  C   LIG    1       -2.132   0.255  -1.314  0.00  0.00    +0.020 C 
ATOM     18  C   LIG    1       -2.037   1.150  -2.553  0.00  0.00    +0.210 C 
ATOM     19  O   LIG    1       -3.263   1.866  -2.717  0.00  0.00    -0.380 OA
ATOM     20  C   LIG    1       -3.585   2.729  -1.624  0.00  0.00    +0.210 C 
ATOM     21  C   LIG    1       -3.743   1.898  -0.348  0.00  0.00    +0.020 C 
BRANCH  16  22
ATOM     22  C   LIG    1       -2.619   0.243   1.121  0.00  0.00    -0.070 A 
ATOM     23  C   LIG    1       -3.221  -0.995   0.997  0.00  0.00    +0.040 A 
ATOM     24  C   LIG    1       -3.379  -1.802   2.109  0.00  0.00    +0.020 A 
ATOM     25  C   LIG    1       -2.934  -1.371   3.345  0.00  0.00    +0.040 A 
ATOM     26  C   LIG    1       -2.331  -0.132   3.469  0.00  0.00    -0.090 A 
ATOM     27 BR   LIG    1       -1.723   0.459   5.159  0.00  0.00    -0.050 Br
ATOM     28  C   LIG    1       -2.169   0.672   2.356  0.00  0.00    +0.050 A 
ENDBRANCH  16  22
ENDBRANCH   3  16
TORSDOF 4
