REMARK  Name = ZINCvU0000000Dor.0
REMARK                            x       y       z     vdW  Elec       q    Type
REMARK                         _______ _______ _______ _____ _____    ______ ____
ROOT
ATOM      1  N   LIG    1        2.106   1.159  -1.220  0.00  0.00    -0.510 NA
ATOM      2  C   LIG    1        1.444   1.674  -2.425  0.00  0.00    +0.180 C 
ATOM      3  C   LIG    1        0.009   1.145  -2.487  0.00  0.00    +0.040 C 
ATOM      4  C   LIG    1       -0.749   1.594  -1.235  0.00  0.00    +0.010 C 
ATOM      5  C   LIG    1       -0.013   1.086   0.008  0.00  0.00    +0.120 C 
ATOM      6  C   LIG    1        1.423   1.616  -0.003  0.00  0.00    +0.200 C 
ENDROOT
BRANCH   5   7
ATOM      7  C   LIG    1       -0.720   1.573   1.247  0.00  0.00    +0.220 A 
ATOM      8  N   LIG    1       -0.835   0.909   2.362  0.00  0.00    -0.470 NA
ATOM      9  C   LIG    1       -1.525   1.653   3.251  0.00  0.00    +0.040 A 
ATOM     10  C   LIG    1       -1.853   2.823   2.644  0.00  0.00    +0.150 A 
ATOM     11  N   LIG    1       -1.341   2.765   1.378  0.00  0.00    -0.560 N 
ATOM     12  H   LIG    1       -1.411   3.454   0.699  0.00  0.00    +0.420 HD
BRANCH   9  13
ATOM     13  C   LIG    1       -1.869   1.261   4.640  0.00  0.00    -0.000 A 
ATOM     14  C   LIG    1       -2.590   2.132   5.454  0.00  0.00    +0.010 A 
ATOM     15  C   LIG    1       -2.913   1.760   6.744  0.00  0.00    +0.000 A 
ATOM     16  C   LIG    1       -2.511   0.530   7.232  0.00  0.00    +0.000 A 
ATOM     17  C   LIG    1       -1.789  -0.336   6.431  0.00  0.00    +0.000 A 
ATOM     18  C   LIG    1       -1.466   0.023   5.138  0.00  0.00    +0.040 A 
ENDBRANCH   9  13
ENDBRANCH   5   7
BRANCH   1  19
ATOM     19  C   LIG    1        3.526   1.533  -1.198  0.00  0.00    +0.300 C 
BRANCH  19  24
ATOM     20  O   LIG    1        7.462   0.659  -3.621  0.00  0.00    -0.500 OA
ATOM     21  C   LIG    1        6.268   0.469  -3.477  0.00  0.00    +0.560 A 
ATOM     22  N   LIG    1        5.577   1.065  -2.478  0.00  0.00    -0.650 N 
ATOM     23  H   LIG    1        6.037   1.656  -1.861  0.00  0.00    +0.420 HD
ATOM     24  C   LIG    1        4.244   0.844  -2.330  0.00  0.00    +0.410 A 
ATOM     25  N   LIG    1        3.559   0.064  -3.110  0.00  0.00    -0.480 NA
ATOM     26  C   LIG    1        4.137  -0.586  -4.151  0.00  0.00    +0.190 A 
ATOM     27  C   LIG    1        3.399  -1.420  -4.994  0.00  0.00    -0.090 A 
ATOM     28  C   LIG    1        4.028  -2.065  -6.037  0.00  0.00    +0.130 A 
ATOM     29  C   LIG    1        5.388  -1.896  -6.261  0.00  0.00    -0.110 A 
ATOM     30  C   LIG    1        6.137  -1.077  -5.443  0.00  0.00    +0.160 A 
ATOM     31 BR   LIG    1        6.220  -2.796  -7.701  0.00  0.00    -0.020 Br
ATOM     32 BR   LIG    1        1.546  -1.665  -4.705  0.00  0.00    -0.000 Br
ATOM     33  C   LIG    1        5.520  -0.416  -4.383  0.00  0.00    -0.190 A 
ENDBRANCH  19  24
ENDBRANCH   1  19
TORSDOF 4
