REMARK  Name = ZINCrD000000AtlB.0
REMARK                            x       y       z     vdW  Elec       q    Type
REMARK                         _______ _______ _______ _____ _____    ______ ____
ROOT
ATOM      1  O   LIG    1        5.330   5.623  -0.017  0.00  0.00    -0.520 OA
ATOM      2  C   LIG    1        4.292   6.250  -0.005  0.00  0.00    +0.530 C 
ATOM      3  N   LIG    1        4.319   7.597   0.002  0.00  0.00    -0.710 N 
ATOM      4  H   LIG    1        3.489   8.099   0.013  0.00  0.00    +0.410 HD
ENDROOT
BRANCH   3   5
ATOM      5  C   LIG    1        5.602   8.305  -0.006  0.00  0.00    +0.350 C 
ATOM      6  C   LIG    1        6.102   8.491   1.406  0.00  0.00    -0.100 A 
ATOM      7  C   LIG    1        6.433   7.594   2.398  0.00  0.00    +0.050 A 
ATOM      8  C   LIG    1        6.872   8.051   3.628  0.00  0.00    +0.020 A 
ATOM      9  C   LIG    1        6.980   9.409   3.865  0.00  0.00    +0.020 A 
ATOM     10  C   LIG    1        6.649  10.315   2.878  0.00  0.00    +0.020 A 
ATOM     11  C   LIG    1        6.205   9.862   1.635  0.00  0.00    -0.060 A 
ATOM     12  C   LIG    1        5.791  10.600   0.417  0.00  0.00    -0.040 A 
ATOM     13  C   LIG    1        5.722  11.968   0.150  0.00  0.00    +0.030 A 
ATOM     14  C   LIG    1        5.296  12.408  -1.087  0.00  0.00    +0.020 A 
ATOM     15  C   LIG    1        4.937  11.498  -2.064  0.00  0.00    +0.010 A 
ATOM     16  C   LIG    1        5.003  10.140  -1.807  0.00  0.00    +0.050 A 
ATOM     17  C   LIG    1        5.427   9.692  -0.574  0.00  0.00    -0.110 A 
ENDBRANCH   3   5
BRANCH   2  18
ATOM     18  C   LIG    1        2.973   5.522   0.004  0.00  0.00    +0.100 C 
BRANCH  18  19
ATOM     19  S   LIG    1        3.268   3.737  -0.009  0.00  0.00    +0.090 S 
BRANCH  19  20
ATOM     20  C   LIG    1        1.606   3.152   0.004  0.00  0.00    +0.200 A 
ATOM     21  C   LIG    1        1.329   1.773  -0.001  0.00  0.00    -0.040 A 
ATOM     22  N   LIG    1        2.084   0.650  -0.014  0.00  0.00    -0.460 NA
ATOM     23  C   LIG    1        1.308  -0.395  -0.013  0.00  0.00    +0.510 A 
ATOM     24  N   LIG    1        0.002  -0.004   0.002  0.00  0.00    -0.580 N 
ATOM     25  H   LIG    1       -0.772  -0.589   0.006  0.00  0.00    +0.430 HD
ATOM     26  C   LIG    1       -0.017   1.368   0.010  0.00  0.00    +0.290 A 
ATOM     27  N   LIG    1       -0.970   2.293   0.028  0.00  0.00    -0.520 NA
ATOM     28  C   LIG    1       -0.663   3.574   0.028  0.00  0.00    +0.540 A 
ATOM     29  N   LIG    1        0.585   4.003   0.018  0.00  0.00    -0.540 NA
ENDBRANCH  19  20
ENDBRANCH  18  19
ENDBRANCH   2  18
TORSDOF 4
