REMARK  Name = ZINCrD000000fB79.0
REMARK                            x       y       z     vdW  Elec       q    Type
REMARK                         _______ _______ _______ _____ _____    ______ ____
ROOT
ATOM      1  S   LIG    1       -0.233   5.521   1.557  0.00  0.00    +2.700 S 
ATOM      2  O   LIG    1        0.929   5.217   2.315  0.00  0.00    -0.950 OA
ATOM      3  O   LIG    1       -1.485   5.840   2.148  0.00  0.00    -0.950 OA
ENDROOT
BRANCH   1  12
ATOM      4  C   LIG    1        2.884  11.567  -2.997  0.00  0.00    +0.120 C 
ATOM      5  C   LIG    1        2.493  10.495  -2.013  0.00  0.00    +0.510 C 
ATOM      6  N   LIG    1        1.206  10.105  -1.917  0.00  0.00    -0.560 N 
ATOM      7  C   LIG    1        0.155  10.806  -2.667  0.00  0.00    +0.280 C 
ATOM      8  C   LIG    1       -1.029  11.028  -1.717  0.00  0.00    +0.030 C 
ATOM      9  C   LIG    1       -1.584   9.669  -1.293  0.00  0.00    +0.090 C 
ATOM     10  C   LIG    1       -0.478   8.786  -0.777  0.00  0.00    -0.140 A 
ATOM     11  C   LIG    1       -0.802   7.713   0.036  0.00  0.00    +0.150 A 
ATOM     12  C   LIG    1        0.190   6.882   0.521  0.00  0.00    -0.700 A 
ATOM     13  C   LIG    1        1.514   7.119   0.201  0.00  0.00    +0.140 A 
ATOM     14  C   LIG    1        1.844   8.184  -0.614  0.00  0.00    +0.000 A 
ATOM     15  C   LIG    1        0.849   9.023  -1.101  0.00  0.00    +0.210 A 
ATOM     16  O   LIG    1        3.336   9.983  -1.308  0.00  0.00    -0.510 OA
ENDBRANCH   1  12
BRANCH   1  17
ATOM     17  N   LIG    1       -0.501   4.218   0.569  0.00  0.00    -1.110 NA
ATOM     18  H   LIG    1       -1.387   3.826   0.513  0.00  0.00    +0.420 HD
BRANCH  17  19
ATOM     19  C   LIG    1        0.599   3.659  -0.220  0.00  0.00    +0.300 C 
ATOM     20  C   LIG    1        0.580   4.265  -1.624  0.00  0.00    +0.040 C 
BRANCH  19  21
ATOM     21  C   LIG    1        0.439   2.163  -0.316  0.00  0.00    -0.130 A 
ATOM     22  C   LIG    1       -0.814   1.593  -0.186  0.00  0.00    +0.090 A 
ATOM     23  C   LIG    1       -0.962   0.222  -0.275  0.00  0.00    -0.010 A 
ATOM     24  C   LIG    1        0.143  -0.582  -0.493  0.00  0.00    +0.130 A 
ATOM     25  C   LIG    1        1.398  -0.012  -0.623  0.00  0.00    -0.040 A 
ATOM     26  F   LIG    1       -0.003  -1.923  -0.580  0.00  0.00    -0.130 F 
ATOM     27  C   LIG    1        1.546   1.361  -0.534  0.00  0.00    +0.140 A 
ATOM     28  F   LIG    1        2.770   1.918  -0.660  0.00  0.00    -0.120 F 
ENDBRANCH  19  21
ENDBRANCH  17  19
ENDBRANCH   1  17
TORSDOF 4
