REMARK  Name = ZINCvU0000000FGq.0
REMARK                            x       y       z     vdW  Elec       q    Type
REMARK                         _______ _______ _______ _____ _____    ______ ____
ROOT
ATOM      1  C   LIG    1        4.718  -0.001  -0.056  0.00  0.00    +0.210 A 
ATOM      2  N   LIG    1        3.563  -0.634  -0.035  0.00  0.00    -0.450 NA
ATOM      3  C   LIG    1        2.396   0.012  -0.006  0.00  0.00    +0.130 A 
ATOM      4  C   LIG    1        1.178  -0.691   0.017  0.00  0.00    +0.040 A 
ATOM      5  C   LIG    1        0.003  -0.004   0.046  0.00  0.00    +0.030 A 
ATOM      6  C   LIG    1       -0.016   1.388   0.054  0.00  0.00    +0.020 A 
ATOM      7  C   LIG    1        1.145   2.103   0.033  0.00  0.00    +0.060 A 
ATOM      8  C   LIG    1        2.371   1.429   0.002  0.00  0.00    -0.070 A 
ATOM      9  C   LIG    1        3.642   2.154  -0.021  0.00  0.00    -0.070 A 
ATOM     10  C   LIG    1        4.805   1.400  -0.051  0.00  0.00    +0.010 A 
ENDROOT
BRANCH   1  14
ATOM     11  C   LIG    1        8.306  -2.281  -0.146  0.00  0.00    +0.150 A 
ATOM     12  C   LIG    1        7.076  -2.925  -0.123  0.00  0.00    -0.020 A 
ATOM     13  C   LIG    1        5.911  -2.189  -0.094  0.00  0.00    +0.110 A 
ATOM     14  C   LIG    1        5.968  -0.796  -0.088  0.00  0.00    -0.100 A 
ATOM     15  C   LIG    1        7.205  -0.151  -0.117  0.00  0.00    +0.070 A 
ATOM     16  C   LIG    1        8.366  -0.893  -0.140  0.00  0.00    -0.080 A 
BRANCH  11  17
ATOM     17  O   LIG    1        9.452  -3.009  -0.175  0.00  0.00    -0.310 OA
BRANCH  17  19
ATOM     18  C   LIG    1       11.855  -3.264  -0.228  0.00  0.00    +0.070 C 
ATOM     19  C   LIG    1       10.682  -2.282  -0.197  0.00  0.00    +0.170 C 
ENDBRANCH  17  19
ENDBRANCH  11  17
ENDBRANCH   1  14
BRANCH   9  20
ATOM     20  C   LIG    1        3.684   3.633  -0.014  0.00  0.00    +0.560 C 
ATOM     21  N   LIG    1        4.866   4.273   0.080  0.00  0.00    -0.720 N 
ATOM     22  H   LIG    1        5.689   3.764   0.143  0.00  0.00    +0.400 HD
ATOM     23  O   LIG    1        2.652   4.271  -0.093  0.00  0.00    -0.520 OA
BRANCH  21  24
ATOM     24  C   LIG    1        4.908   5.737   0.088  0.00  0.00    +0.260 C 
BRANCH  24  25
ATOM     25  C   LIG    1        6.360   6.205   0.203  0.00  0.00    +0.010 C 
BRANCH  25  26
ATOM     26  C   LIG    1        6.404   7.735   0.210  0.00  0.00    +0.080 C 
BRANCH  26  27
ATOM     27  C   LIG    1        7.834   8.196   0.324  0.00  0.00    -0.080 A 
ATOM     28  C   LIG    1        8.395   8.409   1.569  0.00  0.00    +0.000 A 
ATOM     29  C   LIG    1        9.708   8.828   1.673  0.00  0.00    +0.000 A 
ATOM     30  C   LIG    1       10.457   9.043   0.531  0.00  0.00    +0.000 A 
ATOM     31  C   LIG    1        9.895   8.834  -0.714  0.00  0.00    +0.000 A 
ATOM     32  C   LIG    1        8.583   8.411  -0.818  0.00  0.00    +0.000 A 
ENDBRANCH  26  27
ENDBRANCH  25  26
ENDBRANCH  24  25
ENDBRANCH  21  24
ENDBRANCH   9  20
TORSDOF 8
