REMARK  Name = ZINCvU0000000JaM.0
REMARK                            x       y       z     vdW  Elec       q    Type
REMARK                         _______ _______ _______ _____ _____    ______ ____
ROOT
ATOM      1  S   LIG    1       -3.913   2.098   0.026  0.00  0.00    +2.690 S 
ATOM      2  O   LIG    1       -4.661   1.016  -0.511  0.00  0.00    -0.950 OA
ATOM      3  O   LIG    1       -3.899   3.396  -0.551  0.00  0.00    -0.950 OA
ENDROOT
BRANCH   1   9
ATOM      4  C   LIG    1        2.725   1.171   0.384  0.00  0.00    +0.160 A 
ATOM      5  C   LIG    1        1.729   0.250   0.224  0.00  0.00    -0.030 A 
ATOM      6  C   LIG    1        0.391   0.675   0.175  0.00  0.00    +0.030 A 
ATOM      7  C   LIG    1       -0.660  -0.243   0.012  0.00  0.00    +0.020 A 
ATOM      8  C   LIG    1       -1.945   0.204  -0.031  0.00  0.00    +0.110 A 
ATOM      9  C   LIG    1       -2.236   1.562   0.086  0.00  0.00    -0.680 A 
ATOM     10  C   LIG    1       -1.244   2.480   0.250  0.00  0.00    +0.170 A 
ATOM     11  C   LIG    1        0.095   2.057   0.293  0.00  0.00    -0.110 A 
ATOM     12  C   LIG    1        1.145   2.977   0.457  0.00  0.00    +0.090 A 
ATOM     13  C   LIG    1        2.430   2.533   0.500  0.00  0.00    -0.060 A 
BRANCH   4  14
ATOM     14  O   LIG    1        4.019   0.759   0.431  0.00  0.00    -0.310 OA
BRANCH  14  16
ATOM     15  C   LIG    1        6.400   1.118   0.629  0.00  0.00    +0.070 C 
ATOM     16  C   LIG    1        5.016   1.768   0.600  0.00  0.00    +0.170 C 
ENDBRANCH  14  16
ENDBRANCH   4  14
ENDBRANCH   1   9
BRANCH   1  17
ATOM     17  N   LIG    1       -4.423   2.288   1.591  0.00  0.00    -0.980 NA
BRANCH  17  18
ATOM     18  C   LIG    1       -5.161   1.211   2.256  0.00  0.00    +0.360 C 
BRANCH  18  19
ATOM     19  C   LIG    1       -4.209   0.389   3.087  0.00  0.00    -0.110 A 
ATOM     20  C   LIG    1       -3.619  -0.739   2.549  0.00  0.00    +0.010 A 
ATOM     21  C   LIG    1       -2.742  -1.490   3.309  0.00  0.00    +0.000 A 
ATOM     22  C   LIG    1       -2.464  -1.119   4.611  0.00  0.00    +0.010 A 
ATOM     23  C   LIG    1       -3.058   0.006   5.151  0.00  0.00    +0.000 A 
ATOM     24  C   LIG    1       -3.930   0.760   4.389  0.00  0.00    +0.020 A 
ENDBRANCH  18  19
ENDBRANCH  17  18
BRANCH  17  25
ATOM     25  C   LIG    1       -4.136   3.532   2.308  0.00  0.00    +0.340 C 
BRANCH  25  26
ATOM     26  C   LIG    1       -5.316   4.463   2.191  0.00  0.00    -0.120 A 
ATOM     27  C   LIG    1       -5.385   5.361   1.142  0.00  0.00    +0.040 A 
ATOM     28  C   LIG    1       -6.469   6.212   1.031  0.00  0.00    +0.000 A 
ATOM     29  C   LIG    1       -7.479   6.171   1.975  0.00  0.00    +0.010 A 
ATOM     30  C   LIG    1       -7.407   5.277   3.026  0.00  0.00    -0.010 A 
ATOM     31  C   LIG    1       -6.325   4.423   3.134  0.00  0.00    +0.020 A 
ENDBRANCH  25  26
ENDBRANCH  17  25
ENDBRANCH   1  17
TORSDOF 8
