REMARK  Name = ZINCrH000004mCWp.0
REMARK                            x       y       z     vdW  Elec       q    Type
REMARK                         _______ _______ _______ _____ _____    ______ ____
ROOT
ATOM      1  C   LIG    1       -0.138   1.070  -2.434  0.00  0.00    +0.220 C 
ENDROOT
BRANCH   1   2
ATOM      2  C   LIG    1       -1.028   1.396  -3.605  0.00  0.00    +0.520 C 
ATOM      3  N   LIG    1       -0.839   0.778  -4.788  0.00  0.00    -0.680 N 
ATOM      4  H   LIG    1       -0.085   0.180  -4.908  0.00  0.00    +0.410 HD
ATOM      5  O   LIG    1       -1.914   2.216  -3.484  0.00  0.00    -0.490 OA
BRANCH   3   6
ATOM      6  C   LIG    1       -1.732   0.997  -5.842  0.00  0.00    +0.150 A 
ATOM      7  C   LIG    1       -3.078   1.220  -5.580  0.00  0.00    +0.060 A 
ATOM      8  C   LIG    1       -3.955   1.442  -6.623  0.00  0.00    +0.040 A 
ATOM      9  C   LIG    1       -3.498   1.432  -7.928  0.00  0.00    +0.050 A 
ATOM     10  C   LIG    1       -2.160   1.205  -8.193  0.00  0.00    -0.160 A 
ATOM     11  C   LIG    1       -1.276   0.988  -7.154  0.00  0.00    +0.040 A 
BRANCH  10  12
ATOM     12  C   LIG    1       -1.666   1.194  -9.616  0.00  0.00    +0.510 C 
ATOM     13  F   LIG    1       -0.336   1.626  -9.652  0.00  0.00    -0.180 F 
ATOM     14  F   LIG    1       -2.455   2.050 -10.391  0.00  0.00    -0.170 F 
ATOM     15  F   LIG    1       -1.747  -0.106 -10.128  0.00  0.00    -0.180 F 
ENDBRANCH  10  12
ENDBRANCH   3   6
ENDBRANCH   1   2
BRANCH   1  16
ATOM     16  N   LIG    1       -0.544   1.871  -1.272  0.00  0.00    -0.510 NA
ATOM     17  C   LIG    1       -0.303   3.301  -1.507  0.00  0.00    +0.190 C 
BRANCH  16  18
ATOM     18  C   LIG    1        0.138   1.415  -0.053  0.00  0.00    +0.240 C 
BRANCH  18  22
ATOM     19  C   LIG    1       -1.608   3.318   3.356  0.00  0.00    +0.170 A 
ATOM     20  C   LIG    1       -0.419   3.795   2.825  0.00  0.00    -0.120 A 
ATOM     21  C   LIG    1        0.146   3.175   1.726  0.00  0.00    +0.100 A 
ATOM     22  C   LIG    1       -0.478   2.086   1.148  0.00  0.00    -0.150 A 
ATOM     23  C   LIG    1       -1.668   1.605   1.676  0.00  0.00    +0.190 A 
ATOM     24  C   LIG    1       -2.233   2.222   2.781  0.00  0.00    -0.110 A 
BRANCH  19  26
ATOM     25  C   LIG    1       -1.462   5.048   4.981  0.00  0.00    +0.250 C 
ATOM     26  O   LIG    1       -2.160   3.924   4.440  0.00  0.00    -0.320 OA
ENDBRANCH  19  26
BRANCH  23  27
ATOM     27  O   LIG    1       -2.278   0.531   1.111  0.00  0.00    -0.300 OA
ATOM     28  C   LIG    1       -3.500   0.090   1.706  0.00  0.00    +0.240 C 
ENDBRANCH  23  27
ENDBRANCH  18  22
ENDBRANCH  16  18
ENDBRANCH   1  16
TORSDOF 8
