REMARK  Name = ZINCvU0000000Jsp.0
REMARK                            x       y       z     vdW  Elec       q    Type
REMARK                         _______ _______ _______ _____ _____    ______ ____
ROOT
ATOM      1  C   LIG    1       -1.412  -0.526   0.013  0.00  0.00    +0.580 C 
ATOM      2  N   LIG    1       -1.640  -1.854   0.008  0.00  0.00    -0.460 N 
ATOM      3  N   LIG    1       -0.660  -2.845  -0.006  0.00  0.00    -0.230 NA
ATOM      4  C   LIG    1       -1.126  -4.046  -0.008  0.00  0.00    +0.150 C 
ATOM      5  C   LIG    1       -2.637  -4.001   0.006  0.00  0.00    +0.100 C 
ATOM      6  C   LIG    1       -2.965  -2.495   0.023  0.00  0.00    +0.330 C 
ATOM      7  O   LIG    1       -2.344   0.250   0.026  0.00  0.00    -0.490 OA
ENDROOT
BRANCH   4   8
ATOM      8  C   LIG    1       -0.311  -5.274  -0.021  0.00  0.00    -0.030 A 
ATOM      9  C   LIG    1       -0.930  -6.527  -0.015  0.00  0.00    +0.070 A 
ATOM     10  C   LIG    1       -0.162  -7.672  -0.034  0.00  0.00    +0.030 A 
ATOM     11  C   LIG    1        1.220  -7.583  -0.046  0.00  0.00    -0.020 A 
ATOM     12  C   LIG    1        1.840  -6.344  -0.046  0.00  0.00    +0.030 A 
ATOM     13 CL   LIG    1        2.180  -9.029  -0.062  0.00  0.00    -0.060 Cl
ATOM     14  C   LIG    1        1.083  -5.191  -0.034  0.00  0.00    +0.080 A 
ENDBRANCH   4   8
BRANCH   6  15
ATOM     15  C   LIG    1       -3.717  -2.127   1.275  0.00  0.00    -0.030 A 
ATOM     16  C   LIG    1       -5.036  -1.871   1.354  0.00  0.00    -0.030 A 
ATOM     17  C   LIG    1       -5.315  -1.571   2.707  0.00  0.00    -0.060 A 
ATOM     18  C   LIG    1       -4.150  -1.662   3.375  0.00  0.00    +0.180 A 
ATOM     19  O   LIG    1       -3.187  -2.005   2.503  0.00  0.00    -0.170 OA
ENDBRANCH   6  15
BRANCH   1  20
ATOM     20  C   LIG    1        0.002  -0.004   0.002  0.00  0.00    +0.120 C 
BRANCH  20  21
ATOM     21  S   LIG    1       -0.022   1.810   0.012  0.00  0.00    +0.100 S 
BRANCH  21  25
ATOM     22  C   LIG    1        3.978   3.229  -0.019  0.00  0.00    +0.020 A 
ATOM     23  N   LIG    1        3.932   1.933  -0.025  0.00  0.00    -0.280 NA
ATOM     24  N   LIG    1        2.670   1.382  -0.010  0.00  0.00    -0.280 NA
ATOM     25  C   LIG    1        1.689   2.229  -0.002  0.00  0.00    +0.010 A 
ATOM     26  S   LIG    1        2.338   3.866   0.001  0.00  0.00    +0.160 S 
BRANCH  22  27
ATOM     27  S   LIG    1        5.450   4.198  -0.028  0.00  0.00    +0.030 S 
BRANCH  27  28
ATOM     28  C   LIG    1        6.763   2.946  -0.047  0.00  0.00    +0.140 C 
BRANCH  28  30
ATOM     29  C   LIG    1        8.834   3.657   1.032  0.00  0.00    +0.060 C 
ATOM     30  C   LIG    1        8.107   3.628  -0.057  0.00  0.00    -0.130 C 
ATOM     31  C   LIG    1        8.614   4.277  -1.319  0.00  0.00    +0.090 C 
ENDBRANCH  28  30
ENDBRANCH  27  28
ENDBRANCH  22  27
ENDBRANCH  21  25
ENDBRANCH  20  21
ENDBRANCH   1  20
TORSDOF 8
