REMARK  Name = ZINCrD00000hQ5gO.0
REMARK                            x       y       z     vdW  Elec       q    Type
REMARK                         _______ _______ _______ _____ _____    ______ ____
ROOT
ATOM      1  C   LIG    1       -0.060   1.408  -2.529  0.00  0.00    +0.620 C 
ATOM      2  N   LIG    1       -0.589   1.183  -1.310  0.00  0.00    -0.610 N 
ATOM      3  C   LIG    1        0.174   0.895  -0.082  0.00  0.00    +0.240 C 
ATOM      4  C   LIG    1       -0.757   1.328   1.077  0.00  0.00    +0.030 C 
ATOM      5  C   LIG    1       -2.149   0.908   0.528  0.00  0.00    +0.270 C 
ATOM      6  C   LIG    1       -2.023   1.184  -0.985  0.00  0.00    +0.220 C 
ATOM      7  C   LIG    1       -2.737   0.086  -1.775  0.00  0.00    +0.040 C 
ATOM      8  O   LIG    1       -0.790   1.599  -3.483  0.00  0.00    -0.540 OA
ENDROOT
BRANCH   1  10
ATOM      9  C   LIG    1        2.087   1.782  -3.851  0.00  0.00    +0.170 A 
ATOM     10  C   LIG    1        1.403   1.422  -2.707  0.00  0.00    -0.300 A 
ATOM     11  C   LIG    1        2.369   1.064  -1.739  0.00  0.00    +0.260 A 
ATOM     12  N   LIG    1        3.550   1.208  -2.275  0.00  0.00    -0.290 NA
ATOM     13  N   LIG    1        3.398   1.658  -3.591  0.00  0.00    -0.350 N 
BRANCH  13  14
ATOM     14  C   LIG    1        4.487   1.942  -4.530  0.00  0.00    +0.180 C 
ATOM     15  C   LIG    1        4.505   3.437  -4.853  0.00  0.00    +0.050 C 
ATOM     16  C   LIG    1        4.271   1.144  -5.817  0.00  0.00    +0.050 C 
ATOM     17  C   LIG    1        5.822   1.540  -3.898  0.00  0.00    +0.080 C 
ENDBRANCH  13  14
BRANCH   9  19
ATOM     18  C   LIG    1        1.137   1.011  -6.008  0.00  0.00    +0.050 C 
ATOM     19  C   LIG    1        1.473   2.233  -5.151  0.00  0.00    +0.120 C 
ENDBRANCH   9  19
ENDBRANCH   1  10
BRANCH   5  20
ATOM     20  N   LIG    1       -2.396  -0.514   0.777  0.00  0.00    -0.700 N 
ATOM     21  H   LIG    1       -2.110  -1.177   0.129  0.00  0.00    +0.410 HD
ATOM     22  C   LIG    1       -3.021  -0.903   1.906  0.00  0.00    +0.650 C 
ATOM     23  O   LIG    1       -3.380  -0.073   2.718  0.00  0.00    -0.560 OA
BRANCH  22  24
ATOM     24  O   LIG    1       -3.248  -2.210   2.134  0.00  0.00    -0.360 OA
BRANCH  24  25
ATOM     25  C   LIG    1       -3.926  -2.555   3.371  0.00  0.00    +0.140 C 
ATOM     26  C   LIG    1       -3.096  -2.068   4.561  0.00  0.00    +0.040 C 
ATOM     27  C   LIG    1       -4.094  -4.074   3.454  0.00  0.00    +0.080 C 
ATOM     28  C   LIG    1       -5.303  -1.887   3.402  0.00  0.00    +0.040 C 
ENDBRANCH  24  25
ENDBRANCH  22  24
ENDBRANCH   5  20
TORSDOF 6
