REMARK  Name = ZINCvU0000000JJW.0
REMARK                            x       y       z     vdW  Elec       q    Type
REMARK                         _______ _______ _______ _____ _____    ______ ____
ROOT
ATOM      1  C   LIG    1       -4.088  -2.624   2.021  0.00  0.00    +0.570 C 
ATOM      2  N   LIG    1       -4.668  -1.455   1.686  0.00  0.00    -0.650 N 
ATOM      3  H   LIG    1       -5.632  -1.401   1.593  0.00  0.00    +0.410 HD
ATOM      4  O   LIG    1       -2.880  -2.692   2.137  0.00  0.00    -0.490 OA
ENDROOT
BRANCH   1   8
ATOM      5  C   LIG    1       -6.481  -6.072   2.673  0.00  0.00    +0.190 A 
ATOM      6  C   LIG    1       -5.099  -6.152   2.805  0.00  0.00    +0.030 A 
ATOM      7  C   LIG    1       -4.320  -5.036   2.595  0.00  0.00    +0.120 A 
ATOM      8  C   LIG    1       -4.920  -3.823   2.247  0.00  0.00    -0.140 A 
ATOM      9  C   LIG    1       -6.309  -3.745   2.120  0.00  0.00    +0.070 A 
ATOM     10  C   LIG    1       -7.082  -4.867   2.327  0.00  0.00    +0.000 A 
BRANCH   5  17
ATOM     11  C   LIG    1       -9.283  -6.033   3.935  0.00  0.00    +0.160 C 
ATOM     12  C   LIG    1       -8.509  -7.228   3.441  0.00  0.00    +0.090 A 
ATOM     13  C   LIG    1       -8.924  -8.515   3.469  0.00  0.00    -0.100 A 
ATOM     14  C   LIG    1       -7.911  -9.307   2.917  0.00  0.00    +0.090 A 
ATOM     15  N   LIG    1       -6.923  -8.526   2.564  0.00  0.00    -0.290 NA
ATOM     16  C   LIG    1       -7.953 -10.805   2.751  0.00  0.00    +0.160 C 
ATOM     17  N   LIG    1       -7.269  -7.207   2.887  0.00  0.00    -0.340 N 
ENDBRANCH   5  17
ENDBRANCH   1   8
BRANCH   2  18
ATOM     18  C   LIG    1       -3.883  -0.324   1.473  0.00  0.00    +0.310 A 
ATOM     19  C   LIG    1       -2.527  -0.255   1.568  0.00  0.00    -0.080 A 
ATOM     20  C   LIG    1       -2.143   1.058   1.278  0.00  0.00    +0.110 A 
ATOM     21  N   LIG    1       -3.218   1.758   1.022  0.00  0.00    -0.270 NA
ATOM     22  N   LIG    1       -4.332   0.915   1.131  0.00  0.00    -0.340 N 
BRANCH  22  23
ATOM     23  C   LIG    1       -5.669   1.283   0.930  0.00  0.00    +0.160 A 
ATOM     24  C   LIG    1       -6.560   0.384   0.360  0.00  0.00    -0.030 A 
ATOM     25  C   LIG    1       -7.878   0.747   0.168  0.00  0.00    +0.050 A 
ATOM     26  C   LIG    1       -8.309   2.010   0.533  0.00  0.00    +0.010 A 
ATOM     27  C   LIG    1       -7.423   2.910   1.095  0.00  0.00    +0.040 A 
ATOM     28  C   LIG    1       -6.104   2.550   1.296  0.00  0.00    +0.030 A 
ENDBRANCH  22  23
BRANCH  20  29
ATOM     29  C   LIG    1       -0.729   1.579   1.267  0.00  0.00    +0.010 C 
ATOM     30  C   LIG    1       -0.750   3.109   1.275  0.00  0.00    +0.040 C 
ATOM     31  C   LIG    1        0.011   1.072   2.506  0.00  0.00    +0.050 C 
ATOM     32  C   LIG    1       -0.013   1.086   0.008  0.00  0.00    +0.050 C 
ENDBRANCH  20  29
ENDBRANCH   2  18
TORSDOF 5
