REMARK  Name = ZINCrg00000fS9ol.0
REMARK                            x       y       z     vdW  Elec       q    Type
REMARK                         _______ _______ _______ _____ _____    ______ ____
ROOT
ATOM      1  C   LIG    1       -0.478  -0.108   0.186  0.00  0.00    +0.040 C 
ATOM      2  C   LIG    1       -1.290  -1.086   1.038  0.00  0.00    +0.040 C 
ATOM      3  C   LIG    1       -0.775  -2.510   0.804  0.00  0.00    +0.290 C 
ATOM      4  N   LIG    1        0.670  -2.539   1.064  0.00  0.00    -0.580 N 
ATOM      5  C   LIG    1        1.534  -1.578   0.364  0.00  0.00    +0.310 C 
ATOM      6  C   LIG    1        0.993  -0.165   0.604  0.00  0.00    +0.050 C 
ENDROOT
BRANCH   4   7
ATOM      7  C   LIG    1        1.207  -3.450   1.948  0.00  0.00    +0.520 C 
ATOM      8  N   LIG    1        2.387  -3.941   1.749  0.00  0.00    -0.870 NA
ATOM      9  S   LIG    1        2.677  -4.990   3.018  0.00  0.00    +2.580 S 
ATOM     10  C   LIG    1        1.153  -4.811   3.902  0.00  0.00    -0.620 A 
ATOM     11  C   LIG    1        0.635  -5.349   5.045  0.00  0.00    +0.160 A 
ATOM     12  C   LIG    1       -0.634  -4.976   5.466  0.00  0.00    +0.060 A 
ATOM     13  C   LIG    1       -1.358  -4.063   4.721  0.00  0.00    +0.060 A 
ATOM     14  C   LIG    1       -0.838  -3.518   3.568  0.00  0.00    +0.090 A 
ATOM     15  O   LIG    1        2.711  -6.306   2.484  0.00  0.00    -0.940 OA
ATOM     16  O   LIG    1        3.707  -4.426   3.819  0.00  0.00    -0.940 OA
ATOM     17  C   LIG    1        0.442  -3.884   3.127  0.00  0.00    -0.120 A 
ENDBRANCH   4   7
BRANCH   1  18
ATOM     18  C   LIG    1       -1.004   1.290   0.389  0.00  0.00    +0.460 C 
ATOM     19  O   LIG    1       -0.276   2.152   0.822  0.00  0.00    -0.480 OA
BRANCH  18  20
ATOM     20  O   LIG    1       -2.278   1.579   0.082  0.00  0.00    -0.330 OA
BRANCH  20  24
ATOM     21  C   LIG    1       -6.336   2.972  -0.185  0.00  0.00    +0.080 C 
ATOM     22  C   LIG    1       -5.040   3.613   0.316  0.00  0.00    +0.180 C 
ATOM     23  C   LIG    1       -3.878   3.300  -0.651  0.00  0.00    +0.070 C 
ATOM     24  C   LIG    1       -2.716   2.946   0.303  0.00  0.00    +0.160 C 
ATOM     25  C   LIG    1       -3.302   3.095   1.692  0.00  0.00    +0.470 C 
ATOM     26  O   LIG    1       -2.676   3.251   2.713  0.00  0.00    -0.420 OA
ATOM     27  O   LIG    1       -4.642   3.023   1.590  0.00  0.00    -0.340 OA
ENDBRANCH  20  24
ENDBRANCH  18  20
ENDBRANCH   1  18
TORSDOF 4
