REMARK  Name = ZINCkj000005lcWG.1
REMARK                            x       y       z     vdW  Elec       q    Type
REMARK                         _______ _______ _______ _____ _____    ______ ____
ROOT
ATOM      1  N   LIG    1       -1.337   4.125   2.297  0.00  0.00    -0.660 N 
ATOM      2  H   LIG    1       -1.809   3.633   2.987  0.00  0.00    +0.420 HD
ATOM      3  C   LIG    1       -0.752   3.465   1.279  0.00  0.00    +0.520 C 
ATOM      4  O   LIG    1       -0.250   4.083   0.364  0.00  0.00    -0.500 OA
ENDROOT
BRANCH   1  10
ATOM      5  C   LIG    1       -2.249   6.243   3.047  0.00  0.00    -0.060 A 
ATOM      6  C   LIG    1       -2.163   7.636   3.106  0.00  0.00    +0.090 A 
ATOM      7  C   LIG    1       -1.122   8.287   2.479  0.00  0.00    +0.010 A 
ATOM      8  C   LIG    1       -0.156   7.567   1.796  0.00  0.00    +0.080 A 
ATOM      9  C   LIG    1       -0.225   6.189   1.734  0.00  0.00    +0.020 A 
ATOM     10  C   LIG    1       -1.266   5.516   2.359  0.00  0.00    +0.180 A 
BRANCH   5  12
ATOM     11  N   LIG    1       -4.189   5.019   4.202  0.00  0.00    -0.400 NA
ATOM     12  C   LIG    1       -3.331   5.561   3.691  0.00  0.00    +0.240 C 
ENDBRANCH   5  12
ENDBRANCH   1  10
BRANCH   3  13
ATOM     13  C   LIG    1       -0.721   1.958   1.277  0.00  0.00    +0.070 C 
BRANCH  13  14
ATOM     14  C   LIG    1       -0.004   1.464   0.018  0.00  0.00    +0.290 C 
BRANCH  14  15
ATOM     15  N   LIG    1        0.026  -0.004   0.016  0.00  0.00    -0.380 N 
ATOM     16  C   LIG    1        0.840  -0.477   1.143  0.00  0.00    +0.240 C 
ATOM     17  C   LIG    1        0.806  -2.006   1.194  0.00  0.00    +0.070 C 
ATOM     18  C   LIG    1        1.371  -2.567  -0.114  0.00  0.00    +0.010 C 
ATOM     19  C   LIG    1        0.562  -2.008  -1.289  0.00  0.00    +0.170 C 
ATOM     20  C   LIG    1        0.603  -0.479  -1.247  0.00  0.00    +0.280 C 
ATOM     21  H   LIG    1       -0.914  -0.359   0.110  0.00  0.00    +0.420 HD
BRANCH  19  22
ATOM     22  O   LIG    1        1.126  -2.467  -2.519  0.00  0.00    -0.550 OA
ATOM     23  H   LIG    1        1.133  -3.429  -2.614  0.00  0.00    +0.410 HD
ENDBRANCH  19  22
ENDBRANCH  14  15
ENDBRANCH  13  14
ENDBRANCH   3  13
TORSDOF 6
