REMARK  Name = ZINCkj000005lcWG.0
REMARK                            x       y       z     vdW  Elec       q    Type
REMARK                         _______ _______ _______ _____ _____    ______ ____
ROOT
ATOM      1  N   LIG    1       -0.404   0.997  -4.887  0.00  0.00    -0.660 N 
ATOM      2  H   LIG    1        0.392   0.453  -4.988  0.00  0.00    +0.420 HD
ATOM      3  C   LIG    1       -0.802   1.390  -3.661  0.00  0.00    +0.520 C 
ATOM      4  O   LIG    1       -1.738   2.152  -3.542  0.00  0.00    -0.500 OA
ENDROOT
BRANCH   1  10
ATOM      5  C   LIG    1       -0.515   1.449  -7.267  0.00  0.00    -0.060 A 
ATOM      6  C   LIG    1       -1.262   1.822  -8.386  0.00  0.00    +0.090 A 
ATOM      7  C   LIG    1       -2.601   2.123  -8.250  0.00  0.00    +0.010 A 
ATOM      8  C   LIG    1       -3.211   2.052  -7.009  0.00  0.00    +0.080 A 
ATOM      9  C   LIG    1       -2.486   1.679  -5.894  0.00  0.00    +0.020 A 
ATOM     10  C   LIG    1       -1.138   1.373  -6.012  0.00  0.00    +0.180 A 
BRANCH   5  12
ATOM     11  N   LIG    1        1.981   0.895  -7.506  0.00  0.00    -0.400 NA
ATOM     12  C   LIG    1        0.877   1.140  -7.400  0.00  0.00    +0.240 C 
ENDBRANCH   5  12
ENDBRANCH   1  10
BRANCH   3  13
ATOM     13  C   LIG    1       -0.083   0.883  -2.437  0.00  0.00    +0.070 C 
BRANCH  13  14
ATOM     14  C   LIG    1       -0.729   1.477  -1.184  0.00  0.00    +0.290 C 
BRANCH  14  15
ATOM     15  N   LIG    1       -0.028   0.982   0.009  0.00  0.00    -0.380 N 
ATOM     16  C   LIG    1        1.353   1.480   0.005  0.00  0.00    +0.240 C 
ATOM     17  C   LIG    1        2.110   0.904   1.204  0.00  0.00    +0.060 C 
ATOM     18  C   LIG    1        1.413   1.337   2.497  0.00  0.00    +0.020 C 
ATOM     19  C   LIG    1       -0.047   0.876   2.457  0.00  0.00    +0.180 C 
ATOM     20  C   LIG    1       -0.725   1.454   1.212  0.00  0.00    +0.280 C 
ATOM     21  H   LIG    1       -0.021  -0.026  -0.001  0.00  0.00    +0.430 HD
BRANCH  19  22
ATOM     22  O   LIG    1       -0.096  -0.551   2.408  0.00  0.00    -0.570 OA
ATOM     23  H   LIG    1        0.319  -0.985   3.166  0.00  0.00    +0.410 HD
ENDBRANCH  19  22
ENDBRANCH  14  15
ENDBRANCH  13  14
ENDBRANCH   3  13
TORSDOF 6
