REMARK  Name = ZINCqH0000050xGP.0
REMARK                            x       y       z     vdW  Elec       q    Type
REMARK                         _______ _______ _______ _____ _____    ______ ____
ROOT
ATOM      1  C   LIG    1       -0.275   4.364   4.236  0.00  0.00    +0.530 C 
ATOM      2  N   LIG    1       -1.133   3.497   3.663  0.00  0.00    -0.560 N 
ATOM      3  C   LIG    1       -1.647   3.730   2.304  0.00  0.00    +0.300 C 
ATOM      4  C   LIG    1       -0.754   3.100   1.269  0.00  0.00    +0.030 C 
ATOM      5  C   LIG    1       -0.729   1.579   1.267  0.00  0.00    +0.030 C 
ATOM      6  S   LIG    1        0.147   0.969   2.736  0.00  0.00    -0.150 S 
ATOM      7  C   LIG    1       -1.109   1.088   3.987  0.00  0.00    -0.100 A 
ATOM      8  C   LIG    1       -1.615  -0.051   4.584  0.00  0.00    +0.080 A 
ATOM      9  C   LIG    1       -2.573   0.075   5.577  0.00  0.00    +0.030 A 
ATOM     10  C   LIG    1       -3.005   1.329   5.965  0.00  0.00    +0.040 A 
ATOM     11  C   LIG    1       -2.504   2.467   5.359  0.00  0.00    +0.010 A 
ATOM     12  C   LIG    1       -0.013   1.086   0.008  0.00  0.00    +0.080 C 
ATOM     13  C   LIG    1       -1.559   2.350   4.347  0.00  0.00    +0.140 A 
ATOM     14  O   LIG    1        0.083   5.352   3.630  0.00  0.00    -0.500 OA
ENDROOT
BRANCH   1  15
ATOM     15  C   LIG    1        0.239   4.107   5.629  0.00  0.00    +0.250 C 
BRANCH  15  16
ATOM     16  O   LIG    1        1.141   5.177   6.017  0.00  0.00    -0.330 OA
BRANCH  16  17
ATOM     17  C   LIG    1        1.692   5.097   7.244  0.00  0.00    +0.510 C 
ATOM     18  O   LIG    1        1.425   4.160   7.970  0.00  0.00    -0.490 OA
BRANCH  17  24
ATOM     19  C   LIG    1        4.684   6.984  10.777  0.00  0.00    +0.110 C 
ATOM     20  C   LIG    1        4.062   7.063   9.406  0.00  0.00    -0.130 A 
ATOM     21  C   LIG    1        4.358   8.124   8.575  0.00  0.00    +0.070 A 
ATOM     22  C   LIG    1        3.792   8.206   7.313  0.00  0.00    +0.000 A 
ATOM     23  C   LIG    1        2.930   7.225   6.873  0.00  0.00    +0.090 A 
ATOM     24  C   LIG    1        2.617   6.147   7.706  0.00  0.00    -0.150 A 
ATOM     25  C   LIG    1        3.192   6.069   8.982  0.00  0.00    +0.170 A 
BRANCH  25  26
ATOM     26  O   LIG    1        2.899   5.026   9.799  0.00  0.00    -0.480 OA
ATOM     27  H   LIG    1        3.495   4.271   9.701  0.00  0.00    +0.400 HD
ENDBRANCH  25  26
ENDBRANCH  17  24
ENDBRANCH  16  17
ENDBRANCH  15  16
ENDBRANCH   1  15
TORSDOF 5
