REMARK  Name = ZINCvU0000000F4X.0
REMARK                            x       y       z     vdW  Elec       q    Type
REMARK                         _______ _______ _______ _____ _____    ______ ____
ROOT
ATOM      1  C   LIG    1       -2.798   3.928   0.004  0.00  0.00    +0.510 C 
ATOM      2  O   LIG    1       -3.784   3.226  -0.102  0.00  0.00    -0.490 OA
ENDROOT
BRANCH   1   3
ATOM      3  C   LIG    1       -1.456   3.312   0.072  0.00  0.00    -0.100 A 
ATOM      4  C   LIG    1       -0.318   4.113   0.089  0.00  0.00    +0.090 A 
ATOM      5  C   LIG    1        0.936   3.533   0.154  0.00  0.00    +0.020 A 
ATOM      6  C   LIG    1        1.068   2.156   0.202  0.00  0.00    +0.060 A 
ATOM      7  C   LIG    1       -0.050   1.344   0.186  0.00  0.00    +0.040 A 
ATOM      8  C   LIG    1       -1.321   1.911   0.115  0.00  0.00    -0.080 A 
BRANCH   8   9
ATOM      9  C   LIG    1       -2.520   1.047   0.092  0.00  0.00    +0.460 C 
ATOM     10  O   LIG    1       -2.912   0.524   1.117  0.00  0.00    -0.430 OA
BRANCH   9  11
ATOM     11  C   LIG    1       -3.242   0.819  -1.176  0.00  0.00    -0.130 A 
ATOM     12  C   LIG    1       -2.737   1.335  -2.373  0.00  0.00    +0.070 A 
ATOM     13  C   LIG    1       -3.413   1.115  -3.554  0.00  0.00    +0.020 A 
ATOM     14  C   LIG    1       -4.596   0.393  -3.554  0.00  0.00    -0.010 A 
ATOM     15  C   LIG    1       -5.104  -0.116  -2.370  0.00  0.00    +0.020 A 
ATOM     16 CL   LIG    1       -5.445   0.126  -5.045  0.00  0.00    -0.060 Cl
ATOM     17  C   LIG    1       -4.435   0.092  -1.183  0.00  0.00    +0.100 A 
ENDBRANCH   9  11
ENDBRANCH   8   9
ENDBRANCH   1   3
BRANCH   1  18
ATOM     18  O   LIG    1       -2.928   5.268   0.058  0.00  0.00    -0.320 OA
BRANCH  18  19
ATOM     19  C   LIG    1       -4.275   5.803  -0.015  0.00  0.00    +0.270 C 
BRANCH  19  22
ATOM     20  N   LIG    1       -5.363   8.024   0.011  0.00  0.00    -0.660 N 
ATOM     21  H   LIG    1       -6.210   7.579  -0.152  0.00  0.00    +0.420 HD
ATOM     22  C   LIG    1       -4.223   7.307   0.060  0.00  0.00    +0.520 C 
ATOM     23  O   LIG    1       -3.155   7.873   0.165  0.00  0.00    -0.490 OA
BRANCH  20  30
ATOM     24  C   LIG    1       -6.339  10.214  -0.327  0.00  0.00    +0.110 A 
ATOM     25  C   LIG    1       -6.298  11.586  -0.141  0.00  0.00    -0.040 A 
ATOM     26  C   LIG    1       -5.253  12.158   0.562  0.00  0.00    +0.060 A 
ATOM     27  C   LIG    1       -4.247  11.364   1.082  0.00  0.00    -0.050 A 
ATOM     28  C   LIG    1       -4.284   9.992   0.905  0.00  0.00    +0.070 A 
ATOM     29 CL   LIG    1       -2.939  12.088   1.964  0.00  0.00    -0.060 Cl
ATOM     30  C   LIG    1       -5.326   9.413   0.196  0.00  0.00    +0.130 A 
BRANCH  24  32
ATOM     31  C   LIG    1       -8.368  10.534  -1.524  0.00  0.00    +0.250 C 
ATOM     32  O   LIG    1       -7.366   9.651  -1.017  0.00  0.00    -0.320 OA
ENDBRANCH  24  32
ENDBRANCH  20  30
ENDBRANCH  19  22
ENDBRANCH  18  19
ENDBRANCH   1  18
TORSDOF 8
