REMARK  Name = ZINCpk000000mSLI.0
REMARK                            x       y       z     vdW  Elec       q    Type
REMARK                         _______ _______ _______ _____ _____    ______ ____
ROOT
ATOM      1  S   LIG    1        2.892   0.831  -1.412  0.00  0.00    +2.690 S 
ATOM      2  O   LIG    1        1.762   0.488  -2.204  0.00  0.00    -0.960 OA
ATOM      3  O   LIG    1        4.013  -0.025  -1.246  0.00  0.00    -0.930 OA
ENDROOT
BRANCH   1  11
ATOM      4  C   LIG    1        5.481   8.061  -4.637  0.00  0.00    +0.110 C 
ATOM      5  C   LIG    1        4.638   6.878  -4.235  0.00  0.00    +0.520 C 
ATOM      6  N   LIG    1        5.183   5.875  -3.517  0.00  0.00    -0.560 N 
ATOM      7  C   LIG    1        6.577   5.823  -3.071  0.00  0.00    +0.280 C 
ATOM      8  C   LIG    1        6.705   4.499  -2.300  0.00  0.00    +0.110 C 
ATOM      9  C   LIG    1        5.326   3.882  -2.372  0.00  0.00    -0.160 A 
ATOM     10  C   LIG    1        4.836   2.696  -1.861  0.00  0.00    +0.210 A 
ATOM     11  C   LIG    1        3.514   2.346  -2.063  0.00  0.00    -0.680 A 
ATOM     12  C   LIG    1        2.683   3.184  -2.783  0.00  0.00    +0.130 A 
ATOM     13  C   LIG    1        3.166   4.372  -3.289  0.00  0.00    -0.010 A 
ATOM     14  C   LIG    1        4.499   4.733  -3.089  0.00  0.00    +0.200 A 
ATOM     15  O   LIG    1        3.470   6.828  -4.556  0.00  0.00    -0.520 OA
ENDBRANCH   1  11
BRANCH   1  16
ATOM     16  O   LIG    1        2.364   1.125  -0.015  0.00  0.00    -0.650 OA
BRANCH  16  17
ATOM     17  C   LIG    1        1.179   1.784   0.000  0.00  0.00    +0.120 A 
ATOM     18  C   LIG    1       -0.013   1.076   0.008  0.00  0.00    +0.050 A 
ATOM     19  C   LIG    1       -1.218   1.749   0.017  0.00  0.00    +0.080 A 
ATOM     20  C   LIG    1       -1.248   3.134   0.031  0.00  0.00    +0.030 A 
ATOM     21  C   LIG    1       -0.072   3.854   0.023  0.00  0.00    +0.070 A 
ATOM     22  C   LIG    1        1.154   3.186   0.008  0.00  0.00    -0.140 A 
BRANCH  22  23
ATOM     23  C   LIG    1        2.416   3.951   0.001  0.00  0.00    +0.550 C 
ATOM     24  O   LIG    1        3.481   3.366  -0.012  0.00  0.00    -0.510 OA
ATOM     25  N   LIG    1        2.387   5.298   0.008  0.00  0.00    -0.840 N 
ATOM     26  H   LIG    1        3.216   5.801   0.003  0.00  0.00    +0.410 HD
ATOM     27  H   LIG    1        1.536   5.765   0.018  0.00  0.00    +0.400 HD
ENDBRANCH  22  23
ENDBRANCH  16  17
ENDBRANCH   1  16
TORSDOF 4
