REMARK  Name = ZINCrg00000J1IRV.0
REMARK                            x       y       z     vdW  Elec       q    Type
REMARK                         _______ _______ _______ _____ _____    ______ ____
ROOT
ATOM      1  C   LIG    1        5.838   1.047   0.717  0.00  0.00    +0.510 C 
ATOM      2  N   LIG    1        7.035   0.435   0.810  0.00  0.00    -0.670 N 
ATOM      3  H   LIG    1        7.081  -0.530   0.897  0.00  0.00    +0.420 HD
ATOM      4  O   LIG    1        5.777   2.258   0.693  0.00  0.00    -0.490 OA
ENDROOT
BRANCH   2   5
ATOM      5  C   LIG    1        8.212   1.191   0.781  0.00  0.00    +0.120 A 
ATOM      6  C   LIG    1        9.352   0.682   0.175  0.00  0.00    +0.060 A 
ATOM      7  C   LIG    1       10.511   1.434   0.143  0.00  0.00    +0.020 A 
ATOM      8  C   LIG    1       10.539   2.687   0.725  0.00  0.00    +0.120 A 
ATOM      9  C   LIG    1        9.407   3.195   1.335  0.00  0.00    -0.660 A 
ATOM     10  C   LIG    1        8.244   2.451   1.365  0.00  0.00    +0.140 A 
BRANCH   9  11
ATOM     11  S   LIG    1        9.448   4.793   2.076  0.00  0.00    +2.700 S 
ATOM     12  O   LIG    1        8.105   5.256   2.107  0.00  0.00    -0.950 OA
ATOM     13  O   LIG    1       10.501   5.504   1.439  0.00  0.00    -0.960 OA
BRANCH  11  14
ATOM     14  N   LIG    1        9.909   4.591   3.654  0.00  0.00    -1.250 NA
ATOM     15  H   LIG    1        9.992   5.361   4.237  0.00  0.00    +0.420 HD
ATOM     16  H   LIG    1       10.095   3.702   3.994  0.00  0.00    +0.420 HD
ENDBRANCH  11  14
ENDBRANCH   9  11
ENDBRANCH   2   5
BRANCH   1  17
ATOM     17  C   LIG    1        4.576   0.226   0.642  0.00  0.00    +0.270 C 
BRANCH  17  18
ATOM     18  O   LIG    1        3.429   1.111   0.548  0.00  0.00    -0.330 OA
BRANCH  18  19
ATOM     19  C   LIG    1        2.215   0.532   0.473  0.00  0.00    +0.520 C 
ATOM     20  O   LIG    1        2.117  -0.679   0.486  0.00  0.00    -0.500 OA
BRANCH  19  24
ATOM     21  C   LIG    1       -1.272   2.939   0.190  0.00  0.00    +0.180 A 
ATOM     22  C   LIG    1       -1.385   1.552   0.200  0.00  0.00    +0.010 A 
ATOM     23  C   LIG    1       -0.257   0.769   0.297  0.00  0.00    +0.110 A 
ATOM     24  C   LIG    1        1.004   1.368   0.375  0.00  0.00    -0.150 A 
ATOM     25  C   LIG    1        1.114   2.762   0.359  0.00  0.00    +0.110 A 
ATOM     26  C   LIG    1       -0.018   3.539   0.268  0.00  0.00    -0.020 A 
BRANCH  21  29
ATOM     27  C   LIG    1       -4.764   4.239   0.684  0.00  0.00    +0.120 C 
ATOM     28  C   LIG    1       -3.557   3.337   0.696  0.00  0.00    +0.510 C 
ATOM     29  N   LIG    1       -2.416   3.730   0.096  0.00  0.00    -0.680 N 
ATOM     30  H   LIG    1       -2.391   4.562  -0.400  0.00  0.00    +0.420 HD
ATOM     31  O   LIG    1       -3.613   2.257   1.246  0.00  0.00    -0.520 OA
ENDBRANCH  21  29
ENDBRANCH  19  24
ENDBRANCH  18  19
ENDBRANCH  17  18
ENDBRANCH   1  17
TORSDOF 8
