REMARK  Name = ZINCqH0000037gRZ.0
REMARK                            x       y       z     vdW  Elec       q    Type
REMARK                         _______ _______ _______ _____ _____    ______ ____
ROOT
ATOM      1  C   LIG    1        4.555   0.630  -0.037  0.00  0.00    +0.190 A 
ATOM      2  N   LIG    1        3.711   1.631  -0.030  0.00  0.00    -0.450 NA
ATOM      3  C   LIG    1        2.481   1.070  -0.015  0.00  0.00    +0.200 A 
ATOM      4  N   LIG    1        2.649  -0.227  -0.024  0.00  0.00    -0.360 NA
ATOM      5  O   LIG    1        3.832  -0.494  -0.036  0.00  0.00    +0.090 OA
ENDROOT
BRANCH   3   6
ATOM      6  C   LIG    1        1.184   1.790   0.000  0.00  0.00    -0.020 A 
ATOM      7  C   LIG    1        1.158   3.183   0.008  0.00  0.00    +0.140 A 
ATOM      8  C   LIG    1       -0.052   3.848   0.023  0.00  0.00    +0.050 A 
ATOM      9  C   LIG    1       -1.236   3.134   0.030  0.00  0.00    +0.120 A 
ATOM     10  C   LIG    1       -1.216   1.751   0.017  0.00  0.00    -0.040 A 
ATOM     11  C   LIG    1       -0.013   1.076   0.008  0.00  0.00    +0.140 A 
BRANCH  10  12
ATOM     12  N   LIG    1       -2.488   0.993   0.019  0.00  0.00    +0.030 N 
ATOM     13  O   LIG    1       -3.551   1.588   0.028  0.00  0.00    -0.150 OA
ATOM     14  O   LIG    1       -2.471  -0.225   0.012  0.00  0.00    -0.150 OA
ENDBRANCH  10  12
ENDBRANCH   3   6
BRANCH   1  15
ATOM     15  C   LIG    1        6.059   0.727  -0.050  0.00  0.00    +0.360 C 
BRANCH  15  16
ATOM     16  N   LIG    1        6.560   0.751   1.331  0.00  0.00    -0.670 NA
ATOM     17  H   LIG    1        6.241  -0.055   1.846  0.00  0.00    +0.350 HD
BRANCH  16  19
ATOM     18  C   LIG    1        8.445   2.313   1.248  0.00  0.00    +0.060 C 
ATOM     19  C   LIG    1        8.026   0.846   1.357  0.00  0.00    +0.200 C 
BRANCH  19  20
ATOM     20  C   LIG    1        8.543   0.270   2.650  0.00  0.00    -0.180 A 
ATOM     21  C   LIG    1        7.935   0.602   3.848  0.00  0.00    +0.150 A 
ATOM     22  C   LIG    1        8.408   0.068   5.035  0.00  0.00    -0.030 A 
ATOM     23  C   LIG    1        9.493  -0.787   5.025  0.00  0.00    +0.100 A 
ATOM     24  C   LIG    1       10.105  -1.115   3.830  0.00  0.00    -0.020 A 
ATOM     25  F   LIG    1        6.878   1.442   3.859  0.00  0.00    -0.110 F 
ATOM     26  C   LIG    1        9.631  -0.587   2.641  0.00  0.00    +0.140 A 
ATOM     27  F   LIG    1       10.229  -0.907   1.473  0.00  0.00    -0.130 F 
ENDBRANCH  19  20
ENDBRANCH  16  19
ENDBRANCH  15  16
ENDBRANCH   1  15
TORSDOF 6
