REMARK  Name = ZINCrg00000SjSzH.0
REMARK                            x       y       z     vdW  Elec       q    Type
REMARK                         _______ _______ _______ _____ _____    ______ ____
ROOT
ATOM      1  N   LIG    1       -2.154   1.146  -1.175  0.00  0.00    -0.470 N 
ATOM      2  C   LIG    1       -0.755   1.594  -1.231  0.00  0.00    +0.190 C 
ATOM      3  C   LIG    1       -0.013   1.086   0.008  0.00  0.00    +0.240 C 
ATOM      4  O   LIG    1       -0.683   1.548   1.183  0.00  0.00    -0.370 OA
ATOM      5  C   LIG    1       -2.049   1.123   1.270  0.00  0.00    +0.100 C 
ATOM      6  C   LIG    1       -2.102  -0.403   1.292  0.00  0.00    +0.070 C 
ATOM      7  C   LIG    1       -1.072  -0.943   2.291  0.00  0.00    -0.270 C 
ATOM      8  S   LIG    1       -1.492  -0.302   3.943  0.00  0.00    +2.280 S 
ATOM      9  C   LIG    1       -1.734   1.490   3.726  0.00  0.00    -0.140 C 
ATOM     10  N   LIG    1       -0.304  -0.500   4.827  0.00  0.00    -1.120 NA
ATOM     11  O   LIG    1       -2.594  -0.960   4.552  0.00  0.00    -0.920 OA
ATOM     12  C   LIG    1       -2.676   1.704   2.536  0.00  0.00    +0.120 C 
ATOM     13  C   LIG    1       -2.810   1.639   0.044  0.00  0.00    +0.230 C 
ENDROOT
BRANCH   1  17
ATOM     14  C   LIG    1       -4.264   2.361  -4.452  0.00  0.00    +0.120 A 
ATOM     15  C   LIG    1       -3.108   1.600  -4.675  0.00  0.00    +0.120 A 
ATOM     16  C   LIG    1       -2.381   1.187  -3.574  0.00  0.00    +0.040 A 
ATOM     17  C   LIG    1       -2.848   1.543  -2.308  0.00  0.00    +0.270 A 
ATOM     18  N   LIG    1       -3.955   2.267  -2.190  0.00  0.00    -0.270 NA
ATOM     19  N   LIG    1       -4.629   2.656  -3.210  0.00  0.00    -0.170 NA
BRANCH  14  21
ATOM     20  N   LIG    1       -5.670   3.180  -6.439  0.00  0.00    -0.370 NA
ATOM     21  C   LIG    1       -5.048   2.818  -5.560  0.00  0.00    +0.260 C 
ENDBRANCH  14  21
ENDBRANCH   1  17
BRANCH  10  22
ATOM     22  C   LIG    1        0.089  -1.724   5.143  0.00  0.00    +0.580 C 
ATOM     23  O   LIG    1       -0.517  -2.687   4.714  0.00  0.00    -0.570 OA
BRANCH  22  24
ATOM     24  C   LIG    1        1.287  -1.924   6.035  0.00  0.00    -0.030 C 
ATOM     25  C   LIG    1        1.691  -3.363   6.364  0.00  0.00    +0.080 C 
ATOM     26  C   LIG    1        1.039  -2.487   7.436  0.00  0.00    +0.180 C 
ATOM     27  F   LIG    1        1.855  -2.021   8.473  0.00  0.00    -0.180 F 
ENDBRANCH  22  24
ENDBRANCH  10  22
TORSDOF 4
