REMARK  Name = ZINCkj00000dCYJM.0
REMARK                            x       y       z     vdW  Elec       q    Type
REMARK                         _______ _______ _______ _____ _____    ______ ____
ROOT
ATOM      1  N   LIG    1       -1.394   4.000   1.373  0.00  0.00    -0.720 N 
ATOM      2  H   LIG    1       -2.321   3.722   1.313  0.00  0.00    +0.400 HD
ATOM      3  C   LIG    1       -1.065   5.294   1.184  0.00  0.00    +0.600 C 
ATOM      4  O   LIG    1        0.098   5.643   1.259  0.00  0.00    -0.540 OA
ENDROOT
BRANCH   3   5
ATOM      5  C   LIG    1       -2.115   6.286   0.887  0.00  0.00    -0.310 A 
ATOM      6  C   LIG    1       -1.931   7.632   0.678  0.00  0.00    +0.170 A 
ATOM      7  C   LIG    1       -0.633   8.399   0.688  0.00  0.00    +0.150 C 
ATOM      8  C   LIG    1       -0.874   9.759   0.020  0.00  0.00    +0.030 C 
ATOM      9  C   LIG    1       -2.136  10.393   0.612  0.00  0.00    +0.040 C 
ATOM     10  C   LIG    1       -3.367   9.599   0.163  0.00  0.00    +0.310 C 
ATOM     11  N   LIG    1       -3.139   8.176   0.437  0.00  0.00    -0.350 N 
ATOM     12  N   LIG    1       -4.098   7.164   0.501  0.00  0.00    -0.290 NA
ATOM     13  C   LIG    1       -3.502   6.033   0.769  0.00  0.00    +0.270 A 
ENDBRANCH   3   5
BRANCH   1  16
ATOM     14  C   LIG    1       -0.013   1.086   0.008  0.00  0.00    +0.050 C 
ATOM     15  C   LIG    1       -0.729   1.579   1.267  0.00  0.00    -0.070 C 
ATOM     16  C   LIG    1       -0.351   3.015   1.668  0.00  0.00    +0.260 C 
ATOM     17  C   LIG    1       -0.360   2.526   3.126  0.00  0.00    +0.030 C 
ATOM     18  C   LIG    1       -2.238   1.329   1.229  0.00  0.00    +0.060 C 
ATOM     19  C   LIG    1       -0.061   1.122   2.575  0.00  0.00    -0.020 C 
BRANCH  19  20
ATOM     20  C   LIG    1       -0.822   0.006   3.294  0.00  0.00    +0.280 C 
BRANCH  20  21
ATOM     21  N   LIG    1       -0.049  -0.441   4.460  0.00  0.00    -0.640 N 
ATOM     22  H   LIG    1        0.849  -0.788   4.155  0.00  0.00    +0.440 HD
ATOM     23  H   LIG    1       -0.550  -1.177   4.934  0.00  0.00    +0.440 HD
ATOM     24  H   LIG    1        0.087   0.335   5.091  0.00  0.00    +0.440 HD
ENDBRANCH  20  21
ENDBRANCH  19  20
ENDBRANCH   1  16
TORSDOF 4
