REMARK  Name = ZINCpe00000bR2uG.1
REMARK                            x       y       z     vdW  Elec       q    Type
REMARK                         _______ _______ _______ _____ _____    ______ ____
ROOT
ATOM      1  C   LIG    1        3.067   7.025   1.262  0.00  0.00    +0.040 C 
ATOM      2  C   LIG    1        2.164   7.023   0.026  0.00  0.00    +0.220 C 
ATOM      3  C   LIG    1        1.215   8.239   0.064  0.00  0.00    +0.050 C 
ATOM      4  C   LIG    1       -0.088   7.642   0.657  0.00  0.00    -0.030 C 
ATOM      5  C   LIG    1       -0.090   6.223   0.037  0.00  0.00    +0.280 C 
ATOM      6  N   LIG    1        1.326   5.815   0.021  0.00  0.00    -0.590 N 
ATOM      7  C   LIG    1        1.778   4.546   0.010  0.00  0.00    +0.630 C 
ATOM      8  O   LIG    1        2.976   4.326  -0.002  0.00  0.00    -0.540 OA
ENDROOT
BRANCH   7   9
ATOM      9  C   LIG    1        0.830   3.432   0.013  0.00  0.00    +0.080 A 
ATOM     10  N   LIG    1       -0.490   3.543   0.026  0.00  0.00    -0.400 NA
ATOM     11  C   LIG    1       -1.042   2.344   0.019  0.00  0.00    +0.180 A 
ATOM     12  C   LIG    1       -0.017   1.400   0.010  0.00  0.00    +0.030 A 
ATOM     13  C   LIG    1        0.002  -0.004   0.002  0.00  0.00    +0.070 A 
ATOM     14  C   LIG    1        1.201  -0.653  -0.013  0.00  0.00    +0.030 A 
ATOM     15  C   LIG    1        2.391   0.091  -0.020  0.00  0.00    +0.030 A 
ATOM     16  C   LIG    1        2.353   1.442  -0.013  0.00  0.00    +0.240 A 
ATOM     17  N   LIG    1        1.162   2.102   0.002  0.00  0.00    -0.320 N 
ENDBRANCH   7   9
BRANCH   4  18
ATOM     18  C   LIG    1       -1.313   8.440   0.206  0.00  0.00    +0.280 C 
BRANCH  18  19
ATOM     19  N   LIG    1       -2.524   7.830   0.759  0.00  0.00    -0.730 N 
ATOM     20  H   LIG    1       -2.458   7.039   1.317  0.00  0.00    +0.400 HD
ATOM     21  C   LIG    1       -3.732   8.366   0.492  0.00  0.00    +0.510 C 
ATOM     22  O   LIG    1       -3.815   9.355  -0.205  0.00  0.00    -0.520 OA
BRANCH  21  23
ATOM     23  C   LIG    1       -4.978   7.738   1.061  0.00  0.00    +0.200 C 
BRANCH  23  24
ATOM     24  N   LIG    1       -6.154   8.504   0.628  0.00  0.00    -0.530 NA
ATOM     25  C   LIG    1       -7.359   8.070   1.347  0.00  0.00    +0.190 C 
ATOM     26  C   LIG    1       -6.343   8.402  -0.826  0.00  0.00    +0.200 C 
ENDBRANCH  23  24
ENDBRANCH  21  23
ENDBRANCH  18  19
ENDBRANCH   4  18
TORSDOF 5
