REMARK  Name = ZINCtV00000vrZTW.0
REMARK                            x       y       z     vdW  Elec       q    Type
REMARK                         _______ _______ _______ _____ _____    ______ ____
ROOT
ATOM      1  N   LIG    1        1.171   1.902   0.245  0.00  0.00    -0.740 N 
ATOM      2  H   LIG    1        1.167   2.871   0.291  0.00  0.00    +0.390 HD
ATOM      3  C   LIG    1        0.025   1.215   0.420  0.00  0.00    +0.710 C 
ATOM      4  N   LIG    1       -1.127   1.874   0.654  0.00  0.00    -0.740 N 
ATOM      5  H   LIG    1       -1.131   2.843   0.700  0.00  0.00    +0.390 HD
ATOM      6  O   LIG    1        0.029   0.000   0.363  0.00  0.00    -0.580 OA
ENDROOT
BRANCH   4   7
ATOM      7  C   LIG    1       -2.374   1.127   0.839  0.00  0.00    +0.270 C 
ATOM      8  C   LIG    1       -2.537   0.728   2.320  0.00  0.00    +0.020 C 
ATOM      9  C   LIG    1       -3.433   1.842   2.916  0.00  0.00    +0.020 C 
ATOM     10  C   LIG    1       -4.432   2.129   1.768  0.00  0.00    +0.040 C 
ATOM     11  C   LIG    1       -3.579   2.017   0.487  0.00  0.00    +0.010 C 
BRANCH  11  12
ATOM     12  C   LIG    1       -4.385   1.384  -0.617  0.00  0.00    -0.020 A 
ATOM     13  C   LIG    1       -4.946   0.134  -0.434  0.00  0.00    +0.020 A 
ATOM     14  C   LIG    1       -5.685  -0.447  -1.448  0.00  0.00    +0.050 A 
ATOM     15  C   LIG    1       -5.863   0.222  -2.644  0.00  0.00    +0.020 A 
ATOM     16  C   LIG    1       -5.302   1.472  -2.827  0.00  0.00    +0.070 A 
ATOM     17  C   LIG    1       -4.567   2.055  -1.812  0.00  0.00    -0.180 A 
BRANCH  17  18
ATOM     18  C   LIG    1       -3.960   3.420  -2.010  0.00  0.00    +0.510 C 
ATOM     19  F   LIG    1       -2.570   3.336  -1.878  0.00  0.00    -0.170 F 
ATOM     20  F   LIG    1       -4.468   4.300  -1.047  0.00  0.00    -0.180 F 
ATOM     21  F   LIG    1       -4.280   3.892  -3.287  0.00  0.00    -0.180 F 
ENDBRANCH  17  18
ENDBRANCH  11  12
ENDBRANCH   4   7
BRANCH   1  23
ATOM     22  C   LIG    1        2.713   0.230   1.144  0.00  0.00    +0.040 C 
ATOM     23  C   LIG    1        2.422   1.186  -0.015  0.00  0.00    +0.240 C 
ATOM     24  C   LIG    1        2.292   0.388  -1.314  0.00  0.00    +0.060 C 
BRANCH  23  25
ATOM     25  C   LIG    1        3.550   2.177  -0.144  0.00  0.00    -0.080 A 
ATOM     26  C   LIG    1        4.682   1.845  -0.864  0.00  0.00    +0.040 A 
ATOM     27  C   LIG    1        5.715   2.755  -0.988  0.00  0.00    +0.040 A 
ATOM     28  C   LIG    1        5.620   3.995  -0.381  0.00  0.00    -0.040 A 
ATOM     29  C   LIG    1        4.489   4.325   0.344  0.00  0.00    +0.040 A 
ATOM     30 CL   LIG    1        6.920   5.136  -0.531  0.00  0.00    -0.070 Cl
ATOM     31  C   LIG    1        3.455   3.416   0.463  0.00  0.00    +0.020 A 
ENDBRANCH  23  25
ENDBRANCH   1  23
TORSDOF 5
