REMARK  Name = ZINCrH000008uzlq.0
REMARK                            x       y       z     vdW  Elec       q    Type
REMARK                         _______ _______ _______ _____ _____    ______ ____
ROOT
ATOM      1  C   LIG    1       -0.648   1.048  -8.716  0.00  0.00    +0.250 C 
ATOM      2  C   LIG    1       -0.209   2.432  -9.237  0.00  0.00    +0.030 C 
ATOM      3  C   LIG    1        0.478   2.152 -10.591  0.00  0.00    +0.190 C 
ATOM      4  N   LIG    1       -0.096   0.858 -11.041  0.00  0.00    -0.460 N 
ATOM      5  C   LIG    1       -0.191   0.046  -9.799  0.00  0.00    +0.190 C 
ENDROOT
BRANCH   4   6
ATOM      6  C   LIG    1        0.734   0.241 -11.980  0.00  0.00    +0.130 A 
ATOM      7  C   LIG    1        1.269  -1.014 -11.719  0.00  0.00    -0.030 A 
ATOM      8  C   LIG    1        2.086  -1.623 -12.651  0.00  0.00    +0.100 A 
ATOM      9  C   LIG    1        2.381  -0.980 -13.839  0.00  0.00    -0.210 A 
ATOM     10  C   LIG    1        1.855   0.272 -14.100  0.00  0.00    +0.100 A 
ATOM     11  C   LIG    1        1.033   0.884 -13.174  0.00  0.00    +0.000 A 
BRANCH   9  12
ATOM     12  C   LIG    1        3.277  -1.645 -14.851  0.00  0.00    +0.510 C 
ATOM     13  F   LIG    1        2.918  -1.227 -16.138  0.00  0.00    -0.180 F 
ATOM     14  F   LIG    1        3.138  -3.034 -14.756  0.00  0.00    -0.180 F 
ATOM     15  F   LIG    1        4.607  -1.291 -14.601  0.00  0.00    -0.180 F 
ENDBRANCH   9  12
ENDBRANCH   4   6
BRANCH   1  17
ATOM     16  C   LIG    1       -0.556   1.152  -6.284  0.00  0.00    +0.520 C 
ATOM     17  N   LIG    1        0.009   0.753  -7.441  0.00  0.00    -0.730 N 
ATOM     18  H   LIG    1        0.850   0.270  -7.428  0.00  0.00    +0.400 HD
ATOM     19  O   LIG    1       -1.607   1.756  -6.299  0.00  0.00    -0.530 OA
BRANCH  16  20
ATOM     20  C   LIG    1        0.120   0.849  -4.971  0.00  0.00    +0.040 C 
BRANCH  20  21
ATOM     21  C   LIG    1       -0.722   1.407  -3.823  0.00  0.00    +0.130 C 
BRANCH  21  22
ATOM     22  C   LIG    1       -0.037   1.099  -2.490  0.00  0.00    +0.030 C 
ATOM     23  N   LIG    1        0.807  -0.095  -2.395  0.00  0.00    -0.120 NA
ATOM     24  N   LIG    1        1.423   0.979  -2.465  0.00  0.00    -0.120 NA
BRANCH  22  25
ATOM     25  C   LIG    1       -0.753   1.593  -1.232  0.00  0.00    +0.120 C 
BRANCH  25  26
ATOM     26  C   LIG    1       -0.013   1.086   0.008  0.00  0.00    +0.160 C 
BRANCH  26  28
ATOM     27  C   LIG    1       -1.251   1.939   2.185  0.00  0.00    +0.030 C 
ATOM     28  C   LIG    1       -0.702   1.560   1.219  0.00  0.00    -0.190 C 
ENDBRANCH  26  28
ENDBRANCH  25  26
ENDBRANCH  22  25
ENDBRANCH  21  22
ENDBRANCH  20  21
ENDBRANCH  16  20
ENDBRANCH   1  17
TORSDOF 9
