REMARK  Name = ZINCpk00000eavwG.0
REMARK                            x       y       z     vdW  Elec       q    Type
REMARK                         _______ _______ _______ _____ _____    ______ ____
ROOT
ATOM      1  N   LIG    1       -2.003   2.000   0.844  0.00  0.00    -0.560 N 
ATOM      2  C   LIG    1       -2.219   1.807  -0.595  0.00  0.00    +0.310 C 
ATOM      3  C   LIG    1       -0.811   1.623  -1.203  0.00  0.00    +0.010 C 
ATOM      4  C   LIG    1       -0.013   1.086   0.008  0.00  0.00    +0.100 C 
ATOM      5  C   LIG    1       -0.771   1.598   1.213  0.00  0.00    +0.520 C 
ATOM      6  O   LIG    1       -0.333   1.640   2.343  0.00  0.00    -0.490 OA
ENDROOT
BRANCH   1  11
ATOM      7  C   LIG    1       -3.598   3.208   3.933  0.00  0.00    +0.160 A 
ATOM      8  C   LIG    1       -4.840   3.593   3.450  0.00  0.00    -0.100 A 
ATOM      9  C   LIG    1       -5.138   3.450   2.108  0.00  0.00    +0.080 A 
ATOM     10  C   LIG    1       -4.197   2.927   1.242  0.00  0.00    -0.060 A 
ATOM     11  C   LIG    1       -2.954   2.534   1.720  0.00  0.00    +0.200 A 
ATOM     12  C   LIG    1       -2.653   2.678   3.067  0.00  0.00    -0.030 A 
BRANCH   7  14
ATOM     13  C   LIG    1       -4.327   3.902   6.086  0.00  0.00    +0.250 C 
ATOM     14  O   LIG    1       -3.307   3.349   5.253  0.00  0.00    -0.310 OA
ENDBRANCH   7  14
ENDBRANCH   1  11
BRANCH   3  15
ATOM     15  C   LIG    1       -0.833   0.616  -2.323  0.00  0.00    +0.530 C 
ATOM     16  N   LIG    1        0.320   0.224  -2.900  0.00  0.00    -0.720 N 
ATOM     17  H   LIG    1        1.165   0.590  -2.594  0.00  0.00    +0.400 HD
ATOM     18  O   LIG    1       -1.889   0.158  -2.706  0.00  0.00    -0.520 OA
BRANCH  16  19
ATOM     19  C   LIG    1        0.298  -0.755  -3.990  0.00  0.00    +0.230 C 
ATOM     20  C   LIG    1        0.050  -0.036  -5.317  0.00  0.00    +0.040 C 
BRANCH  19  21
ATOM     21  C   LIG    1        1.643  -1.483  -4.048  0.00  0.00    +0.310 C 
BRANCH  21  22
ATOM     22  N   LIG    1        1.826  -2.269  -2.825  0.00  0.00    -0.460 N 
ATOM     23  C   LIG    1        2.421  -1.843  -1.669  0.00  0.00    +0.110 A 
ATOM     24  C   LIG    1        2.375  -2.874  -0.804  0.00  0.00    +0.150 A 
ATOM     25  N   LIG    1        1.777  -3.905  -1.420  0.00  0.00    -0.490 NA
ATOM     26  C   LIG    1        1.446  -3.550  -2.631  0.00  0.00    +0.380 A 
ENDBRANCH  21  22
ENDBRANCH  19  21
ENDBRANCH  16  19
ENDBRANCH   3  15
TORSDOF 6
