REMARK  Name = ZINCpe00000znKem.0
REMARK                            x       y       z     vdW  Elec       q    Type
REMARK                         _______ _______ _______ _____ _____    ______ ____
ROOT
ATOM      1  O   LIG    1        1.234  -3.268   2.139  0.00  0.00    -0.520 OA
ATOM      2  C   LIG    1        1.984  -3.511   1.219  0.00  0.00    +0.520 C 
ATOM      3  N   LIG    1        3.140  -4.167   1.447  0.00  0.00    -0.610 N 
ATOM      4  C   LIG    1        4.056  -4.474   0.340  0.00  0.00    +0.270 C 
ATOM      5  C   LIG    1        5.441  -3.897   0.681  0.00  0.00    +0.290 C 
ATOM      6  N   LIG    1        5.803  -4.323   2.040  0.00  0.00    -0.610 N 
ATOM      7  C   LIG    1        4.884  -4.020   3.146  0.00  0.00    +0.270 C 
ATOM      8  C   LIG    1        6.958  -4.979   2.268  0.00  0.00    +0.520 C 
ATOM      9  O   LIG    1        7.672  -5.292   1.338  0.00  0.00    -0.530 OA
ATOM     10  C   LIG    1        3.502  -4.593   2.806  0.00  0.00    +0.290 C 
ENDROOT
BRANCH   8  11
ATOM     11  C   LIG    1        7.364  -5.323   3.678  0.00  0.00    +0.000 C 
ATOM     12  C   LIG    1        8.348  -6.495   3.653  0.00  0.00    +0.050 C 
ATOM     13  C   LIG    1        8.539  -7.042   5.073  0.00  0.00    +0.110 C 
ATOM     14  C   LIG    1        8.855  -5.883   5.986  0.00  0.00    -0.240 A 
ATOM     15  C   LIG    1        9.389  -5.915   7.221  0.00  0.00    +0.240 A 
ATOM     16  N   LIG    1        9.495  -4.638   7.654  0.00  0.00    -0.480 N 
ATOM     17  H   LIG    1        9.848  -4.355   8.512  0.00  0.00    +0.440 HD
ATOM     18  N   LIG    1        9.008  -3.796   6.643  0.00  0.00    -0.280 NA
ATOM     19  C   LIG    1        8.624  -4.539   5.646  0.00  0.00    +0.080 A 
ATOM     20  C   LIG    1        8.026  -4.104   4.331  0.00  0.00    +0.150 C 
ENDBRANCH   8  11
BRANCH   2  21
ATOM     21  C   LIG    1        1.626  -3.081  -0.180  0.00  0.00    +0.170 C 
BRANCH  21  22
ATOM     22  C   LIG    1        0.295  -2.373  -0.163  0.00  0.00    -0.210 A 
ATOM     23  C   LIG    1        0.104  -1.062   0.007  0.00  0.00    +0.220 A 
ATOM     24  N   LIG    1       -1.158  -0.685  -0.017  0.00  0.00    -0.470 NA
ATOM     25  C   LIG    1       -2.043  -1.607  -0.199  0.00  0.00    +0.220 A 
ATOM     26  S   LIG    1       -1.284  -3.129  -0.363  0.00  0.00    +0.140 S 
ENDBRANCH  21  22
ENDBRANCH   2  21
TORSDOF 3
