REMARK  Name = ZINCpk00000KfLiH.0
REMARK                            x       y       z     vdW  Elec       q    Type
REMARK                         _______ _______ _______ _____ _____    ______ ____
ROOT
ATOM      1  N   LIG    1       -0.085   1.461   0.057  0.00  0.00    -0.530 NA
ATOM      2  C   LIG    1       -0.867   1.985  -1.071  0.00  0.00    +0.200 C 
ATOM      3  C   LIG    1       -1.001   3.504  -0.934  0.00  0.00    +0.190 C 
ATOM      4  N   LIG    1        0.337   4.110  -0.898  0.00  0.00    -0.530 NA
ATOM      5  C   LIG    1        1.119   3.586   0.230  0.00  0.00    +0.190 C 
ATOM      6  C   LIG    1        1.253   2.067   0.093  0.00  0.00    +0.180 C 
ENDROOT
BRANCH   1   7
ATOM      7  C   LIG    1        0.002  -0.004   0.002  0.00  0.00    +0.270 C 
ATOM      8  C   LIG    1       -1.403  -0.602   0.092  0.00  0.00    +0.080 C 
BRANCH   7  13
ATOM      9  C   LIG    1        3.365  -2.419   2.819  0.00  0.00    +0.210 C 
ATOM     10  C   LIG    1        2.251  -1.515   2.357  0.00  0.00    +0.170 A 
ATOM     11  N   LIG    1        1.549  -0.716   3.105  0.00  0.00    -0.390 NA
ATOM     12  O   LIG    1        0.734  -0.120   2.432  0.00  0.00    +0.090 OA
ATOM     13  C   LIG    1        0.835  -0.501   1.155  0.00  0.00    +0.190 A 
ATOM     14  N   LIG    1        1.800  -1.387   1.097  0.00  0.00    -0.480 NA
ENDBRANCH   7  13
ENDBRANCH   1   7
BRANCH   4  15
ATOM     15  C   LIG    1        0.250   5.575  -0.844  0.00  0.00    +0.160 C 
BRANCH  15  16
ATOM     16  C   LIG    1       -0.767   6.065  -1.877  0.00  0.00    +0.220 C 
BRANCH  16  17
ATOM     17  O   LIG    1       -0.351   5.661  -3.183  0.00  0.00    -0.540 OA
ATOM     18  H   LIG    1        0.512   6.008  -3.446  0.00  0.00    +0.380 HD
ENDBRANCH  16  17
BRANCH  16  19
ATOM     19  C   LIG    1       -0.857   7.591  -1.819  0.00  0.00    +0.170 C 
BRANCH  19  20
ATOM     20  O   LIG    1       -1.889   8.040  -2.700  0.00  0.00    -0.300 OA
BRANCH  20  21
ATOM     21  C   LIG    1       -2.101   9.381  -2.768  0.00  0.00    +0.130 A 
ATOM     22  C   LIG    1       -1.337  10.246  -1.999  0.00  0.00    -0.080 A 
ATOM     23  C   LIG    1       -1.551  11.608  -2.074  0.00  0.00    +0.040 A 
ATOM     24  C   LIG    1       -2.534  12.110  -2.908  0.00  0.00    -0.040 A 
ATOM     25  C   LIG    1       -3.301  11.250  -3.671  0.00  0.00    +0.050 A 
ATOM     26  C   LIG    1       -3.087   9.886  -3.603  0.00  0.00    -0.020 A 
ENDBRANCH  20  21
ENDBRANCH  19  20
ENDBRANCH  16  19
ENDBRANCH  15  16
ENDBRANCH   4  15
TORSDOF 8
