REMARK  Name = ZINCrH00000No4Mv.0
REMARK                            x       y       z     vdW  Elec       q    Type
REMARK                         _______ _______ _______ _____ _____    ______ ____
ROOT
ATOM      1  N   LIG    1       -1.408   6.126  -0.264  0.00  0.00    -0.590 N 
ATOM      2  C   LIG    1       -2.004   6.263  -1.465  0.00  0.00    +0.560 C 
ATOM      3  O   LIG    1       -1.393   5.992  -2.482  0.00  0.00    -0.540 OA
ENDROOT
BRANCH   2   4
ATOM      4  C   LIG    1       -3.387   6.736  -1.546  0.00  0.00    -0.080 C 
ATOM      5  C   LIG    1       -3.983   6.872  -2.748  0.00  0.00    +0.130 C 
BRANCH   5   6
ATOM      6  C   LIG    1       -5.373   7.348  -2.830  0.00  0.00    -0.090 A 
ATOM      7  C   LIG    1       -6.081   7.653  -1.663  0.00  0.00    +0.070 A 
ATOM      8  C   LIG    1       -7.380   8.104  -1.746  0.00  0.00    -0.010 A 
ATOM      9  C   LIG    1       -7.990   8.243  -2.984  0.00  0.00    +0.110 A 
ATOM     10  C   LIG    1       -7.296   7.936  -4.145  0.00  0.00    -0.020 A 
ATOM     11  F   LIG    1       -9.267   8.680  -3.059  0.00  0.00    -0.140 F 
ATOM     12  C   LIG    1       -5.995   7.490  -4.075  0.00  0.00    +0.080 A 
ENDBRANCH   5   6
ENDBRANCH   2   4
BRANCH   1  13
ATOM     13  C   LIG    1       -2.144   6.451   0.960  0.00  0.00    +0.280 C 
BRANCH  13  15
ATOM     14  C   LIG    1       -2.699   8.265   2.586  0.00  0.00    +0.030 C 
ATOM     15  C   LIG    1       -1.930   7.926   1.308  0.00  0.00    +0.000 C 
ENDBRANCH  13  15
ENDBRANCH   1  13
BRANCH   1  16
ATOM     16  C   LIG    1       -0.024   5.653  -0.183  0.00  0.00    +0.330 C 
BRANCH  16  17
ATOM     17  C   LIG    1       -0.013   4.149  -0.077  0.00  0.00    +0.500 C 
ATOM     18  N   LIG    1        1.159   3.489   0.010  0.00  0.00    -0.660 N 
ATOM     19  H   LIG    1        1.990   3.983   0.086  0.00  0.00    +0.420 HD
ATOM     20  O   LIG    1       -1.058   3.534  -0.071  0.00  0.00    -0.510 OA
BRANCH  18  21
ATOM     21  C   LIG    1        1.176   2.088  -0.009  0.00  0.00    +0.120 A 
ATOM     22  C   LIG    1        0.140   1.388  -0.610  0.00  0.00    +0.060 A 
ATOM     23  C   LIG    1        0.160   0.005  -0.627  0.00  0.00    +0.000 A 
ATOM     24  C   LIG    1        1.209  -0.682  -0.047  0.00  0.00    +0.030 A 
ATOM     25  C   LIG    1        2.245   0.009   0.554  0.00  0.00    -0.060 A 
ATOM     26  C   LIG    1        2.234   1.394   0.575  0.00  0.00    +0.100 A 
BRANCH  26  27
ATOM     27  O   LIG    1        3.252   2.075   1.165  0.00  0.00    -0.320 OA
ATOM     28  C   LIG    1        4.303   1.298   1.744  0.00  0.00    +0.250 C 
ENDBRANCH  26  27
ENDBRANCH  18  21
ENDBRANCH  16  17
ENDBRANCH   1  16
TORSDOF 8
