REMARK  Name = ZINCvU00000008Db.0
REMARK                            x       y       z     vdW  Elec       q    Type
REMARK                         _______ _______ _______ _____ _____    ______ ____
ROOT
ATOM      1  C   LIG    1       -0.013   1.086   0.008  0.00  0.00    +0.130 C 
ATOM      2  C   LIG    1       -0.718   1.572   1.248  0.00  0.00    +0.020 A 
ATOM      3  C   LIG    1       -0.129   1.833   2.427  0.00  0.00    +0.000 A 
ATOM      4  C   LIG    1       -1.196   2.278   3.334  0.00  0.00    -0.260 A 
ATOM      5  C   LIG    1       -2.363   2.241   2.594  0.00  0.00    +0.130 A 
ATOM      6  C   LIG    1       -3.737   2.611   3.089  0.00  0.00    +0.150 C 
ATOM      7  N   LIG    1       -2.058   1.822   1.350  0.00  0.00    -0.390 N 
ENDROOT
BRANCH   7   8
ATOM      8  C   LIG    1       -2.984   1.663   0.309  0.00  0.00    +0.080 A 
ATOM      9  C   LIG    1       -3.651   2.769  -0.202  0.00  0.00    +0.070 A 
ATOM     10  C   LIG    1       -4.559   2.612  -1.231  0.00  0.00    -0.040 A 
ATOM     11  C   LIG    1       -4.813   1.349  -1.746  0.00  0.00    +0.120 A 
ATOM     12  C   LIG    1       -4.151   0.244  -1.232  0.00  0.00    +0.030 A 
ATOM     13  C   LIG    1       -3.239   0.400  -0.207  0.00  0.00    +0.070 A 
BRANCH  11  14
ATOM     14  O   LIG    1       -5.711   1.195  -2.754  0.00  0.00    -0.320 OA
BRANCH  14  15
ATOM     15  C   LIG    1       -6.356   2.377  -3.236  0.00  0.00    +0.600 C 
ATOM     16  F   LIG    1       -5.393   3.268  -3.722  0.00  0.00    -0.200 F 
ATOM     17  F   LIG    1       -7.064   2.980  -2.191  0.00  0.00    -0.200 F 
ENDBRANCH  14  15
ENDBRANCH  11  14
ENDBRANCH   7   8
BRANCH   4  18
ATOM     18  C   LIG    1       -1.053   2.678   4.735  0.00  0.00    +0.430 C 
ATOM     19  O   LIG    1       -2.027   3.025   5.370  0.00  0.00    -0.450 OA
BRANCH  18  20
ATOM     20  C   LIG    1        0.305   2.658   5.389  0.00  0.00    +0.250 C 
BRANCH  20  21
ATOM     21  O   LIG    1        0.183   3.094   6.769  0.00  0.00    -0.340 OA
BRANCH  21  22
ATOM     22  C   LIG    1        1.316   3.134   7.500  0.00  0.00    +0.540 C 
ATOM     23  O   LIG    1        2.376   2.812   6.998  0.00  0.00    -0.500 OA
BRANCH  22  24
ATOM     24  C   LIG    1        1.270   3.564   8.899  0.00  0.00    -0.270 A 
ATOM     25  C   LIG    1        2.339   3.645   9.735  0.00  0.00    +0.130 A 
ATOM     26  C   LIG    1        2.023   4.083  11.017  0.00  0.00    -0.150 A 
ATOM     27  C   LIG    1        0.718   4.347  11.198  0.00  0.00    -0.220 A 
ATOM     28  C   LIG    1        0.466   4.818  12.625  0.00  0.00    +0.120 C 
ATOM     29  C   LIG    1        1.716   4.381  13.414  0.00  0.00    +0.040 C 
ATOM     30  C   LIG    1        2.791   4.352  12.310  0.00  0.00    +0.100 C 
ATOM     31  S   LIG    1       -0.174   4.064   9.762  0.00  0.00    +0.280 S 
ENDBRANCH  22  24
ENDBRANCH  21  22
ENDBRANCH  20  21
ENDBRANCH  18  20
ENDBRANCH   4  18
TORSDOF 8
