REMARK  Name = ZINCyk0000000he5.0
REMARK                            x       y       z     vdW  Elec       q    Type
REMARK                         _______ _______ _______ _____ _____    ______ ____
ROOT
ATOM      1  C   LIG    1       -3.366   0.846   4.361  0.00  0.00    +0.630 C 
ATOM      2  N   LIG    1       -3.075   1.533   3.239  0.00  0.00    -0.610 N 
ATOM      3  C   LIG    1       -3.657   2.826   2.850  0.00  0.00    +0.270 C 
ATOM      4  C   LIG    1       -3.007   3.238   1.513  0.00  0.00    +0.040 C 
ATOM      5  C   LIG    1       -1.683   2.429   1.506  0.00  0.00    -0.030 C 
ATOM      6  C   LIG    1       -2.119   1.113   2.197  0.00  0.00    +0.270 C 
ATOM      7  O   LIG    1       -2.821  -0.219   4.580  0.00  0.00    -0.530 OA
ENDROOT
BRANCH   1  10
ATOM      8  C   LIG    1       -4.232  -0.527   7.034  0.00  0.00    +0.190 C 
ATOM      9  C   LIG    1       -4.728   0.789   6.491  0.00  0.00    +0.140 A 
ATOM     10  C   LIG    1       -4.346   1.384   5.322  0.00  0.00    -0.110 A 
ATOM     11  N   LIG    1       -5.010   2.547   5.199  0.00  0.00    -0.190 NA
ATOM     12  N   LIG    1       -5.787   2.709   6.213  0.00  0.00    -0.050 NA
ATOM     13  N   LIG    1       -5.635   1.608   7.068  0.00  0.00    -0.310 N 
BRANCH  13  14
ATOM     14  C   LIG    1       -6.297   1.397   8.286  0.00  0.00    +0.130 A 
ATOM     15  C   LIG    1       -7.649   1.688   8.402  0.00  0.00    +0.050 A 
ATOM     16  C   LIG    1       -8.300   1.474   9.602  0.00  0.00    +0.060 A 
ATOM     17  C   LIG    1       -7.604   0.981  10.690  0.00  0.00    +0.060 A 
ATOM     18  C   LIG    1       -6.254   0.695  10.579  0.00  0.00    -0.020 A 
ATOM     19 CL   LIG    1       -5.383   0.076  11.947  0.00  0.00    -0.040 Cl
ATOM     20  C   LIG    1       -5.599   0.902   9.379  0.00  0.00    +0.030 A 
ENDBRANCH  13  14
ENDBRANCH   1  10
BRANCH   5  21
ATOM     21  C   LIG    1       -1.209   2.166   0.075  0.00  0.00    +0.310 C 
BRANCH  21  22
ATOM     22  N   LIG    1        0.099   1.507   0.107  0.00  0.00    -0.600 N 
ATOM     23  C   LIG    1        1.226   2.246   0.099  0.00  0.00    +0.530 C 
ATOM     24  O   LIG    1        1.157   3.456   0.069  0.00  0.00    -0.510 OA
ATOM     25  C   LIG    1        0.182   0.044   0.143  0.00  0.00    +0.280 C 
BRANCH  23  26
ATOM     26  C   LIG    1        2.572   1.568   0.126  0.00  0.00    -0.020 C 
ATOM     27  C   LIG    1        2.692   0.725   1.396  0.00  0.00    +0.330 C 
ATOM     28  N   LIG    1        4.012   0.091   1.473  0.00  0.00    -0.610 NA
ATOM     29  C   LIG    1        5.048   0.715   0.977  0.00  0.00    +0.620 C 
ATOM     30  N   LIG    1        6.348   0.353   0.957  0.00  0.00    -0.520 NA
ATOM     31  C   LIG    1        7.060   1.279   0.371  0.00  0.00    +0.690 C 
ATOM     32  N   LIG    1        6.247   2.298  -0.029  0.00  0.00    -0.450 N 
ATOM     33  H   LIG    1        6.519   3.115  -0.477  0.00  0.00    +0.480 HD
ATOM     34  N   LIG    1        4.950   1.939   0.329  0.00  0.00    -0.410 NA
ATOM     35  H   LIG    1        4.116  -0.780   1.887  0.00  0.00    +0.460 HD
ATOM     36  C   LIG    1        3.681   2.632   0.106  0.00  0.00    +0.400 C 
ENDBRANCH  23  26
ENDBRANCH  21  22
ENDBRANCH   5  21
TORSDOF 5
