REMARK  Name = ZINCrm000000KBXg.0
REMARK                            x       y       z     vdW  Elec       q    Type
REMARK                         _______ _______ _______ _____ _____    ______ ____
ROOT
ATOM      1  C   LIG    1       -0.035  -2.434  -5.665  0.00  0.00    +0.330 C 
ENDROOT
BRANCH   1   2
ATOM      2  C   LIG    1       -0.984  -2.126  -4.535  0.00  0.00    -0.080 A 
ATOM      3  C   LIG    1       -2.147  -2.859  -4.391  0.00  0.00    +0.050 A 
ATOM      4  C   LIG    1       -3.017  -2.578  -3.354  0.00  0.00    +0.050 A 
ATOM      5  C   LIG    1       -2.725  -1.563  -2.463  0.00  0.00    -0.150 A 
ATOM      6  C   LIG    1       -1.564  -0.826  -2.611  0.00  0.00    +0.040 A 
ATOM      7  C   LIG    1       -0.692  -1.111  -3.644  0.00  0.00    +0.040 A 
BRANCH   5   8
ATOM      8  C   LIG    1       -3.674  -1.255  -1.333  0.00  0.00    +0.320 C 
BRANCH   8   9
ATOM      9  N   LIG    1       -3.312  -2.059  -0.158  0.00  0.00    -0.380 N 
ATOM     10  C   LIG    1       -4.306  -1.849   0.904  0.00  0.00    +0.240 C 
ATOM     11  C   LIG    1       -3.928  -2.687   2.127  0.00  0.00    +0.160 C 
ATOM     12  O   LIG    1       -2.613  -2.324   2.559  0.00  0.00    -0.350 OA
ATOM     13  C   LIG    1       -1.612  -2.488   1.551  0.00  0.00    +0.220 C 
ATOM     14  C   LIG    1       -1.524  -3.963   1.153  0.00  0.00    +0.040 C 
ATOM     15  C   LIG    1       -4.927  -2.426   3.256  0.00  0.00    +0.110 C 
ATOM     16  C   LIG    1       -1.987  -1.649   0.327  0.00  0.00    +0.240 C 
ATOM     17  H   LIG    1       -3.291  -3.035  -0.411  0.00  0.00    +0.420 HD
ENDBRANCH   8   9
ENDBRANCH   5   8
ENDBRANCH   1   2
BRANCH   1  19
ATOM     18  C   LIG    1        0.320  -1.742  -7.974  0.00  0.00    +0.520 C 
ATOM     19  N   LIG    1       -0.395  -1.633  -6.837  0.00  0.00    -0.730 N 
ATOM     20  H   LIG    1       -1.149  -1.023  -6.795  0.00  0.00    +0.400 HD
ATOM     21  O   LIG    1        1.262  -2.504  -8.027  0.00  0.00    -0.520 OA
BRANCH  18  24
ATOM     22  C   LIG    1       -0.406  -1.085 -11.262  0.00  0.00    +0.050 C 
ATOM     23  C   LIG    1        0.861  -1.159 -10.395  0.00  0.00    +0.110 C 
ATOM     24  C   LIG    1       -0.051  -0.918  -9.180  0.00  0.00    -0.020 C 
ATOM     25  C   LIG    1       -1.190  -1.526 -10.015  0.00  0.00    +0.080 C 
BRANCH  22  27
ATOM     26  C   LIG    1       -1.654  -2.061 -13.062  0.00  0.00    +0.220 C 
ATOM     27  O   LIG    1       -0.430  -2.042 -12.323  0.00  0.00    -0.350 OA
ENDBRANCH  22  27
BRANCH  22  28
ATOM     28  C   LIG    1       -0.747   0.331 -11.731  0.00  0.00    +0.270 C 
BRANCH  28  29
ATOM     29  N   LIG    1        0.362   0.860 -12.537  0.00  0.00    -0.630 N 
ATOM     30  H   LIG    1        0.487   0.284 -13.356  0.00  0.00    +0.440 HD
ATOM     31  H   LIG    1        1.209   0.853 -11.989  0.00  0.00    +0.440 HD
ATOM     32  H   LIG    1        0.152   1.805 -12.819  0.00  0.00    +0.440 HD
ENDBRANCH  28  29
ENDBRANCH  22  28
ENDBRANCH  18  24
ENDBRANCH   1  19
TORSDOF 8
