REMARK  Name = ZINCtV000002LsSq.0
REMARK                            x       y       z     vdW  Elec       q    Type
REMARK                         _______ _______ _______ _____ _____    ______ ____
ROOT
ATOM      1  C   LIG    1       -1.433  -0.534   0.013  0.00  0.00    +0.220 C 
ENDROOT
BRANCH   1   6
ATOM      2  F   LIG    1       -4.286   1.696  -4.291  0.00  0.00    -0.130 F 
ATOM      3  C   LIG    1       -3.601   1.160  -3.257  0.00  0.00    +0.110 A 
ATOM      4  C   LIG    1       -3.408   1.894  -2.099  0.00  0.00    -0.010 A 
ATOM      5  C   LIG    1       -2.711   1.343  -1.040  0.00  0.00    +0.120 A 
ATOM      6  C   LIG    1       -2.198   0.063  -1.141  0.00  0.00    -0.080 A 
ATOM      7  C   LIG    1       -2.390  -0.671  -2.296  0.00  0.00    +0.060 A 
ATOM      8  C   LIG    1       -3.091  -0.125  -3.355  0.00  0.00    -0.080 A 
ATOM      9 CL   LIG    1       -3.332  -1.047  -4.806  0.00  0.00    -0.050 Cl
ENDBRANCH   1   6
BRANCH   1  10
ATOM     10  N   LIG    1       -2.083  -0.161   1.276  0.00  0.00    -0.670 NA
ATOM     11  H   LIG    1       -1.412  -0.114   2.028  0.00  0.00    +0.350 HD
BRANCH  10  12
ATOM     12  C   LIG    1       -3.174  -1.089   1.601  0.00  0.00    +0.300 C 
BRANCH  12  13
ATOM     13  C   LIG    1       -3.816  -0.676   2.901  0.00  0.00    +0.030 A 
ATOM     14  N   LIG    1       -3.420  -0.995   4.101  0.00  0.00    -0.360 NA
ATOM     15  O   LIG    1       -4.130  -0.518   4.955  0.00  0.00    +0.120 OA
ATOM     16  C   LIG    1       -5.128   0.207   4.415  0.00  0.00    +0.050 A 
ATOM     17  C   LIG    1       -4.956   0.136   3.055  0.00  0.00    -0.030 A 
BRANCH  16  18
ATOM     18  C   LIG    1       -6.183   0.933   5.136  0.00  0.00    -0.150 A 
ATOM     19  C   LIG    1       -6.322   0.981   6.490  0.00  0.00    +0.050 A 
ATOM     20  C   LIG    1       -7.391   1.732   6.926  0.00  0.00    +0.010 A 
ATOM     21  C   LIG    1       -8.129   2.288   5.960  0.00  0.00    -0.030 A 
ATOM     22  S   LIG    1       -7.469   1.870   4.385  0.00  0.00    +0.170 S 
ENDBRANCH  16  18
ENDBRANCH  12  13
ENDBRANCH  10  12
ENDBRANCH   1  10
BRANCH   1  23
ATOM     23  C   LIG    1        0.002  -0.004   0.002  0.00  0.00    +0.210 C 
BRANCH  23  24
ATOM     24  O   LIG    1       -0.017   1.425   0.010  0.00  0.00    -0.300 OA
BRANCH  24  25
ATOM     25  C   LIG    1        1.185   2.058   0.002  0.00  0.00    +0.130 A 
ATOM     26  C   LIG    1        2.359   1.320  -0.008  0.00  0.00    -0.090 A 
ATOM     27  C   LIG    1        3.580   1.966  -0.021  0.00  0.00    +0.040 A 
ATOM     28  C   LIG    1        3.633   3.348  -0.015  0.00  0.00    -0.040 A 
ATOM     29  C   LIG    1        2.464   4.086   0.000  0.00  0.00    +0.050 A 
ATOM     30  C   LIG    1        1.240   3.444   0.009  0.00  0.00    -0.020 A 
ENDBRANCH  24  25
ENDBRANCH  23  24
ENDBRANCH   1  23
TORSDOF 8
