REMARK  Name = ZINCrH000004osFE.0
REMARK                            x       y       z     vdW  Elec       q    Type
REMARK                         _______ _______ _______ _____ _____    ______ ____
ROOT
ATOM      1  C   LIG    1        1.220   3.340  -0.263  0.00  0.00    +0.240 A 
ATOM      2  C   LIG    1        1.203   1.952  -0.317  0.00  0.00    -0.040 A 
ATOM      3  C   LIG    1        0.017   1.286  -0.558  0.00  0.00    +0.190 A 
ATOM      4  C   LIG    1       -1.151   1.999  -0.750  0.00  0.00    -0.690 A 
ATOM      5  C   LIG    1       -1.139   3.381  -0.691  0.00  0.00    +0.250 A 
ATOM      6  C   LIG    1        0.043   4.053  -0.451  0.00  0.00    -0.660 A 
ENDROOT
BRANCH   4   7
ATOM      7  S   LIG    1       -2.661   1.146  -1.064  0.00  0.00    +2.500 S 
ATOM      8  O   LIG    1       -2.253  -0.083  -1.650  0.00  0.00    -0.930 OA
ATOM      9  O   LIG    1       -3.446   2.080  -1.793  0.00  0.00    -0.930 OA
ATOM     10  C   LIG    1       -3.371   0.863   0.580  0.00  0.00    -0.250 C 
ENDBRANCH   4   7
BRANCH   6  11
ATOM     11  S   LIG    1        0.058   5.814  -0.384  0.00  0.00    +2.510 S 
ATOM     12  O   LIG    1       -1.289   6.186  -0.642  0.00  0.00    -0.940 OA
ATOM     13  O   LIG    1        1.104   6.189  -1.270  0.00  0.00    -0.910 OA
ATOM     14  C   LIG    1        0.508   6.198   1.331  0.00  0.00    -0.250 C 
ENDBRANCH   6  11
BRANCH   1  15
ATOM     15  N   LIG    1        2.417   4.016  -0.020  0.00  0.00    -0.520 N 
ATOM     16  C   LIG    1        3.430   3.672  -1.026  0.00  0.00    +0.230 C 
BRANCH  15  18
ATOM     17  C   LIG    1        3.818   2.513   1.312  0.00  0.00    +0.020 C 
ATOM     18  C   LIG    1        2.910   3.744   1.337  0.00  0.00    +0.170 C 
BRANCH  18  19
ATOM     19  C   LIG    1        3.700   4.951   1.845  0.00  0.00    +0.050 C 
ATOM     20  C   LIG    1        4.970   5.118   1.007  0.00  0.00    +0.040 C 
BRANCH  19  21
ATOM     21  C   LIG    1        4.076   4.735   3.288  0.00  0.00    -0.080 A 
ATOM     22  C   LIG    1        5.095   3.860   3.614  0.00  0.00    +0.040 A 
ATOM     23  C   LIG    1        5.442   3.665   4.937  0.00  0.00    +0.020 A 
ATOM     24  C   LIG    1        4.764   4.338   5.937  0.00  0.00    -0.040 A 
ATOM     25  C   LIG    1        3.740   5.210   5.611  0.00  0.00    +0.020 A 
ATOM     26 CL   LIG    1        5.196   4.089   7.599  0.00  0.00    -0.070 Cl
ATOM     27  C   LIG    1        3.397   5.408   4.287  0.00  0.00    +0.030 A 
ENDBRANCH  19  21
ENDBRANCH  18  19
ENDBRANCH  15  18
ENDBRANCH   1  15
TORSDOF 6
