REMARK  Name = ZINCpe00000gM9CD.0
REMARK                            x       y       z     vdW  Elec       q    Type
REMARK                         _______ _______ _______ _____ _____    ______ ____
ROOT
ATOM      1  C   LIG    1        3.975   2.868  -0.021  0.00  0.00    +0.300 C 
ATOM      2  N   LIG    1        2.849   3.805  -0.005  0.00  0.00    -0.620 N 
ATOM      3  C   LIG    1        1.584   3.338   0.005  0.00  0.00    +0.710 C 
ATOM      4  N   LIG    1        1.356   2.010  -0.000  0.00  0.00    -0.750 N 
ATOM      5  H   LIG    1        2.102   1.390  -0.011  0.00  0.00    +0.410 HD
ATOM      6  O   LIG    1        0.650   4.116   0.018  0.00  0.00    -0.590 OA
ENDROOT
BRANCH   4   7
ATOM      7  C   LIG    1       -0.018   1.503   0.010  0.00  0.00    +0.410 C 
BRANCH   7   8
ATOM      8  C   LIG    1        0.002  -0.004   0.002  0.00  0.00    +0.080 C 
ATOM      9  N   LIG    1        1.048  -0.734  -0.017  0.00  0.00    -0.280 NA
ATOM     10  O   LIG    1        0.762  -2.118  -0.023  0.00  0.00    -0.180 OA
ATOM     11  C   LIG    1       -0.605  -2.285   0.399  0.00  0.00    +0.130 C 
ATOM     12  C   LIG    1       -1.313  -3.274  -0.539  0.00  0.00    +0.230 C 
ATOM     13  O   LIG    1       -1.940  -2.533  -1.586  0.00  0.00    -0.370 OA
ATOM     14  C   LIG    1       -1.676  -1.136  -1.444  0.00  0.00    +0.240 C 
ATOM     15  C   LIG    1       -1.218  -0.905   0.009  0.00  0.00    +0.000 C 
ENDBRANCH   7   8
ENDBRANCH   4   7
BRANCH   2  16
ATOM     16  C   LIG    1        3.097   5.248   0.001  0.00  0.00    +0.430 C 
BRANCH  16  17
ATOM     17  C   LIG    1        3.196   5.736   1.423  0.00  0.00    +0.170 A 
ATOM     18  N   LIG    1        4.293   5.803   2.131  0.00  0.00    -0.470 NA
ATOM     19  C   LIG    1        4.004   6.281   3.344  0.00  0.00    +0.000 A 
ATOM     20  C   LIG    1        2.675   6.520   3.392  0.00  0.00    -0.020 A 
ATOM     21  C   LIG    1        1.950   7.065   4.595  0.00  0.00    +0.110 C 
ATOM     22  C   LIG    1        2.858   6.904   5.821  0.00  0.00    +0.030 C 
ATOM     23  C   LIG    1        4.250   7.456   5.500  0.00  0.00    +0.020 C 
ATOM     24  C   LIG    1        4.948   6.533   4.493  0.00  0.00    +0.120 C 
ATOM     25  N   LIG    1        2.164   6.182   2.177  0.00  0.00    -0.430 N 
ATOM     26  C   LIG    1        0.762   6.280   1.764  0.00  0.00    +0.330 C 
ENDBRANCH  16  17
ENDBRANCH   2  16
TORSDOF 4
