REMARK  Name = ZINCfA000000b7Zs.0
REMARK                            x       y       z     vdW  Elec       q    Type
REMARK                         _______ _______ _______ _____ _____    ______ ____
ROOT
ATOM      1  N   LIG    1        2.652   1.986   0.979  0.00  0.00    -0.370 N 
ATOM      2  H   LIG    1        2.397   2.635   1.709  0.00  0.00    +0.430 HD
ENDROOT
BRANCH   1   3
ATOM      3  C   LIG    1        4.016   2.277   0.519  0.00  0.00    +0.240 C 
ATOM      4  C   LIG    1        4.076   3.704  -0.030  0.00  0.00    +0.100 C 
BRANCH   3   5
ATOM      5  C   LIG    1        4.975   2.143   1.674  0.00  0.00    +0.080 A 
ATOM      6  C   LIG    1        6.295   1.815   1.431  0.00  0.00    +0.010 A 
ATOM      7  C   LIG    1        7.170   1.699   2.501  0.00  0.00    +0.090 A 
ATOM      8  C   LIG    1        6.680   1.907   3.780  0.00  0.00    +0.000 A 
ATOM      9  C   LIG    1        5.346   2.227   3.946  0.00  0.00    +0.290 A 
ATOM     10  N   LIG    1        4.543   2.334   2.906  0.00  0.00    -0.500 NA
ENDBRANCH   3   5
ENDBRANCH   1   3
BRANCH   1  11
ATOM     11  C   LIG    1        2.594   0.614   1.502  0.00  0.00    +0.240 C 
ATOM     12  C   LIG    1        2.977  -0.370   0.395  0.00  0.00    +0.070 C 
ENDBRANCH   1  11
BRANCH   1  13
ATOM     13  C   LIG    1        1.717   2.121  -0.145  0.00  0.00    +0.300 C 
BRANCH  13  15
ATOM     14  C   LIG    1       -0.400   3.025   0.669  0.00  0.00    +0.120 C 
ATOM     15  C   LIG    1        0.304   1.965   0.355  0.00  0.00    -0.190 C 
ATOM     16  C   LIG    1       -0.302   0.592   0.487  0.00  0.00    +0.090 C 
ENDBRANCH  13  15
ENDBRANCH   1  13
TORSDOF 5
