REMARK  Name = ZINCfA000000b7Zs.1
REMARK                            x       y       z     vdW  Elec       q    Type
REMARK                         _______ _______ _______ _____ _____    ______ ____
ROOT
ATOM      1  N   LIG    1       -1.671   5.756  -0.662  0.00  0.00    -0.370 N 
ATOM      2  H   LIG    1       -2.509   5.425  -0.209  0.00  0.00    +0.430 HD
ENDROOT
BRANCH   1   3
ATOM      3  C   LIG    1       -0.494   5.280   0.076  0.00  0.00    +0.240 C 
ATOM      4  C   LIG    1       -0.542   5.812   1.510  0.00  0.00    +0.100 C 
BRANCH   3   5
ATOM      5  C   LIG    1       -0.491   3.773   0.099  0.00  0.00    +0.080 A 
ATOM      6  C   LIG    1        0.703   3.095   0.253  0.00  0.00    +0.010 A 
ATOM      7  C   LIG    1        0.695   1.708   0.273  0.00  0.00    +0.090 A 
ATOM      8  C   LIG    1       -0.519   1.054   0.137  0.00  0.00    +0.000 A 
ATOM      9  C   LIG    1       -1.673   1.800  -0.018  0.00  0.00    +0.290 A 
ATOM     10  N   LIG    1       -1.628   3.117  -0.028  0.00  0.00    -0.500 NA
ENDBRANCH   3   5
ENDBRANCH   1   3
BRANCH   1  11
ATOM     11  C   LIG    1       -1.674   7.225  -0.685  0.00  0.00    +0.230 C 
ATOM     12  C   LIG    1       -2.959   7.722  -1.350  0.00  0.00    +0.080 C 
ENDBRANCH   1  11
BRANCH   1  13
ATOM     13  C   LIG    1       -1.625   5.245  -2.039  0.00  0.00    +0.300 C 
BRANCH  13  15
ATOM     14  C   LIG    1        0.692   4.829  -2.685  0.00  0.00    +0.100 C 
ATOM     15  C   LIG    1       -0.325   5.654  -2.683  0.00  0.00    -0.190 C 
ATOM     16  C   LIG    1       -0.196   7.011  -3.325  0.00  0.00    +0.090 C 
ENDBRANCH  13  15
ENDBRANCH   1  13
TORSDOF 5
