REMARK  Name = ZINCrH000004mOLE.0
REMARK                            x       y       z     vdW  Elec       q    Type
REMARK                         _______ _______ _______ _____ _____    ______ ____
ROOT
ATOM      1  C   LIG    1       -0.998   3.388  -1.719  0.00  0.00    -0.030 C 
ATOM      2  C   LIG    1       -0.860   2.103  -2.543  0.00  0.00    +0.050 C 
ATOM      3  C   LIG    1       -0.006   1.098  -1.766  0.00  0.00    +0.220 C 
ATOM      4  O   LIG    1       -0.607   0.846  -0.494  0.00  0.00    -0.380 OA
ATOM      5  C   LIG    1       -0.719   2.002   0.338  0.00  0.00    +0.210 C 
ATOM      6  C   LIG    1       -1.602   3.044  -0.354  0.00  0.00    +0.030 C 
ENDROOT
BRANCH   1   7
ATOM      7  C   LIG    1       -1.901   4.354  -2.441  0.00  0.00    -0.080 A 
ATOM      8  C   LIG    1       -2.996   4.893  -1.792  0.00  0.00    +0.060 A 
ATOM      9  C   LIG    1       -3.824   5.781  -2.454  0.00  0.00    +0.030 A 
ATOM     10  C   LIG    1       -3.557   6.129  -3.765  0.00  0.00    +0.070 A 
ATOM     11  C   LIG    1       -2.461   5.590  -4.414  0.00  0.00    -0.180 A 
ATOM     12  C   LIG    1       -1.630   4.707  -3.750  0.00  0.00    +0.080 A 
BRANCH  11  13
ATOM     13  C   LIG    1       -2.171   5.969  -5.843  0.00  0.00    +0.510 C 
ATOM     14  F   LIG    1       -2.194   4.822  -6.644  0.00  0.00    -0.170 F 
ATOM     15  F   LIG    1       -0.907   6.566  -5.920  0.00  0.00    -0.170 F 
ATOM     16  F   LIG    1       -3.140   6.872  -6.293  0.00  0.00    -0.180 F 
ENDBRANCH  11  13
ENDBRANCH   1   7
BRANCH   1  19
ATOM     17  N   LIG    1        0.498   5.100  -0.745  0.00  0.00    -0.660 N 
ATOM     18  H   LIG    1       -0.252   5.416  -0.217  0.00  0.00    +0.410 HD
ATOM     19  C   LIG    1        0.360   4.012  -1.529  0.00  0.00    +0.530 C 
ATOM     20  O   LIG    1        1.330   3.536  -2.081  0.00  0.00    -0.510 OA
BRANCH  17  24
ATOM     21  C   LIG    1        4.149   7.015  -0.600  0.00  0.00    +0.310 A 
ATOM     22  C   LIG    1        2.998   7.779  -0.457  0.00  0.00    -0.020 A 
ATOM     23  C   LIG    1        1.764   7.155  -0.508  0.00  0.00    +0.090 A 
ATOM     24  C   LIG    1        1.725   5.775  -0.691  0.00  0.00    +0.050 A 
ATOM     25  C   LIG    1        2.917   5.077  -0.826  0.00  0.00    +0.320 A 
ATOM     26  N   LIG    1        4.075   5.706  -0.778  0.00  0.00    -0.520 NA
BRANCH  21  28
ATOM     27  C   LIG    1        6.511   6.779  -0.710  0.00  0.00    +0.260 C 
ATOM     28  O   LIG    1        5.364   7.618  -0.557  0.00  0.00    -0.310 OA
ENDBRANCH  21  28
ENDBRANCH  17  24
ENDBRANCH   1  19
TORSDOF 5
