REMARK  Name = ZINCrH000004mcaI.0
REMARK                            x       y       z     vdW  Elec       q    Type
REMARK                         _______ _______ _______ _____ _____    ______ ____
ROOT
ATOM      1  N   LIG    1        3.621  -0.659  -0.036  0.00  0.00    -0.670 N 
ATOM      2  H   LIG    1        3.635  -1.626   0.040  0.00  0.00    +0.420 HD
ATOM      3  C   LIG    1        4.777   0.024  -0.145  0.00  0.00    +0.520 C 
ATOM      4  O   LIG    1        4.768   1.237  -0.140  0.00  0.00    -0.490 OA
ENDROOT
BRANCH   1   7
ATOM      5  C   LIG    1        1.092   1.948  -0.626  0.00  0.00    +0.220 A 
ATOM      6  C   LIG    1        2.302   1.272  -0.633  0.00  0.00    -0.050 A 
ATOM      7  C   LIG    1        2.401   0.025  -0.032  0.00  0.00    +0.250 A 
ATOM      8  C   LIG    1        1.287  -0.542   0.574  0.00  0.00    -0.160 A 
ATOM      9  C   LIG    1        0.083   0.135   0.578  0.00  0.00    +0.160 A 
ATOM     10  C   LIG    1        1.393  -1.895   1.228  0.00  0.00    +0.120 C 
ATOM     11  C   LIG    1       -0.018   1.376  -0.020  0.00  0.00    -0.100 A 
BRANCH  11  12
ATOM     12  N   LIG    1       -1.312   2.095  -0.018  0.00  0.00    +0.040 N 
ATOM     13  O   LIG    1       -1.401   3.190  -0.545  0.00  0.00    -0.140 OA
ATOM     14  O   LIG    1       -2.287   1.592   0.510  0.00  0.00    -0.180 OA
ENDBRANCH  11  12
BRANCH   5  16
ATOM     15  C   LIG    1        2.174   3.697  -1.819  0.00  0.00    +0.260 C 
ATOM     16  O   LIG    1        0.992   3.169  -1.214  0.00  0.00    -0.280 OA
ENDBRANCH   5  16
ENDBRANCH   1   7
BRANCH   3  17
ATOM     17  C   LIG    1        6.082  -0.718  -0.275  0.00  0.00    +0.230 C 
BRANCH  17  18
ATOM     18  N   LIG    1        7.186   0.246  -0.378  0.00  0.00    -0.520 NA
ATOM     19  C   LIG    1        7.339   1.007   0.869  0.00  0.00    +0.200 C 
BRANCH  18  20
ATOM     20  C   LIG    1        8.440  -0.426  -0.742  0.00  0.00    +0.240 C 
BRANCH  20  21
ATOM     21  C   LIG    1        9.485   0.606  -1.078  0.00  0.00    -0.110 A 
ATOM     22  C   LIG    1        9.624   1.053  -2.381  0.00  0.00    +0.130 A 
ATOM     23  C   LIG    1       10.580   2.007  -2.687  0.00  0.00    -0.010 A 
ATOM     24  C   LIG    1       11.403   2.503  -1.694  0.00  0.00    +0.080 A 
ATOM     25  C   LIG    1       11.269   2.053  -0.394  0.00  0.00    +0.020 A 
ATOM     26  F   LIG    1        8.822   0.563  -3.352  0.00  0.00    -0.130 F 
ATOM     27  C   LIG    1       10.310   1.104  -0.085  0.00  0.00    -0.010 A 
ATOM     28 CL   LIG    1       10.142   0.539   1.548  0.00  0.00    -0.050 Cl
ENDBRANCH  20  21
ENDBRANCH  18  20
ENDBRANCH  17  18
ENDBRANCH   3  17
TORSDOF 7
