REMARK  Name = ZINCvU00000004Zd.0
REMARK                            x       y       z     vdW  Elec       q    Type
REMARK                         _______ _______ _______ _____ _____    ______ ____
ROOT
ATOM      1  C   LIG    1        7.974  -1.593  -2.017  0.00  0.00    -0.030 A 
ATOM      2  C   LIG    1        8.148  -2.939  -2.273  0.00  0.00    +0.000 A 
ATOM      3  C   LIG    1        9.515  -3.087  -2.570  0.00  0.00    +0.050 A 
ATOM      4  N   LIG    1       10.071  -1.897  -2.486  0.00  0.00    -0.250 NA
ATOM      5  N   LIG    1        9.200  -1.008  -2.172  0.00  0.00    -0.250 N 
ATOM      6  C   LIG    1        9.478   0.420  -2.002  0.00  0.00    +0.380 C 
ENDROOT
BRANCH   3   7
ATOM      7  C   LIG    1       10.205  -4.356  -2.917  0.00  0.00    +0.030 A 
ATOM      8  C   LIG    1        9.489  -5.550  -2.964  0.00  0.00    +0.040 A 
ATOM      9  C   LIG    1       10.135  -6.725  -3.292  0.00  0.00    +0.070 A 
ATOM     10  C   LIG    1       11.491  -6.720  -3.561  0.00  0.00    -0.180 A 
ATOM     11  C   LIG    1       12.207  -5.538  -3.510  0.00  0.00    +0.070 A 
ATOM     12  C   LIG    1       11.571  -4.356  -3.189  0.00  0.00    +0.040 A 
BRANCH  10  13
ATOM     13  C   LIG    1       12.192  -8.008  -3.912  0.00  0.00    +0.510 C 
ATOM     14  F   LIG    1       13.268  -7.736  -4.764  0.00  0.00    -0.180 F 
ATOM     15  F   LIG    1       11.294  -8.867  -4.555  0.00  0.00    -0.180 F 
ATOM     16  F   LIG    1       12.663  -8.616  -2.744  0.00  0.00    -0.180 F 
ENDBRANCH  10  13
ENDBRANCH   3   7
BRANCH   1  18
ATOM     17  N   LIG    1        5.609  -1.647  -1.410  0.00  0.00    -0.600 N 
ATOM     18  C   LIG    1        6.716  -0.919  -1.655  0.00  0.00    +0.590 C 
ATOM     19  O   LIG    1        6.676   0.294  -1.578  0.00  0.00    -0.530 OA
ATOM     20  C   LIG    1        5.684  -3.110  -1.385  0.00  0.00    +0.290 C 
BRANCH  17  21
ATOM     21  C   LIG    1        4.329  -0.976  -1.168  0.00  0.00    +0.300 C 
BRANCH  21  22
ATOM     22  C   LIG    1        4.171  -0.703   0.329  0.00  0.00    +0.070 C 
BRANCH  22  26
ATOM     23  C   LIG    1        0.439   1.258   1.034  0.00  0.00    +0.150 A 
ATOM     24  C   LIG    1        1.580   2.005   0.781  0.00  0.00    -0.060 A 
ATOM     25  C   LIG    1        2.785   1.368   0.553  0.00  0.00    +0.080 A 
ATOM     26  C   LIG    1        2.855  -0.012   0.577  0.00  0.00    -0.120 A 
ATOM     27  C   LIG    1        1.720  -0.760   0.829  0.00  0.00    +0.090 A 
ATOM     28  C   LIG    1        0.512  -0.129   1.057  0.00  0.00    -0.130 A 
ATOM     29 BR   LIG    1       -1.041  -1.152   1.401  0.00  0.00    -0.030 Br
BRANCH  23  31
ATOM     30  C   LIG    1       -0.748   3.309   1.214  0.00  0.00    +0.250 C 
ATOM     31  O   LIG    1       -0.748   1.881   1.253  0.00  0.00    -0.300 OA
ENDBRANCH  23  31
ENDBRANCH  22  26
ENDBRANCH  21  22
ENDBRANCH  17  21
ENDBRANCH   1  18
TORSDOF 7
