REMARK  Name = ZINCqH0000032rot.0
REMARK                            x       y       z     vdW  Elec       q    Type
REMARK                         _______ _______ _______ _____ _____    ______ ____
ROOT
ATOM      1  C   LIG    1       -0.715   1.195  -1.847  0.00  0.00    +0.040 A 
ATOM      2  C   LIG    1       -0.834  -0.175  -1.659  0.00  0.00    +0.040 A 
ATOM      3  C   LIG    1       -0.360  -1.048  -2.619  0.00  0.00    +0.020 A 
ATOM      4  C   LIG    1        0.234  -0.557  -3.773  0.00  0.00    +0.180 A 
ATOM      5  C   LIG    1        0.354   0.814  -3.963  0.00  0.00    -0.050 A 
ATOM      6  C   LIG    1       -0.124   1.688  -3.006  0.00  0.00    +0.150 A 
ATOM      7  F   LIG    1       -0.013   3.022  -3.193  0.00  0.00    -0.120 F 
ENDROOT
BRANCH   1  12
ATOM      8  C   LIG    1       -2.667   2.034  -0.799  0.00  0.00    +0.170 C 
ATOM      9  C   LIG    1       -3.040   1.684   0.657  0.00  0.00    +0.010 C 
ATOM     10  C   LIG    1       -1.776   2.111   1.455  0.00  0.00    +0.030 C 
ATOM     11  C   LIG    1       -0.646   1.752   0.458  0.00  0.00    +0.170 C 
ATOM     12  N   LIG    1       -1.196   2.080  -0.874  0.00  0.00    -0.490 N 
BRANCH   8  14
ATOM     13  C   LIG    1       -4.708   0.789  -1.526  0.00  0.00    +0.040 C 
ATOM     14  C   LIG    1       -3.204   0.962  -1.749  0.00  0.00    -0.030 C 
ATOM     15  C   LIG    1       -2.949   1.388  -3.196  0.00  0.00    +0.020 C 
ENDBRANCH   8  14
ENDBRANCH   1  12
BRANCH   4  16
ATOM     16  N   LIG    1        0.714  -1.444  -4.746  0.00  0.00    -0.670 N 
ATOM     17  H   LIG    1        1.468  -1.192  -5.301  0.00  0.00    +0.410 HD
ATOM     18  C   LIG    1        0.128  -2.647  -4.909  0.00  0.00    +0.510 C 
ATOM     19  O   LIG    1       -0.873  -2.924  -4.283  0.00  0.00    -0.510 OA
BRANCH  18  20
ATOM     20  C   LIG    1        0.717  -3.647  -5.870  0.00  0.00    +0.070 C 
BRANCH  20  21
ATOM     21  C   LIG    1       -0.134  -4.919  -5.867  0.00  0.00    +0.140 C 
BRANCH  21  22
ATOM     22  C   LIG    1        0.455  -5.920  -6.828  0.00  0.00    -0.240 A 
ATOM     23  C   LIG    1        0.144  -6.041  -8.139  0.00  0.00    +0.230 A 
ATOM     24  N   LIG    1        0.887  -7.048  -8.646  0.00  0.00    -0.380 N 
ATOM     25  N   LIG    1        1.673  -7.567  -7.609  0.00  0.00    -0.300 NA
ATOM     26  C   LIG    1        0.870  -7.518 -10.033  0.00  0.00    +0.360 C 
ATOM     27  C   LIG    1        1.413  -6.890  -6.520  0.00  0.00    +0.230 A 
ENDBRANCH  21  22
ENDBRANCH  20  21
ENDBRANCH  18  20
ENDBRANCH   4  16
TORSDOF 6
