REMARK  Name = ZINCpk00000eb94x.0
REMARK                            x       y       z     vdW  Elec       q    Type
REMARK                         _______ _______ _______ _____ _____    ______ ____
ROOT
ATOM      1  C   LIG    1        1.326   1.669   2.668  0.00  0.00    +0.110 C 
ENDROOT
BRANCH   1   4
ATOM      2  C   LIG    1        3.253  -0.492   2.503  0.00  0.00    +0.140 C 
ATOM      3  C   LIG    1        2.915   0.120   3.838  0.00  0.00    +0.210 A 
ATOM      4  C   LIG    1        1.997   1.149   3.913  0.00  0.00    -0.300 A 
ATOM      5  C   LIG    1        1.695   1.698   5.165  0.00  0.00    +0.510 A 
ATOM      6  N   LIG    1        2.315   1.208   6.260  0.00  0.00    -0.430 N 
ATOM      7  C   LIG    1        2.032   1.731   7.485  0.00  0.00    +0.280 A 
ATOM      8  C   LIG    1        2.640   1.257   8.596  0.00  0.00    -0.010 A 
ATOM      9  C   LIG    1        3.573   0.215   8.498  0.00  0.00    +0.120 A 
ATOM     10  C   LIG    1        3.863  -0.315   7.277  0.00  0.00    +0.030 A 
ATOM     11  C   LIG    1        3.220   0.192   6.132  0.00  0.00    +0.390 A 
ATOM     12  O   LIG    1        0.884   2.605   5.265  0.00  0.00    -0.530 OA
ATOM     13  N   LIG    1        3.502  -0.326   4.938  0.00  0.00    -0.540 NA
ENDBRANCH   1   4
BRANCH   1  14
ATOM     14  C   LIG    1       -0.021   0.966   2.483  0.00  0.00    +0.180 C 
BRANCH  14  15
ATOM     15  N   LIG    1       -0.675   1.472   1.269  0.00  0.00    -0.530 NA
ATOM     16  C   LIG    1       -0.034   0.932   0.061  0.00  0.00    +0.150 C 
ATOM     17  C   LIG    1       -0.705   1.530  -1.178  0.00  0.00    +0.220 C 
ATOM     18  O   LIG    1       -2.107   1.248  -1.138  0.00  0.00    -0.380 OA
ATOM     19  C   LIG    1       -2.764   1.760   0.025  0.00  0.00    +0.240 C 
ATOM     20  C   LIG    1       -2.113   1.164   1.276  0.00  0.00    +0.110 C 
BRANCH  20  21
ATOM     21  C   LIG    1       -2.759   1.769   2.525  0.00  0.00    +0.150 C 
ATOM     22  C   LIG    1       -2.443   3.275   2.601  0.00  0.00    +0.030 C 
ATOM     23  C   LIG    1       -3.834   3.954   2.613  0.00  0.00    +0.000 C 
ATOM     24  C   LIG    1       -4.754   2.801   3.086  0.00  0.00    +0.200 C 
ATOM     25  O   LIG    1       -4.188   1.635   2.449  0.00  0.00    -0.370 OA
ENDBRANCH  20  21
ENDBRANCH  14  15
ENDBRANCH   1  14
TORSDOF 4
