REMARK  Name = ZINCqj00000qBHPa.1
REMARK                            x       y       z     vdW  Elec       q    Type
REMARK                         _______ _______ _______ _____ _____    ______ ____
ROOT
ATOM      1  C   LIG    1        2.748   4.026   0.103  0.00  0.00    -0.120 A 
ATOM      2  C   LIG    1        3.293   4.278   1.348  0.00  0.00    +0.060 A 
ATOM      3  C   LIG    1        4.587   4.753   1.452  0.00  0.00    +0.050 A 
ATOM      4  C   LIG    1        5.332   4.986   0.311  0.00  0.00    -0.140 A 
ATOM      5  C   LIG    1        4.784   4.739  -0.934  0.00  0.00    +0.050 A 
ATOM      6  C   LIG    1        3.492   4.259  -1.038  0.00  0.00    +0.060 A 
ENDROOT
BRANCH   1   7
ATOM      7  C   LIG    1        1.339   3.503  -0.010  0.00  0.00    +0.320 C 
BRANCH   7  11
ATOM      8  N   LIG    1        0.730  -0.488   1.184  0.00  0.00    -0.540 NA
ATOM      9  C   LIG    1        0.002  -0.004   0.002  0.00  0.00    +0.210 C 
ATOM     10  C   LIG    1       -0.019   1.526   0.010  0.00  0.00    +0.280 C 
ATOM     11  N   LIG    1        1.359   2.035   0.000  0.00  0.00    -0.390 N 
ATOM     12  C   LIG    1        2.066   1.563   1.198  0.00  0.00    +0.260 C 
ATOM     13  H   LIG    1        1.835   1.700  -0.824  0.00  0.00    +0.420 HD
ATOM     14  C   LIG    1        2.104   0.034   1.200  0.00  0.00    +0.210 C 
BRANCH   8  16
ATOM     15  C   LIG    1        1.689  -2.427   2.330  0.00  0.00    +0.050 C 
ATOM     16  C   LIG    1        0.723  -1.956   1.242  0.00  0.00    +0.200 C 
ENDBRANCH   8  16
ENDBRANCH   7  11
ENDBRANCH   1   7
BRANCH   4  17
ATOM     17  C   LIG    1        6.740   5.510   0.424  0.00  0.00    +0.320 C 
BRANCH  17  18
ATOM     18  N   LIG    1        6.719   6.979   0.413  0.00  0.00    -0.510 N 
ATOM     19  H   LIG    1        6.172   7.313   1.193  0.00  0.00    +0.430 HD
ATOM     20  H   LIG    1        6.308   7.303  -0.449  0.00  0.00    +0.430 HD
BRANCH  18  21
ATOM     21  C   LIG    1        8.092   7.489   0.524  0.00  0.00    +0.160 C 
ATOM     22  C   LIG    1        8.671   7.110   1.889  0.00  0.00    +0.060 C 
ATOM     23  C   LIG    1       10.078   7.696   2.022  0.00  0.00    +0.200 C 
ATOM     24  N   LIG    1       10.016   9.157   1.886  0.00  0.00    -0.530 NA
ATOM     25  C   LIG    1        9.508   9.546   0.565  0.00  0.00    +0.230 C 
ATOM     26  C   LIG    1        8.083   9.015   0.388  0.00  0.00    +0.060 C 
BRANCH  24  27
ATOM     27  C   LIG    1       11.327   9.766   2.146  0.00  0.00    +0.200 C 
BRANCH  27  28
ATOM     28  C   LIG    1       11.710   9.548   3.611  0.00  0.00    +0.260 C 
BRANCH  28  29
ATOM     29  N   LIG    1       13.021  10.157   3.870  0.00  0.00    -0.640 N 
ATOM     30  H   LIG    1       12.977  11.146   3.678  0.00  0.00    +0.440 HD
ATOM     31  H   LIG    1       13.715   9.730   3.274  0.00  0.00    +0.440 HD
ATOM     32  H   LIG    1       13.274  10.013   4.837  0.00  0.00    +0.450 HD
ENDBRANCH  28  29
ENDBRANCH  27  28
ENDBRANCH  24  27
ENDBRANCH  18  21
ENDBRANCH  17  18
ENDBRANCH   4  17
TORSDOF 9
