REMARK  Name = ZINCqj00000qBHPa.0
REMARK                            x       y       z     vdW  Elec       q    Type
REMARK                         _______ _______ _______ _____ _____    ______ ____
ROOT
ATOM      1  C   LIG    1       -2.012   2.463   3.523  0.00  0.00    -0.050 A 
ATOM      2  C   LIG    1       -2.366   1.254   2.955  0.00  0.00    +0.020 A 
ATOM      3  C   LIG    1       -1.719   0.808   1.818  0.00  0.00    +0.040 A 
ATOM      4  C   LIG    1       -0.718   1.572   1.248  0.00  0.00    -0.160 A 
ATOM      5  C   LIG    1       -0.360   2.779   1.819  0.00  0.00    +0.040 A 
ATOM      6  C   LIG    1       -1.010   3.227   2.953  0.00  0.00    +0.050 A 
ENDROOT
BRANCH   1   7
ATOM      7  C   LIG    1       -2.717   2.949   4.763  0.00  0.00    +0.240 C 
BRANCH   7  11
ATOM      8  N   LIG    1       -1.833   1.157   8.487  0.00  0.00    -0.390 N 
ATOM      9  C   LIG    1       -1.715   2.617   8.378  0.00  0.00    +0.280 C 
ATOM     10  C   LIG    1       -2.519   3.105   7.171  0.00  0.00    +0.230 C 
ATOM     11  N   LIG    1       -2.007   2.463   5.953  0.00  0.00    -0.530 NA
ATOM     12  C   LIG    1       -2.095   0.999   6.057  0.00  0.00    +0.200 C 
ATOM     13  C   LIG    1       -1.295   0.529   7.274  0.00  0.00    +0.270 C 
ATOM     14  H   LIG    1       -2.804   0.905   8.594  0.00  0.00    +0.420 HD
BRANCH   8  16
ATOM     15  C   LIG    1       -1.094  -0.839   9.700  0.00  0.00    +0.080 C 
ATOM     16  C   LIG    1       -1.075   0.691   9.657  0.00  0.00    +0.250 C 
ENDBRANCH   8  16
ENDBRANCH   7  11
ENDBRANCH   1   7
BRANCH   4  17
ATOM     17  C   LIG    1       -0.013   1.086   0.008  0.00  0.00    +0.320 C 
BRANCH  17  18
ATOM     18  N   LIG    1       -0.723   1.572  -1.182  0.00  0.00    -0.510 N 
ATOM     19  H   LIG    1       -0.737   2.581  -1.177  0.00  0.00    +0.430 HD
ATOM     20  H   LIG    1       -1.670   1.223  -1.175  0.00  0.00    +0.430 HD
BRANCH  18  21
ATOM     21  C   LIG    1       -0.036   1.099  -2.391  0.00  0.00    +0.160 C 
ATOM     22  C   LIG    1        1.355   1.734  -2.470  0.00  0.00    +0.060 C 
ATOM     23  C   LIG    1        2.043   1.285  -3.762  0.00  0.00    +0.210 C 
ATOM     24  N   LIG    1        1.232   1.692  -4.917  0.00  0.00    -0.530 NA
ATOM     25  C   LIG    1       -0.091   1.056  -4.886  0.00  0.00    +0.230 C 
ATOM     26  C   LIG    1       -0.843   1.499  -3.629  0.00  0.00    +0.060 C 
BRANCH  24  27
ATOM     27  C   LIG    1        1.928   1.400  -6.177  0.00  0.00    +0.200 C 
BRANCH  27  28
ATOM     28  C   LIG    1        3.182   2.270  -6.281  0.00  0.00    +0.260 C 
BRANCH  28  29
ATOM     29  N   LIG    1        3.877   1.978  -7.542  0.00  0.00    -0.640 N 
ATOM     30  H   LIG    1        3.264   2.178  -8.318  0.00  0.00    +0.440 HD
ATOM     31  H   LIG    1        4.141   1.004  -7.563  0.00  0.00    +0.440 HD
ATOM     32  H   LIG    1        4.704   2.552  -7.610  0.00  0.00    +0.450 HD
ENDBRANCH  28  29
ENDBRANCH  27  28
ENDBRANCH  24  27
ENDBRANCH  18  21
ENDBRANCH  17  18
ENDBRANCH   4  17
TORSDOF 9
