REMARK  Name = ZINCpe00000bBirB.0
REMARK                            x       y       z     vdW  Elec       q    Type
REMARK                         _______ _______ _______ _____ _____    ______ ____
ROOT
ATOM      1  C   LIG    1       -1.392  -1.885  -0.285  0.00  0.00    +0.400 A 
ATOM      2  N   LIG    1       -0.438  -2.767  -0.086  0.00  0.00    -0.350 NA
ATOM      3  N   LIG    1       -0.938  -3.935   0.104  0.00  0.00    -0.050 NA
ATOM      4  N   LIG    1       -2.224  -3.888   0.032  0.00  0.00    -0.030 NA
ATOM      5  N   LIG    1       -2.569  -2.550  -0.224  0.00  0.00    -0.350 N 
ENDROOT
BRANCH   1   7
ATOM      6  C   LIG    1       -0.521   0.113   0.598  0.00  0.00    +0.260 C 
ATOM      7  N   LIG    1       -1.224  -0.531  -0.519  0.00  0.00    -0.470 N 
BRANCH   7   8
ATOM      8  C   LIG    1       -0.521  -0.299  -1.788  0.00  0.00    +0.240 C 
BRANCH   8   9
ATOM      9  C   LIG    1       -0.702   1.159  -2.212  0.00  0.00    +0.220 C 
BRANCH   9  10
ATOM     10  O   LIG    1       -0.062   2.015  -1.263  0.00  0.00    -0.310 OA
BRANCH  10  11
ATOM     11  C   LIG    1       -0.129   3.353  -1.495  0.00  0.00    +0.120 A 
ATOM     12  C   LIG    1       -0.793   3.831  -2.615  0.00  0.00    -0.040 A 
ATOM     13  C   LIG    1       -0.864   5.191  -2.846  0.00  0.00    +0.030 A 
ATOM     14  C   LIG    1       -0.266   6.076  -1.966  0.00  0.00    +0.060 A 
ATOM     15  C   LIG    1        0.401   5.600  -0.850  0.00  0.00    +0.030 A 
ATOM     16  F   LIG    1       -0.332   7.406  -2.196  0.00  0.00    -0.140 F 
ATOM     17  C   LIG    1        0.470   4.240  -0.613  0.00  0.00    +0.020 A 
ENDBRANCH  10  11
ENDBRANCH   9  10
ENDBRANCH   8   9
ENDBRANCH   7   8
ENDBRANCH   1   7
BRANCH   5  18
ATOM     18  C   LIG    1       -3.914  -1.994  -0.391  0.00  0.00    +0.380 C 
BRANCH  18  19
ATOM     19  C   LIG    1       -4.248  -1.904  -1.881  0.00  0.00    -0.010 C 
ATOM     20  C   LIG    1       -5.599  -1.206  -2.058  0.00  0.00    +0.050 C 
ATOM     21  C   LIG    1       -6.041  -1.368  -3.517  0.00  0.00    +0.020 C 
ATOM     22  C   LIG    1       -6.353  -2.843  -3.771  0.00  0.00    +0.260 C 
ATOM     23  N   LIG    1       -5.248  -3.683  -3.324  0.00  0.00    -0.720 N 
ATOM     24  H   LIG    1       -5.193  -4.585  -3.674  0.00  0.00    +0.400 HD
ATOM     25  C   LIG    1       -4.310  -3.287  -2.463  0.00  0.00    +0.510 C 
ATOM     26  O   LIG    1       -3.461  -4.088  -2.132  0.00  0.00    -0.530 OA
ENDBRANCH  18  19
ENDBRANCH   5  18
TORSDOF 7
