REMARK  Name = ZINCpe00000SsEMa.0
REMARK                            x       y       z     vdW  Elec       q    Type
REMARK                         _______ _______ _______ _____ _____    ______ ____
ROOT
ATOM      1  N   LIG    1       -0.011   0.966   0.007  0.00  0.00    -0.730 N 
ATOM      2  H   LIG    1        0.002  -0.004   0.002  0.00  0.00    +0.400 HD
ATOM      3  C   LIG    1        1.147   1.655   0.000  0.00  0.00    +0.520 C 
ATOM      4  O   LIG    1        1.130   2.868   0.007  0.00  0.00    -0.510 OA
ENDROOT
BRANCH   3   5
ATOM      5  C   LIG    1        2.462   0.920  -0.017  0.00  0.00    +0.170 C 
ATOM      6  C   LIG    1        2.599   0.147  -1.331  0.00  0.00    +0.170 C 
ATOM      7  N   LIG    1        3.915  -0.506  -1.375  0.00  0.00    -0.530 NA
ATOM      8  C   LIG    1        4.993   0.487  -1.259  0.00  0.00    +0.160 C 
ATOM      9  C   LIG    1        4.832   1.257   0.054  0.00  0.00    +0.230 C 
ATOM     10  O   LIG    1        3.535   1.858   0.094  0.00  0.00    -0.360 OA
BRANCH   7  11
ATOM     11  C   LIG    1        4.066  -1.306  -2.597  0.00  0.00    +0.230 C 
BRANCH  11  12
ATOM     12  C   LIG    1        5.498  -1.757  -2.730  0.00  0.00    -0.090 A 
ATOM     13  C   LIG    1        6.408  -0.974  -3.414  0.00  0.00    +0.010 A 
ATOM     14  C   LIG    1        7.723  -1.385  -3.532  0.00  0.00    +0.000 A 
ATOM     15  C   LIG    1        8.125  -2.583  -2.973  0.00  0.00    +0.000 A 
ATOM     16  C   LIG    1        7.213  -3.369  -2.293  0.00  0.00    +0.000 A 
ATOM     17  C   LIG    1        5.899  -2.956  -2.172  0.00  0.00    +0.020 A 
ENDBRANCH  11  12
ENDBRANCH   7  11
ENDBRANCH   3   5
BRANCH   1  18
ATOM     18  C   LIG    1       -1.290   1.681   0.017  0.00  0.00    +0.290 C 
BRANCH  18  21
ATOM     19  C   LIG    1       -3.817   1.387  -1.424  0.00  0.00    -0.460 C 
ATOM     20  C   LIG    1       -3.830   1.321   0.113  0.00  0.00    +0.090 C 
ATOM     21  C   LIG    1       -2.439   0.671   0.017  0.00  0.00    -0.010 C 
ATOM     22  C   LIG    1       -2.841   0.196  -1.389  0.00  0.00    +0.090 C 
BRANCH  19  24
ATOM     23  C   LIG    1       -5.012   1.016  -3.949  0.00  0.00    -0.260 C 
ATOM     24  S   LIG    1       -5.419   0.996  -2.181  0.00  0.00    +2.420 S 
ATOM     25  O   LIG    1       -6.319   2.061  -1.911  0.00  0.00    -0.940 OA
ATOM     26  O   LIG    1       -5.781  -0.329  -1.814  0.00  0.00    -0.940 OA
ENDBRANCH  19  24
ENDBRANCH  18  21
ENDBRANCH   1  18
TORSDOF 6
