REMARK  Name = ZINCkj000005exGV.0
REMARK                            x       y       z     vdW  Elec       q    Type
REMARK                         _______ _______ _______ _____ _____    ______ ____
ROOT
ATOM      1  N   LIG    1        3.549   1.932   1.201  0.00  0.00    -0.750 N 
ATOM      2  H   LIG    1        4.233   1.350   0.835  0.00  0.00    +0.400 HD
ATOM      3  C   LIG    1        3.883   3.151   1.671  0.00  0.00    +0.710 C 
ATOM      4  N   LIG    1        5.166   3.559   1.633  0.00  0.00    -0.740 N 
ATOM      5  H   LIG    1        5.850   2.977   1.268  0.00  0.00    +0.400 HD
ATOM      6  O   LIG    1        3.025   3.881   2.129  0.00  0.00    -0.580 OA
ENDROOT
BRANCH   1  10
ATOM      7  N   LIG    1        0.002  -0.004   0.002  0.00  0.00    -0.380 N 
ATOM      8  C   LIG    1       -0.018   1.464   0.010  0.00  0.00    +0.260 C 
ATOM      9  C   LIG    1        1.416   1.997  -0.001  0.00  0.00    +0.050 C 
ATOM     10  C   LIG    1        2.154   1.488   1.241  0.00  0.00    +0.270 C 
ATOM     11  C   LIG    1        2.104  -0.042   1.261  0.00  0.00    +0.060 C 
ATOM     12  C   LIG    1        0.644  -0.500   1.225  0.00  0.00    +0.260 C 
ATOM     13  H   LIG    1        0.518  -0.328  -0.802  0.00  0.00    +0.420 HD
BRANCH   7  14
ATOM     14  C   LIG    1       -1.375  -0.511  -0.066  0.00  0.00    +0.300 C 
BRANCH  14  16
ATOM     15  C   LIG    1       -1.460  -2.765   0.868  0.00  0.00    +0.110 C 
ATOM     16  C   LIG    1       -1.352  -2.012  -0.198  0.00  0.00    -0.190 C 
ATOM     17  C   LIG    1       -1.205  -2.646  -1.557  0.00  0.00    +0.100 C 
ENDBRANCH  14  16
ENDBRANCH   7  14
ENDBRANCH   1  10
BRANCH   4  18
ATOM     18  C   LIG    1        5.529   4.883   2.145  0.00  0.00    +0.300 C 
BRANCH  18  19
ATOM     19  C   LIG    1        7.035   5.097   1.986  0.00  0.00    -0.050 C 
ATOM     20  C   LIG    1        7.449   6.479   2.547  0.00  0.00    +0.020 C 
ATOM     21  C   LIG    1        8.483   6.960   1.498  0.00  0.00    +0.200 C 
ATOM     22  O   LIG    1        7.941   6.481   0.248  0.00  0.00    -0.370 OA
ATOM     23  C   LIG    1        7.416   5.166   0.494  0.00  0.00    +0.190 C 
ENDBRANCH  18  19
ENDBRANCH   4  18
TORSDOF 5
