REMARK  Name = ZINCAx0000000k6E.0
REMARK                            x       y       z     vdW  Elec       q    Type
REMARK                         _______ _______ _______ _____ _____    ______ ____
ROOT
ATOM      1  C   LIG    1        0.645   6.197  -1.079  0.00  0.00    +0.110 C 
ATOM      2  C   LIG    1       -0.716   5.690  -0.598  0.00  0.00    +0.170 C 
ATOM      3  N   LIG    1       -0.730   5.558   0.869  0.00  0.00    -0.720 N 
ATOM      4  H   LIG    1       -0.605   6.269   1.516  0.00  0.00    +0.440 HD
ATOM      5  C   LIG    1       -0.956   4.259   1.137  0.00  0.00    +0.710 C 
ATOM      6  N   LIG    1       -1.083   3.523   0.026  0.00  0.00    -0.560 N 
ATOM      7  O   LIG    1       -1.034   3.804   2.261  0.00  0.00    -0.530 OA
ATOM      8  C   LIG    1       -0.960   4.275  -1.085  0.00  0.00    +0.540 C 
ATOM      9  O   LIG    1       -1.032   3.899  -2.235  0.00  0.00    -0.450 OA
ENDROOT
BRANCH   2  10
ATOM     10  C   LIG    1       -1.816   6.608  -1.062  0.00  0.00    -0.090 A 
ATOM     11  C   LIG    1       -2.153   7.687  -0.304  0.00  0.00    +0.050 A 
ATOM     12  C   LIG    1       -3.179   8.546  -0.734  0.00  0.00    -0.050 A 
ATOM     13  C   LIG    1       -3.554   9.670   0.021  0.00  0.00    +0.030 A 
ATOM     14  C   LIG    1       -4.553  10.480  -0.427  0.00  0.00    +0.020 A 
ATOM     15  C   LIG    1       -5.210  10.212  -1.625  0.00  0.00    +0.020 A 
ATOM     16  C   LIG    1       -4.874   9.132  -2.383  0.00  0.00    +0.020 A 
ATOM     17  C   LIG    1       -3.848   8.273  -1.953  0.00  0.00    -0.050 A 
ATOM     18  C   LIG    1       -3.472   7.149  -2.709  0.00  0.00    +0.030 A 
ATOM     19  C   LIG    1       -2.470   6.343  -2.264  0.00  0.00    +0.030 A 
ENDBRANCH   2  10
BRANCH   6  20
ATOM     20  C   LIG    1       -1.331   2.079   0.020  0.00  0.00    +0.360 C 
BRANCH  20  21
ATOM     21  C   LIG    1       -0.016   1.344   0.009  0.00  0.00    +0.510 C 
ATOM     22  N   LIG    1        0.002  -0.004   0.002  0.00  0.00    -0.700 N 
ATOM     23  H   LIG    1       -0.831  -0.500   0.007  0.00  0.00    +0.410 HD
ATOM     24  O   LIG    1        1.026   1.964   0.003  0.00  0.00    -0.530 OA
BRANCH  22  25
ATOM     25  C   LIG    1        1.281  -0.719  -0.014  0.00  0.00    +0.300 C 
BRANCH  25  26
ATOM     26  C   LIG    1        1.766  -0.849  -1.435  0.00  0.00    -0.100 A 
ATOM     27  C   LIG    1        0.870  -1.135  -2.448  0.00  0.00    +0.020 A 
ATOM     28  C   LIG    1        1.314  -1.250  -3.752  0.00  0.00    +0.000 A 
ATOM     29  C   LIG    1        2.656  -1.087  -4.041  0.00  0.00    +0.000 A 
ATOM     30  C   LIG    1        3.553  -0.806  -3.028  0.00  0.00    +0.000 A 
ATOM     31  C   LIG    1        3.108  -0.686  -1.724  0.00  0.00    +0.020 A 
ENDBRANCH  25  26
BRANCH  25  32
ATOM     32  C   LIG    1        1.093  -2.112   0.590  0.00  0.00    +0.200 C 
BRANCH  32  33
ATOM     33  N   LIG    1        0.507  -1.990   1.931  0.00  0.00    -0.530 NA
ATOM     34  C   LIG    1        1.444  -1.337   2.858  0.00  0.00    +0.150 C 
ATOM     35  C   LIG    1        0.773  -1.176   4.224  0.00  0.00    +0.220 C 
ATOM     36  O   LIG    1        0.350  -2.458   4.696  0.00  0.00    -0.380 OA
ATOM     37  C   LIG    1       -0.564  -3.122   3.818  0.00  0.00    +0.220 C 
ATOM     38  C   LIG    1        0.094  -3.303   2.448  0.00  0.00    +0.150 C 
ENDBRANCH  32  33
ENDBRANCH  25  32
ENDBRANCH  22  25
ENDBRANCH  20  21
ENDBRANCH   6  20
TORSDOF 7
