REMARK  Name = ZINCbw0000000HbO.0
REMARK                            x       y       z     vdW  Elec       q    Type
REMARK                         _______ _______ _______ _____ _____    ______ ____
ROOT
ATOM      1  C   LIG    1        0.040  -2.770  -0.013  0.00  0.00    -0.080 A 
ATOM      2  C   LIG    1        0.042  -2.087   1.189  0.00  0.00    +0.030 A 
ATOM      3  C   LIG    1        0.023  -0.705   1.199  0.00  0.00    -0.010 A 
ATOM      4  C   LIG    1        0.002  -0.004   0.002  0.00  0.00    +0.100 A 
ATOM      5  C   LIG    1       -0.006  -0.692  -1.202  0.00  0.00    -0.010 A 
ATOM      6  C   LIG    1        0.018  -2.074  -1.207  0.00  0.00    +0.020 A 
ENDROOT
BRANCH   1   8
ATOM      7  C   LIG    1       -1.175  -4.808   0.709  0.00  0.00    +0.040 C 
ATOM      8  C   LIG    1        0.060  -4.277  -0.021  0.00  0.00    -0.030 C 
ATOM      9  C   LIG    1        1.323  -4.774   0.685  0.00  0.00    +0.040 C 
ATOM     10  C   LIG    1        0.053  -4.779  -1.467  0.00  0.00    +0.030 C 
ENDBRANCH   1   8
BRANCH   4  11
ATOM     11  O   LIG    1       -0.016   1.355   0.009  0.00  0.00    -0.500 OA
ATOM     12  H   LIG    1        0.862   1.760   0.003  0.00  0.00    +0.390 HD
ENDBRANCH   4  11
TORSDOF 2
