REMARK  Name = ZINCrD0000074ANV.0
REMARK                            x       y       z     vdW  Elec       q    Type
REMARK                         _______ _______ _______ _____ _____    ______ ____
ROOT
ATOM      1  O   LIG    1        2.239   5.028   6.162  0.00  0.00    -0.320 OA
ENDROOT
BRANCH   1   2
ATOM      2  C   LIG    1        3.370   4.847   6.862  0.00  0.00    +0.470 C 
ATOM      3  O   LIG    1        3.897   3.760   6.889  0.00  0.00    -0.510 OA
BRANCH   2   4
ATOM      4  C   LIG    1        3.982   6.000   7.615  0.00  0.00    +0.130 C 
BRANCH   4   5
ATOM      5  C   LIG    1        5.254   5.530   8.323  0.00  0.00    +0.060 C 
BRANCH   5   6
ATOM      6  C   LIG    1        5.866   6.683   9.076  0.00  0.00    +0.400 C 
ATOM      7  O   LIG    1        5.337   7.774   9.049  0.00  0.00    -0.450 OA
BRANCH   6  12
ATOM      8  C   LIG    1       10.709   5.911  12.076  0.00  0.00    +0.100 C 
ATOM      9  C   LIG    1        9.439   6.113  11.289  0.00  0.00    -0.050 A 
ATOM     10  C   LIG    1        8.838   7.360  11.261  0.00  0.00    -0.010 A 
ATOM     11  C   LIG    1        7.677   7.553  10.543  0.00  0.00    +0.080 A 
ATOM     12  C   LIG    1        7.106   6.485   9.844  0.00  0.00    -0.180 A 
ATOM     13  C   LIG    1        7.716   5.227   9.882  0.00  0.00    +0.060 A 
ATOM     14  C   LIG    1        8.880   5.051  10.599  0.00  0.00    -0.010 A 
ENDBRANCH   6  12
ENDBRANCH   5   6
ENDBRANCH   4   5
ENDBRANCH   2   4
ENDBRANCH   1   2
BRANCH   1  15
ATOM     15  C   LIG    1        1.706   3.873   5.461  0.00  0.00    +0.200 C 
ATOM     16  C   LIG    1        0.742   3.119   6.380  0.00  0.00    +0.070 C 
BRANCH  15  17
ATOM     17  C   LIG    1        0.971   4.329   4.227  0.00  0.00    +0.520 C 
ATOM     18  N   LIG    1        0.476   3.420   3.363  0.00  0.00    -0.650 N 
ATOM     19  H   LIG    1        0.594   2.473   3.536  0.00  0.00    +0.410 HD
ATOM     20  O   LIG    1        0.825   5.513   4.011  0.00  0.00    -0.470 OA
BRANCH  18  21
ATOM     21  C   LIG    1       -0.204   3.842   2.221  0.00  0.00    +0.300 A 
ATOM     22  C   LIG    1       -0.440   5.132   1.856  0.00  0.00    -0.110 A 
ATOM     23  C   LIG    1       -1.149   5.113   0.652  0.00  0.00    +0.250 A 
ATOM     24  N   LIG    1       -1.330   3.866   0.301  0.00  0.00    -0.280 NA
ATOM     25  N   LIG    1       -0.749   3.044   1.275  0.00  0.00    -0.380 N 
BRANCH  25  26
ATOM     26  C   LIG    1       -0.729   1.579   1.267  0.00  0.00    +0.250 C 
ATOM     27  C   LIG    1       -2.164   1.050   1.278  0.00  0.00    +0.050 C 
ATOM     28  C   LIG    1       -0.013   1.086   0.008  0.00  0.00    +0.050 C 
ENDBRANCH  25  26
ENDBRANCH  18  21
ENDBRANCH  15  17
ENDBRANCH   1  15
TORSDOF 9
