REMARK  Name = ZINCqH0000036Fdh.0
REMARK                            x       y       z     vdW  Elec       q    Type
REMARK                         _______ _______ _______ _____ _____    ______ ____
ROOT
ATOM      1  C   LIG    1       -0.016   1.333   0.009  0.00  0.00    +0.190 A 
ATOM      2  N   LIG    1        1.230   1.735  -0.000  0.00  0.00    -0.460 NA
ATOM      3  C   LIG    1        1.976   0.608  -0.013  0.00  0.00    +0.220 A 
ATOM      4  N   LIG    1        1.147  -0.404  -0.011  0.00  0.00    -0.370 NA
ATOM      5  O   LIG    1        0.002  -0.004   0.002  0.00  0.00    +0.090 OA
ENDROOT
BRANCH   3   6
ATOM      6  C   LIG    1        3.458   0.532  -0.029  0.00  0.00    -0.000 A 
ATOM      7  C   LIG    1        4.072  -0.704  -0.042  0.00  0.00    +0.140 A 
ATOM      8  C   LIG    1        5.474  -0.774  -0.056  0.00  0.00    +0.020 A 
ATOM      9  N   LIG    1        6.384  -1.736  -0.070  0.00  0.00    -0.260 NA
ATOM     10  N   LIG    1        7.554  -1.200  -0.079  0.00  0.00    -0.190 N 
ATOM     11  H   LIG    1        8.379  -1.711  -0.091  0.00  0.00    +0.480 HD
ATOM     12  N   LIG    1        7.514   0.087  -0.072  0.00  0.00    -0.270 NA
ATOM     13  C   LIG    1        6.249   0.476  -0.057  0.00  0.00    +0.040 A 
ATOM     14  C   LIG    1        5.564   1.705  -0.044  0.00  0.00    +0.090 A 
ATOM     15  C   LIG    1        4.208   1.720  -0.036  0.00  0.00    +0.080 A 
ENDBRANCH   3   6
BRANCH   1  17
ATOM     16  C   LIG    1       -2.082   1.929  -1.226  0.00  0.00    +0.070 C 
ATOM     17  C   LIG    1       -1.240   2.211   0.020  0.00  0.00    +0.120 C 
BRANCH  17  18
ATOM     18  C   LIG    1       -2.069   1.916   1.272  0.00  0.00    +0.320 C 
BRANCH  18  19
ATOM     19  N   LIG    1       -3.195   2.851   1.345  0.00  0.00    -0.480 N 
ATOM     20  C   LIG    1       -3.199   4.023   2.050  0.00  0.00    +0.220 A 
ATOM     21  C   LIG    1       -4.382   4.640   1.905  0.00  0.00    -0.050 A 
ATOM     22  C   LIG    1       -5.202   3.794   1.035  0.00  0.00    -0.110 A 
ATOM     23  C   LIG    1       -6.499   3.894   0.528  0.00  0.00    +0.050 A 
ATOM     24  C   LIG    1       -6.988   2.908  -0.282  0.00  0.00    -0.030 A 
ATOM     25  C   LIG    1       -6.206   1.807  -0.604  0.00  0.00    +0.030 A 
ATOM     26  C   LIG    1       -4.924   1.689  -0.114  0.00  0.00    -0.010 A 
ATOM     27  C   LIG    1       -4.404   2.683   0.708  0.00  0.00    +0.100 A 
ENDBRANCH  18  19
ENDBRANCH  17  18
ENDBRANCH   1  17
TORSDOF 4
