REMARK  Name = ZINCrH000004pQQa.0
REMARK                            x       y       z     vdW  Elec       q    Type
REMARK                         _______ _______ _______ _____ _____    ______ ____
ROOT
ATOM      1  C   LIG    1       -2.846  -0.027  -1.947  0.00  0.00    -0.650 A 
ATOM      2  C   LIG    1       -3.014  -1.157  -1.167  0.00  0.00    +0.120 A 
ATOM      3  C   LIG    1       -4.281  -1.577  -0.818  0.00  0.00    +0.030 A 
ATOM      4  C   LIG    1       -5.396  -0.865  -1.263  0.00  0.00    -0.080 A 
ATOM      5  C   LIG    1       -5.220   0.272  -2.055  0.00  0.00    +0.070 A 
ATOM      6  C   LIG    1       -3.947   0.684  -2.392  0.00  0.00    +0.130 A 
ENDROOT
BRANCH   4   7
ATOM      7  C   LIG    1       -6.756  -1.312  -0.899  0.00  0.00    +0.560 C 
ATOM      8  N   LIG    1       -6.923  -2.410  -0.135  0.00  0.00    -0.670 N 
ATOM      9  H   LIG    1       -6.154  -2.944   0.120  0.00  0.00    +0.420 HD
ATOM     10  O   LIG    1       -7.726  -0.690  -1.288  0.00  0.00    -0.500 OA
BRANCH   8  11
ATOM     11  C   LIG    1       -8.203  -2.778   0.291  0.00  0.00    +0.170 A 
ATOM     12  C   LIG    1       -8.380  -3.358   1.540  0.00  0.00    -0.020 A 
ATOM     13  C   LIG    1       -9.647  -3.715   1.962  0.00  0.00    +0.070 A 
ATOM     14  C   LIG    1      -10.736  -3.508   1.136  0.00  0.00    -0.030 A 
ATOM     15  C   LIG    1      -10.562  -2.936  -0.113  0.00  0.00    +0.120 A 
ATOM     16  F   LIG    1      -11.629  -2.735  -0.918  0.00  0.00    -0.130 F 
ATOM     17  C   LIG    1       -9.298  -2.571  -0.537  0.00  0.00    -0.010 A 
ENDBRANCH   8  11
ENDBRANCH   4   7
BRANCH   1  18
ATOM     18  S   LIG    1       -1.224   0.506  -2.383  0.00  0.00    +2.690 S 
ATOM     19  O   LIG    1       -0.388  -0.639  -2.291  0.00  0.00    -0.950 OA
ATOM     20  O   LIG    1       -1.360   1.275  -3.571  0.00  0.00    -0.950 OA
BRANCH  18  26
ATOM     21  C   LIG    1        0.103   1.162   2.473  0.00  0.00    +0.030 C 
ATOM     22  C   LIG    1       -0.711   1.554   1.238  0.00  0.00    -0.040 C 
ATOM     23  C   LIG    1       -0.848   3.077   1.175  0.00  0.00    +0.030 C 
ATOM     24  C   LIG    1       -1.687   3.468  -0.044  0.00  0.00    -0.040 C 
ATOM     25  C   LIG    1       -0.981   2.993  -1.318  0.00  0.00    +0.290 C 
ATOM     26  N   LIG    1       -0.718   1.552  -1.204  0.00  0.00    -0.990 NA
ATOM     27  C   LIG    1       -1.847   4.989  -0.086  0.00  0.00    +0.030 C 
ATOM     28  C   LIG    1        0.003   1.057  -0.023  0.00  0.00    +0.290 C 
ENDBRANCH  18  26
ENDBRANCH   1  18
TORSDOF 4
