REMARK  Name = ZINCpe00000MGk6u.0
REMARK                            x       y       z     vdW  Elec       q    Type
REMARK                         _______ _______ _______ _____ _____    ______ ____
ROOT
ATOM      1  N   LIG    1       -1.195   2.161   0.019  0.00  0.00    -0.700 N 
ATOM      2  H   LIG    1       -2.028   1.664   0.021  0.00  0.00    +0.410 HD
ATOM      3  C   LIG    1       -0.018   1.503   0.010  0.00  0.00    +0.510 C 
ATOM      4  O   LIG    1        1.024   2.123   0.004  0.00  0.00    -0.520 OA
ENDROOT
BRANCH   1   5
ATOM      5  C   LIG    1       -1.214   3.626   0.028  0.00  0.00    +0.250 C 
BRANCH   5   9
ATOM      6  C   LIG    1       -0.995   5.961  -2.998  0.00  0.00    +0.290 C 
ATOM      7  N   LIG    1       -1.102   5.464  -1.624  0.00  0.00    -0.730 N 
ATOM      8  H   LIG    1       -1.171   6.089  -0.886  0.00  0.00    +0.400 HD
ATOM      9  C   LIG    1       -1.104   4.137  -1.386  0.00  0.00    +0.500 C 
ATOM     10  O   LIG    1       -1.018   3.355  -2.309  0.00  0.00    -0.530 OA
ENDBRANCH   5   9
BRANCH   5  11
ATOM     11  C   LIG    1       -2.526   4.114   0.646  0.00  0.00    +0.050 C 
BRANCH  11  12
ATOM     12  C   LIG    1       -2.581   3.701   2.118  0.00  0.00    -0.020 C 
ATOM     13  C   LIG    1       -3.942   4.079   2.704  0.00  0.00    +0.030 C 
ATOM     14  C   LIG    1       -1.475   4.421   2.892  0.00  0.00    +0.030 C 
ENDBRANCH  11  12
ENDBRANCH   5  11
ENDBRANCH   1   5
BRANCH   3  15
ATOM     15  C   LIG    1        0.002  -0.004   0.002  0.00  0.00    +0.340 C 
BRANCH  15  16
ATOM     16  N   LIG    1        1.390  -0.473  -0.014  0.00  0.00    -0.530 N 
ATOM     17  C   LIG    1        2.014  -0.688  -1.201  0.00  0.00    +0.590 A 
ATOM     18  N   LIG    1        3.242  -1.099  -1.298  0.00  0.00    -0.520 NA
ATOM     19  C   LIG    1        3.995  -1.356  -0.199  0.00  0.00    +0.140 A 
ATOM     20  C   LIG    1        5.314  -1.802  -0.304  0.00  0.00    +0.070 A 
ATOM     21  C   LIG    1        6.043  -2.050   0.837  0.00  0.00    +0.040 A 
ATOM     22  C   LIG    1        5.482  -1.863   2.096  0.00  0.00    +0.080 A 
ATOM     23  C   LIG    1        4.180  -1.423   2.224  0.00  0.00    +0.070 A 
ATOM     24  F   LIG    1        6.216  -2.113   3.201  0.00  0.00    -0.130 F 
ATOM     25  C   LIG    1        3.427  -1.166   1.080  0.00  0.00    -0.170 A 
ATOM     26  C   LIG    1        2.036  -0.695   1.155  0.00  0.00    +0.560 A 
ATOM     27  O   LIG    1        1.487  -0.511   2.225  0.00  0.00    -0.500 OA
ENDBRANCH  15  16
ENDBRANCH   3  15
TORSDOF 6
