REMARK  Name = ZINCqH0000050uwu.0
REMARK                            x       y       z     vdW  Elec       q    Type
REMARK                         _______ _______ _______ _____ _____    ______ ____
ROOT
ATOM      1  C   LIG    1        2.193   3.961  -0.144  0.00  0.00    +0.360 C 
ATOM      2  C   LIG    1        3.012   4.926  -1.007  0.00  0.00    +0.040 C 
ATOM      3  C   LIG    1        2.057   5.830  -1.796  0.00  0.00    -0.010 C 
ATOM      4  C   LIG    1        1.207   6.651  -0.823  0.00  0.00    +0.020 C 
ATOM      5  C   LIG    1        0.370   5.704   0.042  0.00  0.00    +0.270 C 
ATOM      6  C   LIG    1        2.869   6.774  -2.685  0.00  0.00    +0.030 C 
ATOM      7  N   LIG    1        1.268   4.739   0.692  0.00  0.00    -0.600 N 
ATOM      8  C   LIG    1        1.244   4.571   2.029  0.00  0.00    +0.580 C 
ATOM      9  O   LIG    1        1.942   3.722   2.547  0.00  0.00    -0.530 OA
ENDROOT
BRANCH   8  10
ATOM     10  C   LIG    1        0.369   5.419   2.864  0.00  0.00    -0.230 A 
ATOM     11  C   LIG    1       -0.990   5.562   2.550  0.00  0.00    +0.370 A 
ATOM     12  N   LIG    1       -1.784   6.309   3.279  0.00  0.00    -0.500 NA
ATOM     13  C   LIG    1       -1.344   6.966   4.347  0.00  0.00    +0.330 A 
ATOM     14  C   LIG    1        0.011   6.874   4.729  0.00  0.00    -0.230 A 
ATOM     15  C   LIG    1        0.161   7.701   5.922  0.00  0.00    +0.120 A 
ATOM     16  N   LIG    1       -1.003   8.216   6.193  0.00  0.00    -0.240 NA
ATOM     17  C   LIG    1        1.434   7.920   6.699  0.00  0.00    +0.180 C 
ATOM     18  N   LIG    1       -1.948   7.791   5.254  0.00  0.00    -0.390 N 
ATOM     19  C   LIG    1       -3.363   8.169   5.244  0.00  0.00    +0.360 C 
ATOM     20  C   LIG    1        0.883   6.082   3.978  0.00  0.00    +0.220 A 
ENDBRANCH   8  10
BRANCH   1  25
ATOM     21  C   LIG    1       -1.406   2.183  -3.199  0.00  0.00    +0.180 C 
ATOM     22  C   LIG    1       -0.155   2.256  -2.361  0.00  0.00    -0.010 A 
ATOM     23  C   LIG    1        0.737   1.264  -2.191  0.00  0.00    -0.060 A 
ATOM     24  C   LIG    1        1.745   1.762  -1.335  0.00  0.00    -0.040 A 
ATOM     25  C   LIG    1        1.409   3.029  -1.032  0.00  0.00    -0.020 A 
ATOM     26  O   LIG    1        0.257   3.323  -1.657  0.00  0.00    -0.170 OA
ENDBRANCH   1  25
TORSDOF 2
