REMARK  Name = ZINCrD0000074zAm.0
REMARK                            x       y       z     vdW  Elec       q    Type
REMARK                         _______ _______ _______ _____ _____    ______ ____
ROOT
ATOM      1  C   LIG    1        6.470   1.770  -1.231  0.00  0.00    +0.280 C 
ENDROOT
BRANCH   1   2
ATOM      2  N   LIG    1        7.921   1.970  -1.244  0.00  0.00    -0.730 N 
ATOM      3  H   LIG    1        8.473   1.555  -0.563  0.00  0.00    +0.400 HD
ATOM      4  C   LIG    1        8.488   2.730  -2.202  0.00  0.00    +0.590 C 
ATOM      5  O   LIG    1        7.795   3.250  -3.055  0.00  0.00    -0.510 OA
BRANCH   4   6
ATOM      6  C   LIG    1        9.948   2.931  -2.214  0.00  0.00    -0.250 A 
ATOM      7  C   LIG    1       10.855   2.411  -1.312  0.00  0.00    +0.310 A 
ATOM      8  N   LIG    1       12.076   2.830  -1.683  0.00  0.00    -0.340 N 
ATOM      9  N   LIG    1       11.943   3.630  -2.824  0.00  0.00    -0.240 NA
ATOM     10  C   LIG    1       13.333   2.510  -1.003  0.00  0.00    +0.380 C 
ATOM     11  C   LIG    1       10.682   3.696  -3.149  0.00  0.00    +0.040 A 
BRANCH  11  12
ATOM     12  C   LIG    1       10.107   4.456  -4.316  0.00  0.00    +0.550 C 
ATOM     13  F   LIG    1        8.950   3.812  -4.768  0.00  0.00    -0.140 F 
ATOM     14  F   LIG    1       11.048   4.505  -5.350  0.00  0.00    -0.170 F 
ATOM     15  F   LIG    1        9.788   5.758  -3.914  0.00  0.00    -0.170 F 
ENDBRANCH  11  12
ENDBRANCH   4   6
ENDBRANCH   1   2
BRANCH   1  16
ATOM     16  C   LIG    1        6.088   0.874  -0.051  0.00  0.00    +0.130 C 
BRANCH  16  19
ATOM     17  C   LIG    1        2.478   1.075  -0.015  0.00  0.00    +0.240 A 
ATOM     18  N   LIG    1        3.665   1.635  -0.029  0.00  0.00    -0.470 NA
ATOM     19  C   LIG    1        4.595   0.669  -0.038  0.00  0.00    -0.010 A 
ATOM     20  C   LIG    1        3.959  -0.517  -0.038  0.00  0.00    +0.150 A 
ATOM     21  O   LIG    1        2.636  -0.260  -0.024  0.00  0.00    -0.190 OA
BRANCH  17  26
ATOM     22  C   LIG    1       -2.554   3.865   0.048  0.00  0.00    +0.100 C 
ATOM     23  C   LIG    1       -1.236   3.134   0.031  0.00  0.00    -0.060 A 
ATOM     24  C   LIG    1       -1.216   1.751   0.017  0.00  0.00    +0.010 A 
ATOM     25  C   LIG    1       -0.013   1.076   0.008  0.00  0.00    +0.050 A 
ATOM     26  C   LIG    1        1.186   1.792   0.000  0.00  0.00    -0.030 A 
ATOM     27  C   LIG    1        1.158   3.187   0.008  0.00  0.00    +0.080 A 
ATOM     28  C   LIG    1       -0.052   3.850   0.023  0.00  0.00    +0.010 A 
ENDBRANCH  17  26
ENDBRANCH  16  19
ENDBRANCH   1  16
TORSDOF 6
