REMARK  Name = ZINCpe000000YBCo.0
REMARK                            x       y       z     vdW  Elec       q    Type
REMARK                         _______ _______ _______ _____ _____    ______ ____
ROOT
ATOM      1  C   LIG    1        1.328  -0.737  -0.018  0.00  0.00    +0.000 C 
ATOM      2  C   LIG    1        2.109  -0.476   1.291  0.00  0.00    +0.090 C 
ATOM      3  C   LIG    1        2.773  -1.800   1.597  0.00  0.00    +0.520 C 
ATOM      4  N   LIG    1        2.197  -2.782   0.883  0.00  0.00    -0.560 N 
ATOM      5  O   LIG    1        3.692  -1.954   2.374  0.00  0.00    -0.500 OA
ATOM      6  C   LIG    1        1.108  -2.264   0.045  0.00  0.00    +0.310 C 
ENDROOT
BRANCH   4   7
ATOM      7  C   LIG    1        2.585  -4.126   0.931  0.00  0.00    +0.160 A 
ATOM      8  C   LIG    1        3.707  -4.501   1.657  0.00  0.00    +0.010 A 
ATOM      9  C   LIG    1        4.082  -5.828   1.707  0.00  0.00    +0.050 A 
ATOM     10  C   LIG    1        3.351  -6.787   1.024  0.00  0.00    -0.120 A 
ATOM     11  C   LIG    1        3.557  -8.283   0.917  0.00  0.00    +0.070 C 
ATOM     12  C   LIG    1        2.210  -8.841   0.411  0.00  0.00    +0.030 C 
ATOM     13  C   LIG    1        1.617  -7.637  -0.351  0.00  0.00    +0.080 C 
ATOM     14  C   LIG    1        2.236  -6.415   0.295  0.00  0.00    -0.070 A 
ATOM     15  C   LIG    1        1.853  -5.087   0.248  0.00  0.00    -0.020 A 
ENDBRANCH   4   7
BRANCH   1  20
ATOM     16  C   LIG    1       -0.764   3.531   0.624  0.00  0.00    -0.010 C 
ATOM     17  C   LIG    1        0.669   3.676   0.046  0.00  0.00    +0.070 C 
ATOM     18  C   LIG    1        1.176   2.219   0.008  0.00  0.00    +0.250 C 
ATOM     19  N   LIG    1       -0.007   1.346  -0.004  0.00  0.00    -0.620 N 
ATOM     20  C   LIG    1        0.013  -0.002  -0.016  0.00  0.00    +0.540 C 
ATOM     21  O   LIG    1       -1.029  -0.623  -0.026  0.00  0.00    -0.520 OA
ATOM     22  C   LIG    1       -1.216   2.188  -0.007  0.00  0.00    +0.310 C 
BRANCH  16  26
ATOM     23  N   LIG    1       -1.340   5.933   0.502  0.00  0.00    -0.850 N 
ATOM     24  H   LIG    1       -1.909   6.662   0.209  0.00  0.00    +0.410 HD
ATOM     25  H   LIG    1       -0.550   6.118   1.033  0.00  0.00    +0.400 HD
ATOM     26  C   LIG    1       -1.647   4.664   0.170  0.00  0.00    +0.530 C 
ATOM     27  O   LIG    1       -2.635   4.433  -0.495  0.00  0.00    -0.530 OA
ENDBRANCH  16  26
ENDBRANCH   1  20
TORSDOF 3
