REMARK  Name = ZINCrg00001JduT4.0
REMARK                            x       y       z     vdW  Elec       q    Type
REMARK                         _______ _______ _______ _____ _____    ______ ____
ROOT
ATOM      1  C   LIG    1        2.023   0.129   8.135  0.00  0.00    +0.600 C 
ATOM      2  N   LIG    1        1.546   0.775   7.053  0.00  0.00    -0.600 N 
ATOM      3  C   LIG    1        0.288   1.531   7.126  0.00  0.00    +0.290 C 
ATOM      4  C   LIG    1       -0.644   1.045   6.012  0.00  0.00    +0.020 C 
ATOM      5  C   LIG    1        0.076   1.152   4.666  0.00  0.00    -0.010 C 
ATOM      6  C   LIG    1        1.319   0.260   4.678  0.00  0.00    +0.040 C 
ATOM      7  C   LIG    1        2.274   0.737   5.777  0.00  0.00    +0.280 C 
ATOM      8  O   LIG    1        2.995  -0.594   8.033  0.00  0.00    -0.520 OA
ENDROOT
BRANCH   1  14
ATOM      9  C   LIG    1        1.670  -0.423  10.688  0.00  0.00    -0.050 A 
ATOM     10  C   LIG    1        0.795   0.092  11.606  0.00  0.00    +0.210 A 
ATOM     11  N   LIG    1        0.045   1.013  10.969  0.00  0.00    -0.290 N 
ATOM     12  N   LIG    1        0.378   1.123   9.736  0.00  0.00    -0.250 NA
ATOM     13  C   LIG    1       -1.019   1.792  11.607  0.00  0.00    +0.370 C 
ATOM     14  C   LIG    1        1.364   0.298   9.445  0.00  0.00    +0.010 A 
BRANCH   9  16
ATOM     15  C   LIG    1        3.474  -2.266  11.062  0.00  0.00    +0.070 C 
ATOM     16  C   LIG    1        2.661  -1.436  10.894  0.00  0.00    -0.120 C 
ENDBRANCH   9  16
ENDBRANCH   1  14
BRANCH   5  17
ATOM     17  C   LIG    1       -0.865   0.700   3.547  0.00  0.00    +0.160 C 
BRANCH  17  18
ATOM     18  O   LIG    1       -0.235   0.909   2.282  0.00  0.00    -0.370 OA
BRANCH  18  19
ATOM     19  C   LIG    1       -1.034   0.517   1.163  0.00  0.00    +0.160 C 
ATOM     20  C   LIG    1       -0.138   0.054  -0.016  0.00  0.00    +0.050 C 
ATOM     21  C   LIG    1       -1.050   0.343  -1.234  0.00  0.00    +0.260 C 
ATOM     22  N   LIG    1       -1.753   1.593  -0.891  0.00  0.00    -0.610 N 
ATOM     23  C   LIG    1       -2.281   2.464  -1.773  0.00  0.00    +0.560 C 
ATOM     24  O   LIG    1       -2.840   3.468  -1.376  0.00  0.00    -0.540 OA
ATOM     25  C   LIG    1       -1.781   1.732   0.572  0.00  0.00    +0.240 C 
BRANCH  23  26
ATOM     26  C   LIG    1       -2.181   2.201  -3.217  0.00  0.00    -0.090 C 
ATOM     27  C   LIG    1       -2.702   3.061  -4.088  0.00  0.00    +0.150 C 
ENDBRANCH  23  26
ENDBRANCH  18  19
ENDBRANCH  17  18
ENDBRANCH   5  17
TORSDOF 6
