REMARK  Name = ZINCrH00000No57M.0
REMARK                            x       y       z     vdW  Elec       q    Type
REMARK                         _______ _______ _______ _____ _____    ______ ____
ROOT
ATOM      1  C   LIG    1       -2.571  -2.730   0.012  0.00  0.00    +0.260 C 
ENDROOT
BRANCH   1   2
ATOM      2  N   LIG    1       -3.219  -2.358   1.272  0.00  0.00    -0.690 N 
ATOM      3  H   LIG    1       -2.682  -2.190   2.062  0.00  0.00    +0.410 HD
ATOM      4  C   LIG    1       -4.561  -2.250   1.333  0.00  0.00    +0.580 C 
ATOM      5  O   LIG    1       -5.233  -2.461   0.343  0.00  0.00    -0.520 OA
BRANCH   4   6
ATOM      6  C   LIG    1       -5.216  -1.874   2.607  0.00  0.00    +0.100 A 
ATOM      7  C   LIG    1       -6.604  -1.764   2.664  0.00  0.00    +0.050 A 
ATOM      8  C   LIG    1       -7.203  -1.412   3.862  0.00  0.00    +0.100 A 
ATOM      9  C   LIG    1       -6.393  -1.182   4.964  0.00  0.00    -0.130 A 
ATOM     10  C   LIG    1       -5.018  -1.310   4.835  0.00  0.00    +0.300 A 
ATOM     11 BR   LIG    1       -7.155  -0.698   6.626  0.00  0.00    -0.020 Br
ATOM     12  N   LIG    1       -4.477  -1.650   3.687  0.00  0.00    -0.450 NA
ENDBRANCH   4   6
ENDBRANCH   1   2
BRANCH   1  13
ATOM     13  C   LIG    1       -1.135  -2.201   0.001  0.00  0.00    +0.090 C 
BRANCH  13  15
ATOM     14  O   LIG    1       -2.214  -0.102   0.023  0.00  0.00    -0.500 OA
ATOM     15  C   LIG    1       -1.156  -0.694   0.009  0.00  0.00    +0.520 C 
ATOM     16  N   LIG    1        0.002  -0.004   0.002  0.00  0.00    -0.600 N 
ATOM     17  H   LIG    1        0.849  -0.478  -0.009  0.00  0.00    +0.410 HD
BRANCH  16  18
ATOM     18  O   LIG    1       -0.017   1.412   0.010  0.00  0.00    -0.140 OA
BRANCH  18  19
ATOM     19  C   LIG    1        1.280   2.011   0.001  0.00  0.00    +0.160 C 
BRANCH  19  20
ATOM     20  C   LIG    1        1.139   3.534   0.010  0.00  0.00    +0.000 C 
ATOM     21  C   LIG    1        0.472   3.993  -1.288  0.00  0.00    +0.020 C 
ATOM     22  C   LIG    1        0.331   5.516  -1.279  0.00  0.00    +0.000 C 
ATOM     23  C   LIG    1        1.716   6.156  -1.163  0.00  0.00    +0.000 C 
ATOM     24  C   LIG    1        2.382   5.698   0.136  0.00  0.00    +0.010 C 
ATOM     25  C   LIG    1        2.524   4.174   0.126  0.00  0.00    +0.030 C 
ENDBRANCH  19  20
ENDBRANCH  18  19
ENDBRANCH  16  18
ENDBRANCH  13  15
ENDBRANCH   1  13
BRANCH   1  26
ATOM     26  C   LIG    1       -2.553  -4.254  -0.122  0.00  0.00    +0.050 C 
BRANCH  26  27
ATOM     27  C   LIG    1       -3.988  -4.773  -0.237  0.00  0.00    -0.020 C 
ATOM     28  C   LIG    1       -4.502  -5.682   0.882  0.00  0.00    +0.000 C 
ATOM     29  C   LIG    1       -4.180  -6.269  -0.495  0.00  0.00    +0.000 C 
ENDBRANCH  26  27
ENDBRANCH   1  26
TORSDOF 9
