REMARK  Name = ZINCpk00000Fa54l.0
REMARK                            x       y       z     vdW  Elec       q    Type
REMARK                         _______ _______ _______ _____ _____    ______ ____
ROOT
ATOM      1  O   LIG    1       -1.185   3.351   0.014  0.00  0.00    -0.510 OA
ATOM      2  C   LIG    1       -1.187   2.136   0.019  0.00  0.00    +0.580 C 
ATOM      3  N   LIG    1       -0.025   1.461   0.125  0.00  0.00    -0.590 N 
ATOM      4  C   LIG    1       -0.019  -0.004   0.244  0.00  0.00    +0.270 C 
ATOM      5  C   LIG    1        0.798  -0.394   1.480  0.00  0.00    +0.030 C 
ATOM      6  C   LIG    1        2.190   0.235   1.386  0.00  0.00    +0.070 C 
ATOM      7  C   LIG    1        2.062   1.760   1.354  0.00  0.00    +0.110 C 
ATOM      8  C   LIG    1        1.259   2.174   0.117  0.00  0.00    +0.290 C 
ENDROOT
BRANCH   2   9
ATOM      9  C   LIG    1       -2.464   1.398  -0.090  0.00  0.00    +0.140 A 
ATOM     10  N   LIG    1       -2.802   0.821  -1.230  0.00  0.00    -0.460 NA
ATOM     11  C   LIG    1       -3.926   0.145  -1.382  0.00  0.00    +0.240 A 
ATOM     12  C   LIG    1       -4.830   0.005  -0.367  0.00  0.00    +0.010 A 
ATOM     13  C   LIG    1       -4.549   0.594   0.878  0.00  0.00    -0.030 A 
ATOM     14  C   LIG    1       -5.426   0.495   1.968  0.00  0.00    +0.030 A 
ATOM     15  C   LIG    1       -5.097   1.088   3.149  0.00  0.00    +0.040 A 
ATOM     16  C   LIG    1       -3.903   1.792   3.290  0.00  0.00    +0.020 A 
ATOM     17  C   LIG    1       -3.028   1.908   2.252  0.00  0.00    +0.040 A 
ATOM     18  C   LIG    1       -3.332   1.311   1.022  0.00  0.00    -0.080 A 
ENDBRANCH   2   9
BRANCH   7  19
ATOM     19  O   LIG    1        1.388   2.207   2.532  0.00  0.00    -0.540 OA
ATOM     20  H   LIG    1        1.271   3.165   2.579  0.00  0.00    +0.380 HD
ENDBRANCH   7  19
BRANCH   7  21
ATOM     21  C   LIG    1        3.455   2.388   1.293  0.00  0.00    +0.320 C 
BRANCH  21  22
ATOM     22  N   LIG    1        3.332   3.848   1.262  0.00  0.00    -0.300 N 
ATOM     23  C   LIG    1        3.921   4.712   2.121  0.00  0.00    +0.140 A 
ATOM     24  C   LIG    1        3.540   5.950   1.730  0.00  0.00    +0.140 A 
ATOM     25  N   LIG    1        2.748   5.786   0.665  0.00  0.00    -0.260 NA
ATOM     26  N   LIG    1        2.648   4.529   0.410  0.00  0.00    -0.080 NA
ENDBRANCH  21  22
ENDBRANCH   7  21
TORSDOF 4
