REMARK  Name = ZINCrg00000bIfrb.0
REMARK                            x       y       z     vdW  Elec       q    Type
REMARK                         _______ _______ _______ _____ _____    ______ ____
ROOT
ATOM      1  C   LIG    1       -1.131   3.462  -0.079  0.00  0.00    +0.270 C 
ATOM      2  C   LIG    1       -0.994   3.847  -1.522  0.00  0.00    -0.030 C 
ATOM      3  C   LIG    1       -1.965   4.270  -2.266  0.00  0.00    -0.030 C 
ATOM      4  C   LIG    1       -3.374   4.451  -1.773  0.00  0.00    +0.320 C 
ATOM      5  N   LIG    1       -3.503   3.834  -0.445  0.00  0.00    -0.600 N 
ATOM      6  C   LIG    1       -4.579   3.092  -0.118  0.00  0.00    +0.490 C 
ATOM      7  O   LIG    1       -4.621   2.522   0.952  0.00  0.00    -0.520 OA
ATOM      8  C   LIG    1       -2.408   4.062   0.514  0.00  0.00    +0.310 C 
ENDROOT
BRANCH   1  10
ATOM      9  C   LIG    1       -0.044   1.285   0.059  0.00  0.00    +0.560 C 
ATOM     10  N   LIG    1       -1.185   2.002   0.029  0.00  0.00    -0.710 N 
ATOM     11  H   LIG    1       -2.043   1.551   0.079  0.00  0.00    +0.400 HD
ATOM     12  O   LIG    1        1.030   1.850  -0.009  0.00  0.00    -0.530 OA
BRANCH   9  17
ATOM     13  C   LIG    1       -0.264  -4.451   0.488  0.00  0.00    +0.110 C 
ATOM     14  C   LIG    1       -0.206  -2.949   0.376  0.00  0.00    -0.090 A 
ATOM     15  C   LIG    1       -1.377  -2.215   0.350  0.00  0.00    +0.040 A 
ATOM     16  C   LIG    1       -1.331  -0.839   0.253  0.00  0.00    +0.040 A 
ATOM     17  C   LIG    1       -0.100  -0.188   0.169  0.00  0.00    -0.120 A 
ATOM     18  C   LIG    1        1.080  -0.933   0.195  0.00  0.00    +0.060 A 
ATOM     19  C   LIG    1        1.021  -2.310   0.298  0.00  0.00    +0.090 A 
ATOM     20  F   LIG    1        2.162  -3.034   0.324  0.00  0.00    -0.130 F 
ENDBRANCH   9  17
ENDBRANCH   1  10
BRANCH   6  21
ATOM     21  C   LIG    1       -5.731   2.969  -1.082  0.00  0.00    +0.310 C 
BRANCH  21  22
ATOM     22  C   LIG    1       -6.391   4.313  -1.250  0.00  0.00    +0.040 A 
ATOM     23  C   LIG    1       -6.661   4.928  -2.424  0.00  0.00    -0.090 A 
ATOM     24  C   LIG    1       -7.276   6.152  -2.138  0.00  0.00    +0.240 A 
ATOM     25  N   LIG    1       -7.372   6.266  -0.838  0.00  0.00    -0.280 NA
ATOM     26  N   LIG    1       -6.825   5.116  -0.256  0.00  0.00    -0.360 N 
ATOM     27  C   LIG    1       -6.737   4.835   1.179  0.00  0.00    +0.360 C 
ENDBRANCH  21  22
BRANCH  21  28
ATOM     28  O   LIG    1       -6.682   2.032  -0.572  0.00  0.00    -0.520 OA
ATOM     29  H   LIG    1       -6.998   2.237   0.319  0.00  0.00    +0.380 HD
ENDBRANCH  21  28
ENDBRANCH   6  21
TORSDOF 5
