REMARK  Name = ZINCpe000000YmJw.0
REMARK                            x       y       z     vdW  Elec       q    Type
REMARK                         _______ _______ _______ _____ _____    ______ ____
ROOT
ATOM      1  C   LIG    1        5.162   5.093  -3.555  0.00  0.00    +0.360 C 
ATOM      2  N   LIG    1        5.442   5.042  -2.118  0.00  0.00    -0.410 N 
ATOM      3  C   LIG    1        6.609   5.346  -1.517  0.00  0.00    +0.500 A 
ATOM      4  N   LIG    1        6.494   5.187  -0.223  0.00  0.00    -0.500 NA
ATOM      5  C   LIG    1        5.258   4.777   0.075  0.00  0.00    +0.320 A 
ATOM      6  N   LIG    1        4.609   4.463   1.258  0.00  0.00    -0.510 N 
ATOM      7  C   LIG    1        5.324   4.562   2.533  0.00  0.00    +0.340 C 
ATOM      8  C   LIG    1        3.321   4.071   1.238  0.00  0.00    +0.720 A 
ATOM      9  O   LIG    1        2.767   3.804   2.287  0.00  0.00    -0.530 OA
ATOM     10  N   LIG    1        2.635   3.962   0.087  0.00  0.00    -0.540 N 
ATOM     11  C   LIG    1        3.212   4.254  -1.097  0.00  0.00    +0.600 A 
ATOM     12  O   LIG    1        2.578   4.157  -2.132  0.00  0.00    -0.510 OA
ATOM     13  C   LIG    1        4.559   4.674  -1.121  0.00  0.00    -0.150 A 
ENDROOT
BRANCH  10  14
ATOM     14  C   LIG    1        1.236   3.526   0.120  0.00  0.00    +0.380 C 
BRANCH  14  15
ATOM     15  C   LIG    1        1.175   2.025   0.002  0.00  0.00    +0.510 C 
ATOM     16  N   LIG    1       -0.017   1.397   0.010  0.00  0.00    -0.660 N 
ATOM     17  H   LIG    1       -0.838   1.913   0.006  0.00  0.00    +0.420 HD
ATOM     18  O   LIG    1        2.199   1.383  -0.099  0.00  0.00    -0.500 OA
BRANCH  16  19
ATOM     19  C   LIG    1       -0.071  -0.003   0.017  0.00  0.00    +0.150 A 
ATOM     20  C   LIG    1        0.994  -0.737   0.521  0.00  0.00    +0.070 A 
ATOM     21  C   LIG    1        0.936  -2.117   0.533  0.00  0.00    +0.030 A 
ATOM     22  C   LIG    1       -0.177  -2.770   0.031  0.00  0.00    +0.100 A 
ATOM     23  C   LIG    1       -1.238  -2.040  -0.478  0.00  0.00    +0.030 A 
ATOM     24  F   LIG    1       -0.228  -4.120   0.038  0.00  0.00    -0.130 F 
ATOM     25  C   LIG    1       -1.188  -0.659  -0.486  0.00  0.00    -0.040 A 
ATOM     26 CL   LIG    1       -2.518   0.255  -1.125  0.00  0.00    -0.050 Cl
ENDBRANCH  16  19
ENDBRANCH  14  15
ENDBRANCH  10  14
TORSDOF 3
