REMARK  Name = ZINCkj00000G2Weh.1
REMARK                            x       y       z     vdW  Elec       q    Type
REMARK                         _______ _______ _______ _____ _____    ______ ____
ROOT
ATOM      1  S   LIG    1       -4.638   2.358   0.829  0.00  0.00    +2.690 S 
ATOM      2  O   LIG    1       -4.540   3.185   1.980  0.00  0.00    -0.940 OA
ATOM      3  O   LIG    1       -5.612   1.333   0.690  0.00  0.00    -0.940 OA
ENDROOT
BRANCH   1   7
ATOM      4  C   LIG    1       -5.201   5.141  -2.699  0.00  0.00    +0.200 A 
ATOM      5  C   LIG    1       -5.629   3.824  -2.778  0.00  0.00    -0.020 A 
ATOM      6  C   LIG    1       -5.457   2.977  -1.700  0.00  0.00    +0.170 A 
ATOM      7  C   LIG    1       -4.857   3.441  -0.544  0.00  0.00    -0.730 A 
ATOM      8  C   LIG    1       -4.434   4.755  -0.461  0.00  0.00    +0.170 A 
ATOM      9  C   LIG    1       -4.599   5.604  -1.538  0.00  0.00    -0.090 A 
BRANCH   4  10
ATOM     10  O   LIG    1       -5.369   5.976  -3.758  0.00  0.00    -0.310 OA
BRANCH  10  12
ATOM     11  C   LIG    1       -5.177   8.102  -4.891  0.00  0.00    +0.070 C 
ATOM     12  C   LIG    1       -4.903   7.319  -3.606  0.00  0.00    +0.190 C 
ENDBRANCH  10  12
ENDBRANCH   4  10
ENDBRANCH   1   7
BRANCH   1  13
ATOM     13  N   LIG    1       -3.162   1.630   0.648  0.00  0.00    -1.120 NA
ATOM     14  H   LIG    1       -3.108   0.672   0.504  0.00  0.00    +0.420 HD
BRANCH  13  15
ATOM     15  C   LIG    1       -1.938   2.432   0.707  0.00  0.00    +0.280 C 
ATOM     16  C   LIG    1       -1.460   2.808  -0.719  0.00  0.00    +0.260 C 
ATOM     17  N   LIG    1       -0.749   1.586  -1.173  0.00  0.00    -0.390 N 
ATOM     18  C   LIG    1       -0.013   1.086   0.008  0.00  0.00    +0.270 C 
ATOM     19  C   LIG    1        0.190   1.917  -2.253  0.00  0.00    +0.330 C 
ATOM     20  H   LIG    1       -1.413   0.894  -1.488  0.00  0.00    +0.430 HD
ATOM     21  C   LIG    1       -0.756   1.593   1.258  0.00  0.00    +0.020 C 
ATOM     22  C   LIG    1       -1.278   0.414   2.081  0.00  0.00    +0.060 C 
ENDBRANCH  13  15
ENDBRANCH   1  13
TORSDOF 5
