REMARK  Name = ZINCkj00000G2Weh.0
REMARK                            x       y       z     vdW  Elec       q    Type
REMARK                         _______ _______ _______ _____ _____    ______ ____
ROOT
ATOM      1  S   LIG    1        3.933  -0.831  -0.039  0.00  0.00    +2.690 S 
ATOM      2  O   LIG    1        3.677  -2.120   0.501  0.00  0.00    -0.940 OA
ATOM      3  O   LIG    1        4.899   0.060   0.500  0.00  0.00    -0.940 OA
ENDROOT
BRANCH   1   7
ATOM      4  C   LIG    1       -0.017   1.383   0.010  0.00  0.00    +0.200 A 
ATOM      5  C   LIG    1        1.177   2.091   0.002  0.00  0.00    -0.090 A 
ATOM      6  C   LIG    1        2.380   1.413  -0.013  0.00  0.00    +0.150 A 
ATOM      7  C   LIG    1        2.396   0.030  -0.021  0.00  0.00    -0.730 A 
ATOM      8  C   LIG    1        1.208  -0.677  -0.013  0.00  0.00    +0.170 A 
ATOM      9  C   LIG    1        0.002  -0.004   0.002  0.00  0.00    -0.020 A 
BRANCH   4  10
ATOM     10  O   LIG    1       -1.202   2.048   0.019  0.00  0.00    -0.310 OA
BRANCH  10  12
ATOM     11  C   LIG    1       -2.566   4.042   0.036  0.00  0.00    +0.070 C 
ATOM     12  C   LIG    1       -1.145   3.475   0.026  0.00  0.00    +0.190 C 
ENDBRANCH  10  12
ENDBRANCH   4  10
ENDBRANCH   1   7
BRANCH   1  13
ATOM     13  N   LIG    1        4.346  -1.063  -1.626  0.00  0.00    -1.110 NA
ATOM     14  H   LIG    1        4.391  -1.961  -1.989  0.00  0.00    +0.430 HD
BRANCH  13  15
ATOM     15  C   LIG    1        4.643   0.089  -2.482  0.00  0.00    +0.260 C 
ATOM     16  C   LIG    1        3.402   0.469  -3.318  0.00  0.00    +0.250 C 
ATOM     17  N   LIG    1        3.953   0.878  -4.638  0.00  0.00    -0.390 N 
ATOM     18  C   LIG    1        5.053  -0.088  -4.890  0.00  0.00    +0.280 C 
ATOM     19  C   LIG    1        2.924   0.768  -5.680  0.00  0.00    +0.330 C 
ATOM     20  H   LIG    1        4.313   1.819  -4.592  0.00  0.00    +0.430 HD
ATOM     21  C   LIG    1        5.728  -0.277  -3.515  0.00  0.00    +0.000 C 
ATOM     22  C   LIG    1        6.168  -1.731  -3.331  0.00  0.00    +0.080 C 
ENDBRANCH  13  15
ENDBRANCH   1  13
TORSDOF 5
