REMARK  Name = ZINCpk000000o6rk.0
REMARK                            x       y       z     vdW  Elec       q    Type
REMARK                         _______ _______ _______ _____ _____    ______ ____
ROOT
ATOM      1  C   LIG    1        2.046   1.466  -3.647  0.00  0.00    +0.340 A 
ATOM      2  C   LIG    1        1.667   2.096  -4.831  0.00  0.00    -0.060 A 
ATOM      3  C   LIG    1        2.340   1.811  -5.989  0.00  0.00    +0.140 A 
ATOM      4  C   LIG    1        3.395   0.886  -5.940  0.00  0.00    -0.230 A 
ATOM      5  C   LIG    1        3.719   0.293  -4.718  0.00  0.00    +0.360 A 
ATOM      6  N   LIG    1        3.050   0.599  -3.627  0.00  0.00    -0.520 NA
ENDROOT
BRANCH   1  11
ATOM      7  C   LIG    1       -0.952   1.704   1.116  0.00  0.00    +0.020 C 
ATOM      8  C   LIG    1       -0.266   1.204  -0.157  0.00  0.00    -0.030 C 
ATOM      9  C   LIG    1       -0.806   1.973  -1.366  0.00  0.00    +0.030 C 
ATOM     10  C   LIG    1       -0.073   1.510  -2.627  0.00  0.00    +0.190 C 
ATOM     11  N   LIG    1        1.367   1.752  -2.475  0.00  0.00    -0.480 N 
ATOM     12  C   LIG    1        1.917   0.987  -1.348  0.00  0.00    +0.200 C 
ATOM     13  C   LIG    1        1.244   1.434  -0.049  0.00  0.00    +0.020 C 
ENDBRANCH   1  11
BRANCH   4  14
ATOM     14  C   LIG    1        4.149   0.546  -7.161  0.00  0.00    +0.580 C 
ATOM     15  N   LIG    1        5.497   0.542  -7.141  0.00  0.00    -0.570 N 
ATOM     16  O   LIG    1        3.555   0.270  -8.185  0.00  0.00    -0.550 OA
BRANCH  15  17
ATOM     17  C   LIG    1        6.212   0.766  -5.882  0.00  0.00    +0.190 C 
BRANCH  17  18
ATOM     18  C   LIG    1        6.576  -0.561  -5.268  0.00  0.00    +0.470 C 
ATOM     19  O   LIG    1        7.179  -0.598  -4.210  0.00  0.00    -0.680 OA
ATOM     20  O   LIG    1        6.267  -1.598  -5.830  0.00  0.00    -0.680 OA
ENDBRANCH  17  18
ENDBRANCH  15  17
BRANCH  15  21
ATOM     21  C   LIG    1        6.247   0.313  -8.379  0.00  0.00    +0.300 C 
BRANCH  21  22
ATOM     22  C   LIG    1        6.516   1.652  -9.067  0.00  0.00    +0.230 C 
BRANCH  22  23
ATOM     23  N   LIG    1        7.268   1.423 -10.308  0.00  0.00    -0.380 N 
ATOM     24  C   LIG    1        7.630   2.714 -10.907  0.00  0.00    +0.320 C 
ATOM     25  C   LIG    1        6.437   0.662 -11.251  0.00  0.00    +0.320 C 
ATOM     26  H   LIG    1        8.106   0.901 -10.102  0.00  0.00    +0.430 HD
ENDBRANCH  22  23
ENDBRANCH  21  22
ENDBRANCH  15  21
ENDBRANCH   4  14
TORSDOF 7
