REMARK  Name = ZINCvU0000000CL8.0
REMARK                            x       y       z     vdW  Elec       q    Type
REMARK                         _______ _______ _______ _____ _____    ______ ____
ROOT
ATOM      1  C   LIG    1        3.642   2.154  -0.021  0.00  0.00    -0.070 A 
ATOM      2  C   LIG    1        4.805   1.399  -0.051  0.00  0.00    +0.020 A 
ATOM      3  C   LIG    1        4.718  -0.002  -0.056  0.00  0.00    +0.190 A 
ATOM      4  N   LIG    1        3.563  -0.634  -0.035  0.00  0.00    -0.440 NA
ATOM      5  C   LIG    1        2.396   0.012  -0.006  0.00  0.00    +0.130 A 
ATOM      6  C   LIG    1        1.178  -0.691   0.017  0.00  0.00    +0.050 A 
ATOM      7  C   LIG    1        0.003  -0.004   0.046  0.00  0.00    +0.040 A 
ATOM      8  C   LIG    1       -0.016   1.388   0.054  0.00  0.00    +0.030 A 
ATOM      9  C   LIG    1        1.145   2.103   0.033  0.00  0.00    +0.060 A 
ATOM     10  C   LIG    1        2.371   1.429   0.002  0.00  0.00    -0.060 A 
ENDROOT
BRANCH   3  11
ATOM     11  C   LIG    1        5.968  -0.797  -0.088  0.00  0.00    -0.040 A 
ATOM     12  C   LIG    1        7.205  -0.154  -0.117  0.00  0.00    +0.030 A 
ATOM     13  C   LIG    1        8.367  -0.899  -0.140  0.00  0.00    +0.050 A 
ATOM     14  C   LIG    1        8.305  -2.282  -0.146  0.00  0.00    -0.080 A 
ATOM     15  C   LIG    1        7.079  -2.925  -0.123  0.00  0.00    +0.050 A 
ATOM     16 BR   LIG    1        9.900  -3.296  -0.188  0.00  0.00    -0.040 Br
ATOM     17  C   LIG    1        5.912  -2.190  -0.094  0.00  0.00    +0.080 A 
ENDBRANCH   3  11
BRANCH   1  19
ATOM     18  O   LIG    1        2.652   4.270  -0.093  0.00  0.00    -0.480 OA
ATOM     19  C   LIG    1        3.684   3.632  -0.014  0.00  0.00    +0.590 C 
ATOM     20  N   LIG    1        4.867   4.272   0.080  0.00  0.00    -0.570 N 
ATOM     21  H   LIG    1        5.690   3.762   0.143  0.00  0.00    +0.390 HD
BRANCH  20  22
ATOM     22  N   LIG    1        4.907   5.672   0.087  0.00  0.00    -0.220 NA
ATOM     23  C   LIG    1        6.046   6.288   0.178  0.00  0.00    +0.240 C 
BRANCH  23  24
ATOM     24  C   LIG    1        6.088   7.762   0.186  0.00  0.00    -0.050 A 
ATOM     25  C   LIG    1        4.905   8.499   0.090  0.00  0.00    +0.130 A 
ATOM     26  C   LIG    1        4.952   9.877   0.103  0.00  0.00    +0.040 A 
ATOM     27  C   LIG    1        6.168  10.530   0.200  0.00  0.00    +0.120 A 
ATOM     28  C   LIG    1        7.345   9.807   0.290  0.00  0.00    -0.050 A 
ATOM     29  C   LIG    1        7.313   8.428   0.283  0.00  0.00    +0.130 A 
BRANCH  28  30
ATOM     30  N   LIG    1        8.640  10.515   0.393  0.00  0.00    +0.030 N 
ATOM     31  O   LIG    1        8.671  11.733   0.398  0.00  0.00    -0.150 OA
ATOM     32  O   LIG    1        9.677   9.880   0.471  0.00  0.00    -0.160 OA
ENDBRANCH  28  30
ENDBRANCH  23  24
ENDBRANCH  20  22
ENDBRANCH   1  19
TORSDOF 5
