REMARK  Name = ZINCpk00000KfKtb.0
REMARK                            x       y       z     vdW  Elec       q    Type
REMARK                         _______ _______ _______ _____ _____    ______ ____
ROOT
ATOM      1  C   LIG    1        1.179  -1.089   0.502  0.00  0.00    +0.290 C 
ENDROOT
BRANCH   1   2
ATOM      2  N   LIG    1        1.530  -1.772  -0.746  0.00  0.00    -0.710 N 
ATOM      3  H   LIG    1        2.461  -1.922  -0.972  0.00  0.00    +0.410 HD
ATOM      4  C   LIG    1        0.558  -2.193  -1.579  0.00  0.00    +0.500 C 
ATOM      5  O   LIG    1       -0.607  -2.005  -1.297  0.00  0.00    -0.510 OA
BRANCH   4   6
ATOM      6  C   LIG    1        0.918  -2.896  -2.863  0.00  0.00    +0.240 C 
ATOM      7  C   LIG    1        1.252  -4.378  -2.585  0.00  0.00    +0.080 C 
ATOM      8  C   LIG    1       -0.114  -5.060  -2.827  0.00  0.00    +0.060 C 
ATOM      9  C   LIG    1       -0.837  -4.120  -3.766  0.00  0.00    +0.530 C 
ATOM     10  O   LIG    1       -1.818  -4.408  -4.419  0.00  0.00    -0.520 OA
ATOM     11  N   LIG    1       -0.235  -2.918  -3.771  0.00  0.00    -0.710 N 
ATOM     12  H   LIG    1       -0.526  -2.162  -4.305  0.00  0.00    +0.420 HD
ENDBRANCH   4   6
ENDBRANCH   1   2
BRANCH   1  13
ATOM     13  C   LIG    1        0.902  -2.111   1.574  0.00  0.00    +0.450 C 
ATOM     14  O   LIG    1        0.987  -3.290   1.321  0.00  0.00    -0.500 OA
BRANCH  13  16
ATOM     15  C   LIG    1        0.306  -2.752   3.791  0.00  0.00    +0.260 C 
ATOM     16  O   LIG    1        0.559  -1.712   2.809  0.00  0.00    -0.360 OA
ENDBRANCH  13  16
ENDBRANCH   1  13
BRANCH   1  17
ATOM     17  C   LIG    1        2.343  -0.196   0.938  0.00  0.00    +0.060 C 
BRANCH  17  18
ATOM     18  C   LIG    1        2.512   0.947  -0.065  0.00  0.00    +0.050 C 
ATOM     19  C   LIG    1        2.934   0.373  -1.416  0.00  0.00    +0.020 C 
ATOM     20  C   LIG    1        3.307   1.538  -2.341  0.00  0.00    +0.020 C 
ATOM     21  C   LIG    1        4.608   2.157  -1.835  0.00  0.00    +0.070 C 
ATOM     22  C   LIG    1        4.509   2.470  -0.365  0.00  0.00    -0.070 A 
ATOM     23  C   LIG    1        5.433   3.358   0.171  0.00  0.00    +0.000 A 
ATOM     24  C   LIG    1        5.400   3.679   1.512  0.00  0.00    +0.000 A 
ATOM     25  C   LIG    1        4.437   3.118   2.329  0.00  0.00    +0.000 A 
ATOM     26  C   LIG    1        3.520   2.234   1.799  0.00  0.00    +0.000 A 
ATOM     27  C   LIG    1        3.551   1.909   0.450  0.00  0.00    -0.070 A 
ENDBRANCH  17  18
ENDBRANCH   1  17
TORSDOF 6
