REMARK  Name = ZINCpk00000KfKBe.0
REMARK                            x       y       z     vdW  Elec       q    Type
REMARK                         _______ _______ _______ _____ _____    ______ ____
ROOT
ATOM      1  N   LIG    1       -1.362   7.931  -0.928  0.00  0.00    -0.720 N 
ATOM      2  H   LIG    1       -2.080   7.373  -0.591  0.00  0.00    +0.400 HD
ATOM      3  C   LIG    1       -0.235   7.364  -1.403  0.00  0.00    +0.490 C 
ATOM      4  O   LIG    1        0.664   8.062  -1.824  0.00  0.00    -0.520 OA
ENDROOT
BRANCH   1   9
ATOM      5  N   LIG    1       -2.175  11.319  -2.271  0.00  0.00    -0.460 N 
ATOM      6  C   LIG    1       -3.164  11.735  -1.268  0.00  0.00    +0.190 C 
ATOM      7  C   LIG    1       -2.686  11.321   0.125  0.00  0.00    +0.050 C 
ATOM      8  C   LIG    1       -2.500   9.802   0.164  0.00  0.00    +0.020 C 
ATOM      9  C   LIG    1       -1.502   9.389  -0.921  0.00  0.00    +0.250 C 
ATOM     10  C   LIG    1       -2.015   9.860  -2.284  0.00  0.00    +0.190 C 
BRANCH   5  15
ATOM     11  C   LIG    1       -3.532  13.033  -7.412  0.00  0.00    +0.140 C 
ATOM     12  C   LIG    1       -3.168  12.623  -6.008  0.00  0.00    +0.040 A 
ATOM     13  C   LIG    1       -3.050  13.582  -5.013  0.00  0.00    +0.050 A 
ATOM     14  C   LIG    1       -2.714  13.159  -3.737  0.00  0.00    +0.020 A 
ATOM     15  C   LIG    1       -2.514  11.795  -3.533  0.00  0.00    +0.250 A 
ATOM     16  N   LIG    1       -2.644  10.953  -4.548  0.00  0.00    -0.280 NA
ATOM     17  N   LIG    1       -2.962  11.351  -5.726  0.00  0.00    -0.220 NA
ENDBRANCH   5  15
ENDBRANCH   1   9
BRANCH   3  18
ATOM     18  C   LIG    1       -0.090   5.864  -1.410  0.00  0.00    +0.230 C 
BRANCH  18  19
ATOM     19  O   LIG    1        1.130   5.506  -2.061  0.00  0.00    -0.530 OA
ATOM     20  H   LIG    1        1.922   5.867  -1.639  0.00  0.00    +0.380 HD
ENDBRANCH  18  19
BRANCH  18  21
ATOM     21  C   LIG    1       -0.070   5.347   0.030  0.00  0.00    +0.060 C 
BRANCH  21  22
ATOM     22  C   LIG    1       -0.050   3.840   0.022  0.00  0.00    -0.080 A 
ATOM     23  C   LIG    1        1.156   3.165   0.008  0.00  0.00    +0.020 A 
ATOM     24  C   LIG    1        1.175   1.783   0.000  0.00  0.00    +0.000 A 
ATOM     25  C   LIG    1       -0.013   1.076   0.008  0.00  0.00    +0.000 A 
ATOM     26  C   LIG    1       -1.219   1.751   0.017  0.00  0.00    +0.000 A 
ATOM     27  C   LIG    1       -1.238   3.133   0.029  0.00  0.00    +0.000 A 
ENDBRANCH  21  22
ENDBRANCH  18  21
ENDBRANCH   3  18
TORSDOF 6
