REMARK  Name = ZINCqH0000006YPa.0
REMARK                            x       y       z     vdW  Elec       q    Type
REMARK                         _______ _______ _______ _____ _____    ______ ____
ROOT
ATOM      1  N   LIG    1        1.143   1.898   0.001  0.00  0.00    -0.620 N 
ATOM      2  H   LIG    1        1.130   2.868   0.007  0.00  0.00    +0.430 HD
ATOM      3  C   LIG    1       -0.014   1.209   0.009  0.00  0.00    +0.520 C 
ATOM      4  O   LIG    1        0.002  -0.004   0.002  0.00  0.00    -0.470 OA
ENDROOT
BRANCH   1   8
ATOM      5  C   LIG    1        4.578   0.970  -0.037  0.00  0.00    +0.140 A 
ATOM      6  C   LIG    1        4.295  -0.345  -0.042  0.00  0.00    -0.110 A 
ATOM      7  S   LIG    1        2.543  -0.531  -0.026  0.00  0.00    +0.210 S 
ATOM      8  C   LIG    1        2.356   1.220  -0.014  0.00  0.00    +0.270 A 
ATOM      9  N   LIG    1        3.527   1.778  -0.027  0.00  0.00    -0.500 NA
BRANCH   5  13
ATOM     10  C   LIG    1        8.571   2.437  -0.068  0.00  0.00    +0.140 A 
ATOM     11  C   LIG    1        7.506   3.327  -0.053  0.00  0.00    -0.020 A 
ATOM     12  C   LIG    1        6.210   2.855  -0.043  0.00  0.00    +0.090 A 
ATOM     13  C   LIG    1        5.970   1.482  -0.048  0.00  0.00    -0.060 A 
ATOM     14  C   LIG    1        7.042   0.590  -0.058  0.00  0.00    +0.070 A 
ATOM     15  C   LIG    1        8.335   1.069  -0.073  0.00  0.00    -0.080 A 
BRANCH  10  17
ATOM     16  C   LIG    1       10.894   1.934  -0.092  0.00  0.00    +0.250 C 
ATOM     17  O   LIG    1        9.847   2.905  -0.077  0.00  0.00    -0.320 OA
ENDBRANCH  10  17
ENDBRANCH   5  13
ENDBRANCH   1   8
BRANCH   3  18
ATOM     18  C   LIG    1       -1.330   1.944   0.019  0.00  0.00    +0.270 C 
BRANCH  18  19
ATOM     19  O   LIG    1       -2.403   1.001   0.019  0.00  0.00    -0.280 OA
BRANCH  19  20
ATOM     20  C   LIG    1       -3.664   1.503   0.028  0.00  0.00    +0.160 A 
ATOM     21  C   LIG    1       -3.863   2.878   0.042  0.00  0.00    -0.070 A 
ATOM     22  C   LIG    1       -5.141   3.392   0.045  0.00  0.00    +0.110 A 
ATOM     23  C   LIG    1       -6.239   2.527   0.045  0.00  0.00    -0.060 A 
ATOM     24  C   LIG    1       -6.035   1.145   0.037  0.00  0.00    +0.110 A 
ATOM     25  C   LIG    1       -4.753   0.640   0.028  0.00  0.00    +0.010 A 
BRANCH  23  26
ATOM     26  C   LIG    1       -7.570   3.056   0.055  0.00  0.00    +0.250 C 
ATOM     27  N   LIG    1       -8.625   3.476   0.063  0.00  0.00    -0.410 NA
ENDBRANCH  23  26
ENDBRANCH  19  20
ENDBRANCH  18  19
ENDBRANCH   3  18
TORSDOF 7
