REMARK  Name = ZINCtV00000R37vQ.0
REMARK                            x       y       z     vdW  Elec       q    Type
REMARK                         _______ _______ _______ _____ _____    ______ ____
ROOT
ATOM      1  C   LIG    1       -1.254  -0.752   0.010  0.00  0.00    -0.190 A 
ATOM      2  C   LIG    1       -1.920  -1.129  -1.127  0.00  0.00    +0.050 A 
ATOM      3  S   LIG    1       -3.342  -1.987  -0.746  0.00  0.00    +0.330 S 
ATOM      4  C   LIG    1       -3.066  -1.842   0.981  0.00  0.00    -0.090 A 
ATOM      5  C   LIG    1       -1.934  -1.171   1.225  0.00  0.00    -0.010 A 
ENDROOT
BRANCH   5   6
ATOM      6  C   LIG    1       -1.428  -0.884   2.588  0.00  0.00    -0.030 A 
ATOM      7  C   LIG    1       -0.107  -1.180   2.921  0.00  0.00    +0.050 A 
ATOM      8  C   LIG    1        0.360  -0.907   4.190  0.00  0.00    +0.030 A 
ATOM      9  C   LIG    1       -0.483  -0.349   5.136  0.00  0.00    -0.030 A 
ATOM     10  C   LIG    1       -1.798  -0.058   4.812  0.00  0.00    +0.030 A 
ATOM     11 CL   LIG    1        0.109  -0.014   6.733  0.00  0.00    -0.070 Cl
ATOM     12  C   LIG    1       -2.274  -0.323   3.545  0.00  0.00    +0.050 A 
ENDBRANCH   5   6
BRANCH   2  13
ATOM     13  N   LIG    1       -1.492  -0.853  -2.414  0.00  0.00    -0.630 N 
ATOM     14  H   LIG    1       -0.669  -0.360  -2.556  0.00  0.00    +0.420 HD
ATOM     15  C   LIG    1       -2.220  -1.268  -3.470  0.00  0.00    +0.550 C 
ATOM     16  O   LIG    1       -3.253  -1.887  -3.291  0.00  0.00    -0.500 OA
BRANCH  15  17
ATOM     17  C   LIG    1       -1.768  -0.976  -4.830  0.00  0.00    -0.080 C 
ATOM     18  C   LIG    1       -2.497  -1.392  -5.887  0.00  0.00    +0.150 C 
BRANCH  18  19
ATOM     19  C   LIG    1       -2.042  -1.098  -7.255  0.00  0.00    -0.080 A 
ATOM     20  C   LIG    1       -0.859  -0.383  -7.464  0.00  0.00    +0.050 A 
ATOM     21  C   LIG    1       -0.436  -0.117  -8.749  0.00  0.00    +0.020 A 
ATOM     22  C   LIG    1       -1.186  -0.544  -9.831  0.00  0.00    +0.050 A 
ATOM     23  C   LIG    1       -2.361  -1.247  -9.634  0.00  0.00    +0.030 A 
ATOM     24  C   LIG    1       -2.795  -1.527  -8.354  0.00  0.00    -0.010 A 
ATOM     25 CL   LIG    1       -4.270  -2.409  -8.108  0.00  0.00    -0.050 Cl
ENDBRANCH  18  19
ENDBRANCH  15  17
ENDBRANCH   2  13
BRANCH   1  26
ATOM     26  C   LIG    1        0.002  -0.004   0.002  0.00  0.00    +0.540 C 
ATOM     27  O   LIG    1        1.064  -0.598  -0.011  0.00  0.00    -0.490 OA
BRANCH  26  28
ATOM     28  O   LIG    1       -0.016   1.345   0.009  0.00  0.00    -0.340 OA
BRANCH  28  30
ATOM     29  C   LIG    1        1.027   3.525   0.011  0.00  0.00    +0.070 C 
ATOM     30  C   LIG    1        1.248   2.011   0.001  0.00  0.00    +0.200 C 
ENDBRANCH  28  30
ENDBRANCH  26  28
ENDBRANCH   1  26
TORSDOF 7
