REMARK  Name = ZINCrH00000No4Rn.0
REMARK                            x       y       z     vdW  Elec       q    Type
REMARK                         _______ _______ _______ _____ _____    ______ ____
ROOT
ATOM      1  C   LIG    1        3.496   7.357  -0.308  0.00  0.00    +0.120 C 
ATOM      2  C   LIG    1        3.540   6.011  -0.213  0.00  0.00    -0.070 C 
ENDROOT
BRANCH   1   6
ATOM      3  C   LIG    1        7.099   9.575  -0.651  0.00  0.00    +0.090 A 
ATOM      4  C   LIG    1        7.144   8.190  -0.554  0.00  0.00    -0.020 A 
ATOM      5  C   LIG    1        5.976   7.466  -0.442  0.00  0.00    +0.030 A 
ATOM      6  C   LIG    1        4.743   8.126  -0.427  0.00  0.00    -0.030 A 
ATOM      7  C   LIG    1        4.699   9.522  -0.531  0.00  0.00    -0.020 A 
ATOM      8 CL   LIG    1        8.674   7.370  -0.572  0.00  0.00    -0.040 Cl
ATOM      9  C   LIG    1        5.874  10.240  -0.637  0.00  0.00    +0.120 A 
BRANCH   9  10
ATOM     10  O   LIG    1        5.835  11.596  -0.732  0.00  0.00    -0.300 OA
ATOM     11  C   LIG    1        4.545  12.211  -0.711  0.00  0.00    +0.250 C 
ENDBRANCH   9  10
BRANCH   3  12
ATOM     12  O   LIG    1        8.253  10.284  -0.761  0.00  0.00    -0.310 OA
BRANCH  12  13
ATOM     13  C   LIG    1        8.740  10.532  -2.081  0.00  0.00    +0.180 C 
BRANCH  13  15
ATOM     14  C   LIG    1       10.559  11.602  -3.418  0.00  0.00    +0.030 C 
ATOM     15  C   LIG    1       10.038  11.338  -2.004  0.00  0.00    +0.020 C 
ENDBRANCH  13  15
ENDBRANCH  12  13
ENDBRANCH   3  12
ENDBRANCH   1   6
BRANCH   2  16
ATOM     16  C   LIG    1        2.300   5.245  -0.095  0.00  0.00    +0.550 C 
ATOM     17  N   LIG    1        2.344   3.901  -0.000  0.00  0.00    -0.650 N 
ATOM     18  H   LIG    1        3.199   3.447   0.058  0.00  0.00    +0.410 HD
ATOM     19  O   LIG    1        1.228   5.822  -0.082  0.00  0.00    -0.510 OA
BRANCH  17  20
ATOM     20  C   LIG    1        1.155   3.161   0.013  0.00  0.00    +0.010 A 
ATOM     21  C   LIG    1        0.914   2.220  -0.951  0.00  0.00    +0.000 A 
ATOM     22  C   LIG    1       -0.284   1.494  -0.914  0.00  0.00    -0.070 A 
ATOM     23  C   LIG    1       -1.189   1.729   0.064  0.00  0.00    +0.300 A 
ATOM     24  N   LIG    1       -0.949   2.660   1.025  0.00  0.00    -0.500 N 
ATOM     25  C   LIG    1       -1.945   2.889   2.075  0.00  0.00    +0.320 C 
ATOM     26  C   LIG    1        1.926   1.968  -2.039  0.00  0.00    +0.120 C 
ATOM     27  C   LIG    1        0.191   3.377   1.022  0.00  0.00    +0.520 A 
ATOM     28  O   LIG    1        0.390   4.212   1.889  0.00  0.00    -0.530 OA
ENDBRANCH  17  20
ENDBRANCH   2  16
TORSDOF 7
