REMARK  Name = ZINCpe000000WSJH.0
REMARK                            x       y       z     vdW  Elec       q    Type
REMARK                         _______ _______ _______ _____ _____    ______ ____
ROOT
ATOM      1  N   LIG    1       -5.299   1.307  -5.144  0.00  0.00    -0.360 N 
ATOM      2  N   LIG    1       -4.712   1.298  -6.285  0.00  0.00    +0.120 NA
ATOM      3  N   LIG    1       -5.126   0.653  -7.313  0.00  0.00    -0.230 NA
ATOM      4  C   LIG    1       -6.244  -0.089  -7.280  0.00  0.00    +0.270 A 
ATOM      5  C   LIG    1       -6.968  -0.150  -6.076  0.00  0.00    -0.300 A 
ATOM      6  C   LIG    1       -8.079  -0.979  -6.298  0.00  0.00    +0.350 A 
ATOM      7  N   LIG    1       -8.043  -1.394  -7.535  0.00  0.00    -0.240 NA
ATOM      8  N   LIG    1       -6.916  -0.860  -8.175  0.00  0.00    -0.280 N 
ATOM      9  C   LIG    1       -6.438   0.604  -4.938  0.00  0.00    +0.550 A 
ATOM     10  O   LIG    1       -6.999   0.603  -3.857  0.00  0.00    -0.490 OA
ENDROOT
BRANCH   8  11
ATOM     11  C   LIG    1       -6.545  -1.084  -9.507  0.00  0.00    +0.130 A 
ATOM     12  C   LIG    1       -5.947  -0.069 -10.242  0.00  0.00    +0.030 A 
ATOM     13  C   LIG    1       -5.578  -0.294 -11.554  0.00  0.00    +0.040 A 
ATOM     14  C   LIG    1       -5.813  -1.525 -12.138  0.00  0.00    +0.020 A 
ATOM     15  C   LIG    1       -6.414  -2.535 -11.411  0.00  0.00    +0.040 A 
ATOM     16  C   LIG    1       -6.780  -2.319 -10.097  0.00  0.00    +0.040 A 
ENDBRANCH   8  11
BRANCH   1  17
ATOM     17  C   LIG    1       -4.724   2.086  -4.044  0.00  0.00    +0.370 C 
BRANCH  17  20
ATOM     18  N   LIG    1       -3.113   1.732  -2.201  0.00  0.00    -0.720 N 
ATOM     19  H   LIG    1       -3.261   2.653  -1.936  0.00  0.00    +0.410 HD
ATOM     20  C   LIG    1       -3.765   1.223  -3.266  0.00  0.00    +0.510 C 
ATOM     21  O   LIG    1       -3.579   0.071  -3.597  0.00  0.00    -0.520 OA
BRANCH  18  23
ATOM     22  C   LIG    1       -2.953   0.085  -0.400  0.00  0.00    +0.020 C 
ATOM     23  C   LIG    1       -2.180   0.893  -1.445  0.00  0.00    +0.260 C 
BRANCH  23  24
ATOM     24  C   LIG    1       -1.150   1.781  -0.743  0.00  0.00    -0.060 C 
ATOM     25  C   LIG    1       -0.013   1.086   0.008  0.00  0.00    +0.030 C 
ATOM     26  C   LIG    1       -1.136   1.773   0.788  0.00  0.00    +0.020 C 
ENDBRANCH  23  24
ENDBRANCH  18  23
ENDBRANCH  17  20
ENDBRANCH   1  17
TORSDOF 5
