REMARK  Name = ZINCqH0000037aX7.0
REMARK                            x       y       z     vdW  Elec       q    Type
REMARK                         _______ _______ _______ _____ _____    ______ ____
ROOT
ATOM      1  C   LIG    1       -4.210  -3.300  -0.697  0.00  0.00    +0.060 C 
ENDROOT
BRANCH   1   4
ATOM      2  N   LIG    1       -5.011  -5.597  -0.248  0.00  0.00    -0.730 N 
ATOM      3  H   LIG    1       -5.918  -5.255  -0.285  0.00  0.00    +0.400 HD
ATOM      4  C   LIG    1       -3.968  -4.764  -0.432  0.00  0.00    +0.510 C 
ATOM      5  O   LIG    1       -2.834  -5.192  -0.385  0.00  0.00    -0.530 OA
BRANCH   2   7
ATOM      6  C   LIG    1       -4.584  -7.241   1.512  0.00  0.00    +0.040 C 
ATOM      7  C   LIG    1       -4.776  -7.020   0.010  0.00  0.00    +0.290 C 
BRANCH   7   8
ATOM      8  C   LIG    1       -5.960  -7.820  -0.469  0.00  0.00    -0.080 A 
ATOM      9  C   LIG    1       -7.212  -7.238  -0.518  0.00  0.00    +0.020 A 
ATOM     10  C   LIG    1       -8.298  -7.971  -0.962  0.00  0.00    +0.020 A 
ATOM     11  C   LIG    1       -8.132  -9.288  -1.347  0.00  0.00    +0.020 A 
ATOM     12  C   LIG    1       -6.881  -9.872  -1.294  0.00  0.00    +0.040 A 
ATOM     13  C   LIG    1       -5.793  -9.138  -0.855  0.00  0.00    -0.030 A 
ATOM     14 CL   LIG    1       -4.221  -9.871  -0.787  0.00  0.00    -0.060 Cl
ENDBRANCH   7   8
ENDBRANCH   2   7
ENDBRANCH   1   4
BRANCH   1  15
ATOM     15  C   LIG    1       -2.869  -2.584  -0.868  0.00  0.00    +0.070 C 
BRANCH  15  16
ATOM     16  C   LIG    1       -3.115  -1.098  -1.137  0.00  0.00    +0.120 C 
BRANCH  16  17
ATOM     17  C   LIG    1       -1.794  -0.392  -1.305  0.00  0.00    +0.390 A 
ATOM     18  N   LIG    1       -0.705  -1.092  -1.206  0.00  0.00    -0.510 NA
ATOM     19  C   LIG    1        0.519  -0.526  -1.346  0.00  0.00    +0.150 A 
ATOM     20  C   LIG    1        1.691  -1.278  -1.239  0.00  0.00    +0.030 A 
ATOM     21  C   LIG    1        2.913  -0.661  -1.388  0.00  0.00    +0.070 A 
ATOM     22  C   LIG    1        2.996   0.701  -1.643  0.00  0.00    -0.010 A 
ATOM     23  C   LIG    1        1.854   1.464  -1.753  0.00  0.00    +0.100 A 
ATOM     24  C   LIG    1        0.608   0.860  -1.606  0.00  0.00    -0.200 A 
ATOM     25  C   LIG    1       -0.644   1.625  -1.706  0.00  0.00    +0.550 A 
ATOM     26  O   LIG    1       -0.639   2.821  -1.928  0.00  0.00    -0.510 OA
ATOM     27  N   LIG    1       -1.804   0.944  -1.552  0.00  0.00    -0.650 N 
ATOM     28  H   LIG    1       -2.650   1.414  -1.615  0.00  0.00    +0.420 HD
ENDBRANCH  16  17
ENDBRANCH  15  16
ENDBRANCH   1  15
TORSDOF 6
