REMARK  Name = ZINCvU0000000HvE.0
REMARK                            x       y       z     vdW  Elec       q    Type
REMARK                         _______ _______ _______ _____ _____    ______ ____
ROOT
ATOM      1  C   LIG    1       -0.911   5.711   1.629  0.00  0.00    +0.080 A 
ATOM      2  C   LIG    1       -1.424   4.827   2.564  0.00  0.00    +0.010 A 
ATOM      3  C   LIG    1       -1.350   3.459   2.339  0.00  0.00    +0.140 A 
ATOM      4  C   LIG    1       -0.750   2.976   1.179  0.00  0.00    +0.090 A 
ATOM      5  C   LIG    1       -0.236   3.860   0.245  0.00  0.00    +0.000 A 
ATOM      6  C   LIG    1       -0.316   5.227   0.467  0.00  0.00    +0.150 A 
ENDROOT
BRANCH   3   7
ATOM      7  N   LIG    1       -1.875   2.565   3.282  0.00  0.00    -0.660 N 
ATOM      8  H   LIG    1       -1.440   1.711   3.435  0.00  0.00    +0.410 HD
ATOM      9  C   LIG    1       -2.983   2.891   3.976  0.00  0.00    +0.560 C 
ATOM     10  O   LIG    1       -3.478   3.994   3.849  0.00  0.00    -0.520 OA
BRANCH   9  11
ATOM     11  C   LIG    1       -3.597   1.907   4.893  0.00  0.00    -0.140 A 
ATOM     12  C   LIG    1       -3.035   0.637   5.037  0.00  0.00    +0.050 A 
ATOM     13  C   LIG    1       -3.611  -0.274   5.898  0.00  0.00    +0.000 A 
ATOM     14  C   LIG    1       -4.748   0.064   6.609  0.00  0.00    +0.040 A 
ATOM     15  C   LIG    1       -5.313   1.319   6.467  0.00  0.00    +0.000 A 
ATOM     16  C   LIG    1       -4.745   2.241   5.613  0.00  0.00    +0.080 A 
ENDBRANCH   9  11
ENDBRANCH   3   7
BRANCH   6  17
ATOM     17  N   LIG    1        0.203   6.122  -0.480  0.00  0.00    -0.660 N 
ATOM     18  H   LIG    1        0.482   7.010  -0.206  0.00  0.00    +0.420 HD
ATOM     19  C   LIG    1        0.315   5.749  -1.770  0.00  0.00    +0.520 C 
ATOM     20  O   LIG    1       -0.125   4.678  -2.132  0.00  0.00    -0.520 OA
BRANCH  19  21
ATOM     21  C   LIG    1        0.988   6.662  -2.763  0.00  0.00    +0.070 C 
BRANCH  21  22
ATOM     22  C   LIG    1        0.982   6.005  -4.145  0.00  0.00    +0.060 C 
ATOM     23  C   LIG    1       -0.460   5.864  -4.636  0.00  0.00    +0.040 C 
BRANCH  22  24
ATOM     24  C   LIG    1        1.761   6.860  -5.111  0.00  0.00    -0.080 A 
ATOM     25  C   LIG    1        1.360   8.159  -5.362  0.00  0.00    +0.000 A 
ATOM     26  C   LIG    1        2.077   8.945  -6.245  0.00  0.00    +0.000 A 
ATOM     27  C   LIG    1        3.189   8.429  -6.883  0.00  0.00    +0.000 A 
ATOM     28  C   LIG    1        3.587   7.128  -6.636  0.00  0.00    +0.000 A 
ATOM     29  C   LIG    1        2.872   6.344  -5.750  0.00  0.00    +0.000 A 
ENDBRANCH  22  24
ENDBRANCH  21  22
ENDBRANCH  19  21
ENDBRANCH   6  17
BRANCH   1  31
ATOM     30  C   LIG    1       -1.612   7.477   3.060  0.00  0.00    +0.240 C 
ATOM     31  O   LIG    1       -0.989   7.051   1.847  0.00  0.00    -0.320 OA
ENDBRANCH   1  31
BRANCH   4  32
ATOM     32  O   LIG    1       -0.672   1.635   0.962  0.00  0.00    -0.320 OA
ATOM     33  C   LIG    1       -0.048   1.210  -0.252  0.00  0.00    +0.240 C 
ENDBRANCH   4  32
TORSDOF 8
