REMARK  Name = ZINCpk000004NCfd.0
REMARK                            x       y       z     vdW  Elec       q    Type
REMARK                         _______ _______ _______ _____ _____    ______ ____
ROOT
ATOM      1  C   LIG    1       -1.770   4.144   0.039  0.00  0.00    +0.360 C 
ENDROOT
BRANCH   1   2
ATOM      2  N   LIG    1       -0.786   3.059   0.025  0.00  0.00    -0.560 N 
ATOM      3  C   LIG    1       -1.100   1.758   0.016  0.00  0.00    +0.710 C 
ATOM      4  N   LIG    1       -0.011   0.966   0.007  0.00  0.00    -0.710 N 
ATOM      5  H   LIG    1        0.002  -0.004   0.002  0.00  0.00    +0.440 HD
ATOM      6  C   LIG    1        1.153   1.861   0.001  0.00  0.00    +0.130 C 
ATOM      7  C   LIG    1        1.981   1.651  -1.262  0.00  0.00    +0.060 C 
ATOM      8  C   LIG    1        2.551   0.231  -1.270  0.00  0.00    +0.020 C 
ATOM      9  C   LIG    1        3.422   0.026  -0.029  0.00  0.00    +0.010 C 
ATOM     10  C   LIG    1        2.574   0.219   1.230  0.00  0.00    +0.020 C 
ATOM     11  C   LIG    1        2.004   1.639   1.247  0.00  0.00    +0.060 C 
ATOM     12  O   LIG    1       -2.241   1.338   0.019  0.00  0.00    -0.540 OA
ATOM     13  C   LIG    1        0.550   3.247   0.013  0.00  0.00    +0.540 C 
ATOM     14  O   LIG    1        1.142   4.305   0.013  0.00  0.00    -0.460 OA
ENDBRANCH   1   2
BRANCH   1  17
ATOM     15  N   LIG    1       -3.013   5.505  -1.610  0.00  0.00    -0.690 N 
ATOM     16  H   LIG    1       -3.430   5.969  -0.867  0.00  0.00    +0.400 HD
ATOM     17  C   LIG    1       -2.121   4.523  -1.377  0.00  0.00    +0.510 C 
ATOM     18  O   LIG    1       -1.600   3.944  -2.306  0.00  0.00    -0.520 OA
BRANCH  15  22
ATOM     19  C   LIG    1       -3.128   5.752  -6.482  0.00  0.00    +0.110 C 
ATOM     20  C   LIG    1       -3.425   5.999  -5.002  0.00  0.00    +0.070 C 
ATOM     21  C   LIG    1       -3.687   4.773  -4.041  0.00  0.00    +0.040 C 
ATOM     22  C   LIG    1       -3.354   5.874  -2.986  0.00  0.00    +0.110 C 
ATOM     23  C   LIG    1       -4.396   7.021  -3.223  0.00  0.00    +0.110 C 
ATOM     24  C   LIG    1       -3.912   8.347  -2.632  0.00  0.00    +0.060 C 
ATOM     25  C   LIG    1       -5.776   6.644  -2.682  0.00  0.00    +0.060 C 
ATOM     26  O   LIG    1       -4.385   7.050  -4.678  0.00  0.00    -0.340 OA
ATOM     27  C   LIG    1       -2.255   6.245  -4.018  0.00  0.00    +0.020 C 
ENDBRANCH  15  22
ENDBRANCH   1  17
TORSDOF 3
