REMARK  Name = ZINCrD000000CLII.0
REMARK                            x       y       z     vdW  Elec       q    Type
REMARK                         _______ _______ _______ _____ _____    ______ ____
ROOT
ATOM      1  C   LIG    1       -3.645   6.805   0.650  0.00  0.00    +0.570 C 
ATOM      2  N   LIG    1       -4.990   6.877   0.642  0.00  0.00    -0.610 N 
ATOM      3  C   LIG    1       -5.814   5.659   0.591  0.00  0.00    +0.250 C 
ATOM      4  C   LIG    1       -6.843   5.816  -0.535  0.00  0.00    +0.220 C 
ATOM      5  O   LIG    1       -7.544   7.050  -0.362  0.00  0.00    -0.370 OA
ATOM      6  C   LIG    1       -6.715   8.212  -0.447  0.00  0.00    +0.200 C 
ATOM      7  C   LIG    1       -5.680   8.176   0.689  0.00  0.00    +0.280 C 
ATOM      8  O   LIG    1       -2.982   7.818   0.761  0.00  0.00    -0.530 OA
ENDROOT
BRANCH   1  16
ATOM      9  O   LIG    1        0.056   0.025   0.002  0.00  0.00    -0.540 OA
ATOM     10  C   LIG    1       -0.172   1.162  -0.355  0.00  0.00    +0.530 C 
ATOM     11  C   LIG    1        0.733   1.725  -1.390  0.00  0.00    +0.070 C 
ATOM     12  C   LIG    1        0.986   3.198  -1.176  0.00  0.00    +0.040 C 
ATOM     13  C   LIG    1       -0.186   4.062  -1.526  0.00  0.00    +0.090 C 
ATOM     14  C   LIG    1       -1.291   4.096  -0.521  0.00  0.00    -0.120 A 
ATOM     15  C   LIG    1       -1.936   5.321  -0.385  0.00  0.00    +0.110 A 
ATOM     16  C   LIG    1       -2.975   5.495   0.523  0.00  0.00    -0.150 A 
ATOM     17  C   LIG    1       -3.377   4.415   1.314  0.00  0.00    +0.080 A 
ATOM     18  C   LIG    1       -2.745   3.209   1.175  0.00  0.00    -0.030 A 
ATOM     19  C   LIG    1       -1.696   3.025   0.253  0.00  0.00    +0.200 A 
ATOM     20  N   LIG    1       -1.188   1.752   0.209  0.00  0.00    -0.650 N 
ATOM     21  H   LIG    1       -1.717   1.133   0.736  0.00  0.00    +0.400 HD
ENDBRANCH   1  16
BRANCH   6  22
ATOM     22  C   LIG    1       -7.565   9.448  -0.314  0.00  0.00    -0.100 A 
ATOM     23  C   LIG    1       -8.608   9.475   0.593  0.00  0.00    +0.080 A 
ATOM     24  C   LIG    1       -9.386  10.610   0.719  0.00  0.00    -0.020 A 
ATOM     25  C   LIG    1       -9.127  11.718  -0.070  0.00  0.00    +0.110 A 
ATOM     26  C   LIG    1       -8.085  11.688  -0.982  0.00  0.00    -0.010 A 
ATOM     27  F   LIG    1       -9.889  12.827   0.049  0.00  0.00    -0.140 F 
ATOM     28  C   LIG    1       -7.305  10.554  -1.103  0.00  0.00    +0.070 A 
ENDBRANCH   6  22
TORSDOF 2
