REMARK  Name = ZINCpe00000MJKYP.0
REMARK                            x       y       z     vdW  Elec       q    Type
REMARK                         _______ _______ _______ _____ _____    ______ ____
ROOT
ATOM      1  C   LIG    1        2.761  -1.918  -1.216  0.00  0.00    +0.130 C 
ATOM      2  C   LIG    1        2.033  -1.532  -2.506  0.00  0.00    -0.010 C 
ATOM      3  C   LIG    1        2.963  -1.774  -3.699  0.00  0.00    +0.040 C 
ATOM      4  C   LIG    1        3.394  -3.242  -3.713  0.00  0.00    +0.170 C 
ATOM      5  N   LIG    1        4.086  -3.562  -2.458  0.00  0.00    -0.510 NA
ATOM      6  C   LIG    1        3.199  -3.382  -1.302  0.00  0.00    +0.210 C 
ENDROOT
BRANCH   1   7
ATOM      7  O   LIG    1        3.910  -1.086  -1.047  0.00  0.00    -0.530 OA
ATOM      8  H   LIG    1        3.707  -0.142  -0.987  0.00  0.00    +0.380 HD
ENDBRANCH   1   7
BRANCH   5   9
ATOM      9  C   LIG    1        4.636  -4.924  -2.492  0.00  0.00    +0.320 C 
BRANCH   9  10
ATOM     10  C   LIG    1        5.337  -5.149  -3.807  0.00  0.00    +0.240 A 
ATOM     11  N   LIG    1        4.782  -5.625  -4.892  0.00  0.00    -0.310 NA
ATOM     12  N   LIG    1        5.784  -5.669  -5.875  0.00  0.00    -0.330 N 
ATOM     13  C   LIG    1        6.908  -5.210  -5.291  0.00  0.00    +0.480 A 
ATOM     14  N   LIG    1        6.623  -4.902  -4.051  0.00  0.00    -0.510 NA
BRANCH  12  15
ATOM     15  C   LIG    1        5.644  -6.109  -7.198  0.00  0.00    +0.150 A 
ATOM     16  C   LIG    1        4.393  -6.464  -7.685  0.00  0.00    +0.030 A 
ATOM     17  C   LIG    1        4.258  -6.893  -8.991  0.00  0.00    +0.030 A 
ATOM     18  C   LIG    1        5.368  -6.978  -9.810  0.00  0.00    +0.010 A 
ATOM     19  C   LIG    1        6.616  -6.630  -9.327  0.00  0.00    +0.050 A 
ATOM     20  C   LIG    1        6.757  -6.196  -8.024  0.00  0.00    +0.000 A 
ENDBRANCH  12  15
ENDBRANCH   9  10
ENDBRANCH   5   9
BRANCH   1  21
ATOM     21  C   LIG    1        1.819  -1.736  -0.024  0.00  0.00    +0.310 C 
BRANCH  21  22
ATOM     22  N   LIG    1        1.307  -0.363  -0.012  0.00  0.00    -0.290 N 
ATOM     23  C   LIG    1        0.002  -0.004   0.002  0.00  0.00    +0.140 A 
ATOM     24  C   LIG    1       -0.016   1.349   0.009  0.00  0.00    +0.140 A 
ATOM     25  N   LIG    1        1.261   1.747  -0.001  0.00  0.00    -0.260 NA
ATOM     26  N   LIG    1        2.020   0.708  -0.013  0.00  0.00    -0.090 NA
ENDBRANCH  21  22
ENDBRANCH   1  21
TORSDOF 6
