REMARK  Name = ZINCqH0000037YA0.0
REMARK                            x       y       z     vdW  Elec       q    Type
REMARK                         _______ _______ _______ _____ _____    ______ ____
ROOT
ATOM      1  C   LIG    1        2.961  -5.179   4.733  0.00  0.00    +0.340 A 
ATOM      2  N   LIG    1        2.938  -6.397   5.198  0.00  0.00    -0.260 NA
ATOM      3  N   LIG    1        2.891  -7.277   4.108  0.00  0.00    -0.470 N 
ATOM      4  H   LIG    1        2.869  -8.246   4.154  0.00  0.00    +0.470 HD
ATOM      5  C   LIG    1        2.882  -6.531   2.985  0.00  0.00    +0.480 A 
ATOM      6  S   LIG    1        2.829  -7.123   1.379  0.00  0.00    -0.560 S 
ATOM      7  N   LIG    1        2.922  -5.235   3.354  0.00  0.00    -0.480 N 
ENDROOT
BRANCH   1  12
ATOM      8  C   LIG    1        3.175  -0.377   7.899  0.00  0.00    +0.100 C 
ATOM      9  C   LIG    1        3.119  -1.634   7.070  0.00  0.00    -0.050 A 
ATOM     10  C   LIG    1        2.682  -1.576   5.759  0.00  0.00    +0.020 A 
ATOM     11  C   LIG    1        2.628  -2.724   4.995  0.00  0.00    +0.030 A 
ATOM     12  C   LIG    1        3.017  -3.945   5.547  0.00  0.00    -0.050 A 
ATOM     13  C   LIG    1        3.453  -3.997   6.871  0.00  0.00    +0.080 A 
ATOM     14  C   LIG    1        3.507  -2.842   7.623  0.00  0.00    +0.020 A 
ENDBRANCH   1  12
BRANCH   7  15
ATOM     15  C   LIG    1        2.928  -4.084   2.448  0.00  0.00    +0.380 C 
BRANCH  15  16
ATOM     16  C   LIG    1        1.510  -3.673   2.148  0.00  0.00    +0.510 C 
ATOM     17  N   LIG    1        1.270  -2.628   1.331  0.00  0.00    -0.600 N 
ATOM     18  C   LIG    1        2.387  -1.894   0.733  0.00  0.00    +0.300 C 
ATOM     19  O   LIG    1        0.585  -4.281   2.643  0.00  0.00    -0.510 OA
BRANCH  17  20
ATOM     20  C   LIG    1       -0.109  -2.228   1.040  0.00  0.00    +0.290 C 
ATOM     21  C   LIG    1       -0.320  -2.190  -0.475  0.00  0.00    +0.040 C 
BRANCH  20  22
ATOM     22  C   LIG    1       -0.368  -0.861   1.618  0.00  0.00    -0.100 A 
ATOM     23  C   LIG    1        0.461   0.196   1.291  0.00  0.00    +0.010 A 
ATOM     24  C   LIG    1        0.223   1.450   1.820  0.00  0.00    +0.000 A 
ATOM     25  C   LIG    1       -0.845   1.648   2.676  0.00  0.00    +0.000 A 
ATOM     26  C   LIG    1       -1.673   0.591   3.004  0.00  0.00    +0.000 A 
ATOM     27  C   LIG    1       -1.435  -0.663   2.474  0.00  0.00    +0.020 A 
ENDBRANCH  20  22
ENDBRANCH  17  20
ENDBRANCH  15  16
ENDBRANCH   7  15
TORSDOF 5
