REMARK  Name = ZINCpe000000YEmY.0
REMARK                            x       y       z     vdW  Elec       q    Type
REMARK                         _______ _______ _______ _____ _____    ______ ____
ROOT
ATOM      1  C   LIG    1       -0.038   2.179   2.209  0.00  0.00    +0.600 C 
ATOM      2  N   LIG    1       -0.691   1.454   1.279  0.00  0.00    -0.600 N 
ATOM      3  C   LIG    1       -2.116   1.121   1.438  0.00  0.00    +0.240 C 
ATOM      4  C   LIG    1       -2.853   1.509   0.150  0.00  0.00    +0.220 C 
ATOM      5  O   LIG    1       -2.191   0.913  -0.969  0.00  0.00    -0.360 OA
ATOM      6  C   LIG    1       -0.844   1.340  -1.148  0.00  0.00    +0.150 C 
ATOM      7  C   LIG    1       -0.796   2.862  -1.372  0.00  0.00    +0.020 C 
ATOM      8  C   LIG    1        0.378   3.012  -2.364  0.00  0.00    +0.090 C 
ATOM      9  C   LIG    1        0.448   1.690  -3.098  0.00  0.00    -0.080 A 
ATOM     10  C   LIG    1        1.078   1.355  -4.284  0.00  0.00    +0.010 A 
ATOM     11  C   LIG    1        1.006   0.064  -4.770  0.00  0.00    +0.020 A 
ATOM     12  C   LIG    1        0.303  -0.898  -4.069  0.00  0.00    +0.010 A 
ATOM     13  C   LIG    1       -0.326  -0.567  -2.885  0.00  0.00    +0.040 A 
ATOM     14  C   LIG    1       -0.255   0.727  -2.396  0.00  0.00    -0.090 A 
ATOM     15  C   LIG    1       -0.000   0.969   0.072  0.00  0.00    +0.300 C 
ATOM     16  O   LIG    1        1.159   2.365   2.105  0.00  0.00    -0.490 OA
ENDROOT
BRANCH   1  22
ATOM     17  C   LIG    1       -0.687   2.152   4.624  0.00  0.00    +0.060 A 
ATOM     18  N   LIG    1       -1.351   2.675   5.650  0.00  0.00    -0.410 NA
ATOM     19  C   LIG    1       -2.101   3.745   5.473  0.00  0.00    +0.260 A 
ATOM     20  C   LIG    1       -2.197   4.334   4.218  0.00  0.00    +0.270 A 
ATOM     21  N   LIG    1       -1.538   3.829   3.194  0.00  0.00    -0.410 NA
ATOM     22  C   LIG    1       -0.779   2.751   3.359  0.00  0.00    +0.100 A 
BRANCH  17  26
ATOM     23  N   LIG    1        0.162   0.315   6.010  0.00  0.00    -0.830 N 
ATOM     24  H   LIG    1        0.711  -0.474   6.136  0.00  0.00    +0.410 HD
ATOM     25  H   LIG    1       -0.381   0.651   6.740  0.00  0.00    +0.410 HD
ATOM     26  C   LIG    1        0.153   0.946   4.818  0.00  0.00    +0.570 C 
ATOM     27  O   LIG    1        0.833   0.525   3.903  0.00  0.00    -0.500 OA
ENDBRANCH  17  26
ENDBRANCH   1  22
TORSDOF 2
