REMARK  Name = ZINCah0000002BFJ.0
REMARK                            x       y       z     vdW  Elec       q    Type
REMARK                         _______ _______ _______ _____ _____    ______ ____
ROOT
ATOM      1  C   LIG    1       -1.228   2.025   0.019  0.00  0.00    +0.140 A 
ATOM      2  C   LIG    1       -0.016   1.347   0.009  0.00  0.00    +0.050 A 
ATOM      3  C   LIG    1        1.173   2.055   0.002  0.00  0.00    +0.010 A 
ATOM      4  C   LIG    1        1.158   3.438   0.009  0.00  0.00    +0.010 A 
ATOM      5  C   LIG    1       -0.045   4.121   0.025  0.00  0.00    +0.050 A 
ATOM      6  F   LIG    1       -0.055   5.472   0.032  0.00  0.00    -0.140 F 
ATOM      7  F   LIG    1        0.002  -0.004   0.002  0.00  0.00    -0.140 F 
ATOM      8  C   LIG    1       -1.243   3.418   0.032  0.00  0.00    +0.140 A 
ENDROOT
BRANCH   1   9
ATOM      9  N   LIG    1       -2.434   1.309   0.021  0.00  0.00    -0.870 N 
ATOM     10  H   LIG    1       -3.280   1.784   0.027  0.00  0.00    +0.400 HD
ATOM     11  H   LIG    1       -2.422   0.339   0.015  0.00  0.00    +0.410 HD
ENDBRANCH   1   9
BRANCH   8  12
ATOM     12  N   LIG    1       -2.463   4.108   0.048  0.00  0.00    -0.870 N 
ATOM     13  H   LIG    1       -3.299   3.615   0.053  0.00  0.00    +0.400 HD
ATOM     14  H   LIG    1       -2.472   5.078   0.053  0.00  0.00    +0.410 HD
ENDBRANCH   8  12
TORSDOF 2
