REMARK  Name = ZINCrD000000C5Jk.0
REMARK                            x       y       z     vdW  Elec       q    Type
REMARK                         _______ _______ _______ _____ _____    ______ ____
ROOT
ATOM      1  O   LIG    1        3.143   6.819  -2.693  0.00  0.00    -0.520 OA
ATOM      2  C   LIG    1        4.311   6.906  -3.023  0.00  0.00    +0.600 C 
ATOM      3  N   LIG    1        5.201   5.986  -2.599  0.00  0.00    -0.670 N 
ATOM      4  H   LIG    1        6.117   6.016  -2.917  0.00  0.00    +0.410 HD
ENDROOT
BRANCH   3   5
ATOM      5  C   LIG    1        4.803   4.988  -1.703  0.00  0.00    +0.140 A 
ATOM      6  C   LIG    1        5.687   4.535  -0.732  0.00  0.00    +0.010 A 
ATOM      7  C   LIG    1        5.299   3.548   0.156  0.00  0.00    +0.030 A 
ATOM      8  C   LIG    1        4.030   3.012   0.087  0.00  0.00    +0.030 A 
ATOM      9  C   LIG    1        3.136   3.457  -0.889  0.00  0.00    -0.110 A 
ATOM     10  C   LIG    1        3.527   4.452  -1.784  0.00  0.00    +0.080 A 
BRANCH   9  11
ATOM     11  C   LIG    1        1.777   2.880  -0.969  0.00  0.00    +0.560 C 
ATOM     12  N   LIG    1        1.581   1.575  -0.692  0.00  0.00    -0.610 N 
ATOM     13  C   LIG    1        0.224   1.016  -0.643  0.00  0.00    +0.270 C 
ATOM     14  C   LIG    1        0.157  -0.197  -1.577  0.00  0.00    +0.010 C 
ATOM     15  C   LIG    1        1.260  -1.188  -1.199  0.00  0.00    +0.020 C 
ATOM     16  C   LIG    1        2.627  -0.523  -1.369  0.00  0.00    +0.010 C 
ATOM     17  C   LIG    1        2.722   0.686  -0.433  0.00  0.00    +0.260 C 
ATOM     18  O   LIG    1        0.836   3.582  -1.284  0.00  0.00    -0.530 OA
ENDBRANCH   9  11
ENDBRANCH   3   5
BRANCH   2  19
ATOM     19  C   LIG    1        4.752   8.016  -3.885  0.00  0.00    -0.290 A 
ATOM     20  C   LIG    1        3.958   9.026  -4.392  0.00  0.00    +0.350 A 
ATOM     21  N   LIG    1        4.747   9.828  -5.125  0.00  0.00    -0.370 N 
ATOM     22  N   LIG    1        6.052   9.325  -5.083  0.00  0.00    -0.280 NA
ATOM     23  C   LIG    1        6.068   8.251  -4.343  0.00  0.00    +0.290 A 
BRANCH  21  24
ATOM     24  C   LIG    1        4.315  11.028  -5.845  0.00  0.00    +0.380 C 
BRANCH  24  25
ATOM     25  C   LIG    1        5.162  12.223  -5.401  0.00  0.00    +0.450 C 
ATOM     26  F   LIG    1        5.002  12.422  -4.026  0.00  0.00    -0.180 F 
ATOM     27  F   LIG    1        4.749  13.368  -6.089  0.00  0.00    -0.170 F 
ATOM     28  F   LIG    1        6.508  11.969  -5.683  0.00  0.00    -0.160 F 
ENDBRANCH  24  25
ENDBRANCH  21  24
ENDBRANCH   2  19
TORSDOF 5
