REMARK  Name = ZINCpk00000e9DXC.0
REMARK                            x       y       z     vdW  Elec       q    Type
REMARK                         _______ _______ _______ _____ _____    ______ ____
ROOT
ATOM      1  N   LIG    1       -0.102   4.298   0.967  0.00  0.00    -0.530 NA
ATOM      2  C   LIG    1        1.150   3.531   0.941  0.00  0.00    +0.170 C 
ATOM      3  C   LIG    1        1.129   2.564  -0.247  0.00  0.00    +0.300 C 
ATOM      4  N   LIG    1       -0.096   1.753  -0.168  0.00  0.00    -1.010 NA
ATOM      5  C   LIG    1       -1.382   2.449  -0.009  0.00  0.00    +0.320 C 
ATOM      6  C   LIG    1       -1.261   3.420   1.176  0.00  0.00    +0.190 C 
ENDROOT
BRANCH   4   7
ATOM      7  S   LIG    1       -0.028   0.101  -0.263  0.00  0.00    +2.780 S 
ATOM      8  O   LIG    1        1.176  -0.213  -0.948  0.00  0.00    -0.970 OA
ATOM      9  O   LIG    1       -1.309  -0.328  -0.706  0.00  0.00    -0.970 OA
BRANCH   7  10
ATOM     10  N   LIG    1        0.149  -0.471   1.281  0.00  0.00    -1.000 NA
ATOM     11  C   LIG    1        1.484  -0.658   1.802  0.00  0.00    +0.280 C 
ATOM     12  C   LIG    1        1.985  -2.079   1.468  0.00  0.00    +0.010 C 
ATOM     13  C   LIG    1        1.267  -3.076   2.276  0.00  0.00    +0.000 C 
ATOM     14  C   LIG    1       -0.236  -3.132   2.015  0.00  0.00    +0.010 C 
ATOM     15  C   LIG    1       -0.928  -2.089   2.857  0.00  0.00    +0.020 C 
ATOM     16  C   LIG    1       -1.064  -0.775   2.066  0.00  0.00    +0.260 C 
ENDBRANCH   7  10
ENDBRANCH   4   7
BRANCH   1  17
ATOM     17  C   LIG    1       -0.052   5.355   1.986  0.00  0.00    +0.270 C 
ATOM     18  C   LIG    1       -1.383   6.109   2.005  0.00  0.00    +0.080 C 
BRANCH  17  22
ATOM     19  C   LIG    1        2.746   7.593   1.768  0.00  0.00    +0.170 A 
ATOM     20  N   LIG    1        2.296   7.579   0.548  0.00  0.00    -0.380 NA
ATOM     21  O   LIG    1        1.334   6.845   0.465  0.00  0.00    +0.100 OA
ATOM     22  C   LIG    1        1.064   6.313   1.661  0.00  0.00    +0.190 A 
ATOM     23  N   LIG    1        1.960   6.781   2.497  0.00  0.00    -0.480 NA
BRANCH  19  25
ATOM     24  C   LIG    1        5.197   7.530   2.137  0.00  0.00    +0.040 C 
ATOM     25  C   LIG    1        3.930   8.377   2.272  0.00  0.00    +0.160 C 
ENDBRANCH  19  25
ENDBRANCH  17  22
ENDBRANCH   1  17
TORSDOF 5
