REMARK  Name = ZINCrD0000070Ysg.0
REMARK                            x       y       z     vdW  Elec       q    Type
REMARK                         _______ _______ _______ _____ _____    ______ ____
ROOT
ATOM      1  C   LIG    1       -3.602   1.691   0.130  0.00  0.00    +0.520 C 
ATOM      2  N   LIG    1       -2.428   1.037   0.019  0.00  0.00    -0.670 N 
ATOM      3  H   LIG    1       -2.418   0.071  -0.063  0.00  0.00    +0.420 HD
ATOM      4  O   LIG    1       -3.622   2.904   0.137  0.00  0.00    -0.490 OA
ENDROOT
BRANCH   2   5
ATOM      5  C   LIG    1       -1.224   1.753   0.023  0.00  0.00    +0.130 A 
ATOM      6  C   LIG    1       -1.107   2.912   0.779  0.00  0.00    +0.070 A 
ATOM      7  C   LIG    1        0.082   3.614   0.787  0.00  0.00    +0.050 A 
ATOM      8  C   LIG    1        1.158   3.165   0.035  0.00  0.00    +0.090 A 
ATOM      9  C   LIG    1        1.040   2.010  -0.724  0.00  0.00    -0.030 A 
ATOM     10  C   LIG    1       -0.148   1.307  -0.732  0.00  0.00    +0.040 A 
BRANCH   8  11
ATOM     11  O   LIG    1        2.328   3.857   0.043  0.00  0.00    -0.310 OA
BRANCH  11  12
ATOM     12  C   LIG    1        3.395   3.337  -0.753  0.00  0.00    +0.600 C 
ATOM     13  F   LIG    1        3.717   2.047  -0.317  0.00  0.00    -0.160 F 
ATOM     14  F   LIG    1        4.516   4.165  -0.630  0.00  0.00    -0.130 F 
ATOM     15  F   LIG    1        2.995   3.289  -2.093  0.00  0.00    -0.160 F 
ENDBRANCH  11  12
ENDBRANCH   8  11
ENDBRANCH   2   5
BRANCH   1  16
ATOM     16  C   LIG    1       -4.888   0.916   0.245  0.00  0.00    +0.200 C 
ATOM     17  C   LIG    1       -5.132   0.136  -1.048  0.00  0.00    +0.070 C 
BRANCH  16  18
ATOM     18  O   LIG    1       -5.989   1.836   0.471  0.00  0.00    -0.330 OA
BRANCH  18  19
ATOM     19  C   LIG    1       -7.035   1.375   1.186  0.00  0.00    +0.540 C 
ATOM     20  O   LIG    1       -7.027   0.236   1.611  0.00  0.00    -0.490 OA
BRANCH  19  25
ATOM     21  C   LIG    1      -10.143   3.043   2.172  0.00  0.00    -0.270 A 
ATOM     22  C   LIG    1       -9.492   4.040   1.460  0.00  0.00    +0.300 A 
ATOM     23  N   LIG    1       -8.315   3.557   1.037  0.00  0.00    -0.510 N 
ATOM     24  H   LIG    1       -7.660   4.049   0.517  0.00  0.00    +0.430 HD
ATOM     25  C   LIG    1       -8.183   2.249   1.453  0.00  0.00    -0.050 A 
ATOM     26  C   LIG    1       -9.298   1.908   2.160  0.00  0.00    +0.130 A 
BRANCH  21  28
ATOM     27  C   LIG    1      -12.235   4.434   2.735  0.00  0.00    +0.060 C 
ATOM     28  C   LIG    1      -11.457   3.146   2.815  0.00  0.00    +0.420 C 
ATOM     29  O   LIG    1      -11.917   2.194   3.410  0.00  0.00    -0.470 OA
ENDBRANCH  21  28
ENDBRANCH  19  25
ENDBRANCH  18  19
ENDBRANCH  16  18
ENDBRANCH   1  16
TORSDOF 8
