REMARK  Name = ZINCpk000000oLOL.0
REMARK                            x       y       z     vdW  Elec       q    Type
REMARK                         _______ _______ _______ _____ _____    ______ ____
ROOT
ATOM      1  C   LIG    1        3.663   7.388   0.805  0.00  0.00    +0.530 C 
ATOM      2  N   LIG    1        3.675   6.043   0.886  0.00  0.00    -0.610 N 
ATOM      3  C   LIG    1        4.946   5.305   0.877  0.00  0.00    +0.290 C 
ATOM      4  C   LIG    1        4.905   4.272  -0.256  0.00  0.00    +0.290 C 
ATOM      5  N   LIG    1        3.648   3.517  -0.156  0.00  0.00    -0.610 N 
ATOM      6  C   LIG    1        2.377   4.254  -0.152  0.00  0.00    +0.270 C 
ATOM      7  C   LIG    1        3.661   2.171  -0.076  0.00  0.00    +0.570 C 
ATOM      8  O   LIG    1        4.717   1.578   0.023  0.00  0.00    -0.520 OA
ATOM      9  C   LIG    1        2.419   5.288   0.986  0.00  0.00    +0.270 C 
ATOM     10  O   LIG    1        4.698   7.995   0.628  0.00  0.00    -0.520 OA
ENDROOT
BRANCH   7  11
ATOM     11  C   LIG    1        2.390   1.417  -0.108  0.00  0.00    -0.120 A 
ATOM     12  C   LIG    1        1.388   1.769  -1.014  0.00  0.00    +0.050 A 
ATOM     13  C   LIG    1        0.204   1.061  -1.039  0.00  0.00    +0.030 A 
ATOM     14  C   LIG    1        0.008   0.004  -0.170  0.00  0.00    +0.050 A 
ATOM     15  C   LIG    1        0.997  -0.352   0.732  0.00  0.00    -0.040 A 
ATOM     16 CL   LIG    1        0.742  -1.681   1.819  0.00  0.00    -0.060 Cl
ATOM     17  C   LIG    1        2.187   0.349   0.767  0.00  0.00    +0.080 A 
ENDBRANCH   7  11
BRANCH   1  20
ATOM     18  N   LIG    1        1.625  10.415   0.769  0.00  0.00    -0.620 N 
ATOM     19  C   LIG    1        2.599   9.568   1.469  0.00  0.00    +0.300 C 
ATOM     20  C   LIG    1        2.362   8.139   0.934  0.00  0.00    -0.020 C 
ATOM     21  C   LIG    1        1.746   8.420  -0.456  0.00  0.00    +0.080 C 
ATOM     22  C   LIG    1        1.134   9.797  -0.318  0.00  0.00    +0.520 C 
ATOM     23  O   LIG    1        0.319  10.274  -1.079  0.00  0.00    -0.520 OA
BRANCH  18  25
ATOM     24  C   LIG    1        0.042  11.666   2.150  0.00  0.00    +0.020 C 
ATOM     25  C   LIG    1        1.238  11.760   1.202  0.00  0.00    +0.280 C 
ENDBRANCH  18  25
ENDBRANCH   1  20
TORSDOF 3
