REMARK  Name = ZINCqH0000035ctB.0
REMARK                            x       y       z     vdW  Elec       q    Type
REMARK                         _______ _______ _______ _____ _____    ______ ____
ROOT
ATOM      1  C   LIG    1        2.658  -2.966  -0.064  0.00  0.00    +0.020 A 
ATOM      2  N   LIG    1        2.773  -3.582  -1.225  0.00  0.00    -0.230 NA
ATOM      3  N   LIG    1        1.626  -3.664  -1.798  0.00  0.00    -0.230 N 
ATOM      4  C   LIG    1        0.672  -3.094  -1.016  0.00  0.00    +0.190 A 
ATOM      5  C   LIG    1        1.291  -2.632   0.096  0.00  0.00    -0.170 A 
ENDROOT
BRANCH   3   6
ATOM      6  C   LIG    1        1.392  -4.260  -3.044  0.00  0.00    +0.150 A 
ATOM      7  C   LIG    1        0.106  -4.298  -3.566  0.00  0.00    +0.040 A 
ATOM      8  C   LIG    1       -0.122  -4.881  -4.797  0.00  0.00    +0.090 A 
ATOM      9  C   LIG    1        0.928  -5.438  -5.506  0.00  0.00    -0.030 A 
ATOM     10  C   LIG    1        2.211  -5.407  -4.985  0.00  0.00    -0.010 A 
ATOM     11 CL   LIG    1        3.526  -6.106  -5.877  0.00  0.00    -0.030 Cl
ATOM     12 CL   LIG    1        0.636  -6.176  -7.050  0.00  0.00    -0.030 Cl
ATOM     13  C   LIG    1        2.445  -4.819  -3.756  0.00  0.00    +0.070 A 
ENDBRANCH   3   6
BRANCH   1  14
ATOM     14  C   LIG    1        3.747  -2.679   0.888  0.00  0.00    +0.550 C 
ATOM     15  O   LIG    1        3.493  -2.200   1.975  0.00  0.00    -0.480 OA
BRANCH  14  17
ATOM     16  C   LIG    1        6.044  -2.642   1.539  0.00  0.00    +0.290 C 
ATOM     17  O   LIG    1        5.024  -2.950   0.553  0.00  0.00    -0.340 OA
ENDBRANCH  14  17
ENDBRANCH   1  14
BRANCH   5  18
ATOM     18  C   LIG    1        0.657  -1.919   1.262  0.00  0.00    +0.330 C 
BRANCH  18  19
ATOM     19  N   LIG    1        0.734  -0.468   1.049  0.00  0.00    -0.510 NA
ATOM     20  C   LIG    1       -0.189  -0.042  -0.011  0.00  0.00    +0.160 C 
ATOM     21  C   LIG    1       -0.189   1.486  -0.106  0.00  0.00    +0.050 C 
ATOM     22  C   LIG    1        1.230   1.973  -0.412  0.00  0.00    +0.040 C 
ATOM     23  C   LIG    1        2.179   1.476   0.681  0.00  0.00    +0.140 C 
ATOM     24  C   LIG    1        2.111  -0.051   0.753  0.00  0.00    +0.200 C 
BRANCH  23  25
ATOM     25  C   LIG    1        3.555   1.891   0.364  0.00  0.00    +0.210 C 
ATOM     26  N   LIG    1        4.617   2.212   0.119  0.00  0.00    -0.430 NA
ENDBRANCH  23  25
ENDBRANCH  18  19
ENDBRANCH   5  18
TORSDOF 6
