REMARK  Name = ZINCpk00000CFd6w.0
REMARK                            x       y       z     vdW  Elec       q    Type
REMARK                         _______ _______ _______ _____ _____    ______ ____
ROOT
ATOM      1  N   LIG    1        0.116   5.551  -1.576  0.00  0.00    -0.290 N 
ATOM      2  C   LIG    1       -0.787   6.468  -1.996  0.00  0.00    +0.150 A 
ATOM      3  C   LIG    1       -0.447   6.775  -3.270  0.00  0.00    -0.020 A 
ATOM      4  N   LIG    1        0.633   6.041  -3.563  0.00  0.00    -0.260 NA
ATOM      5  N   LIG    1        0.944   5.330  -2.536  0.00  0.00    -0.070 NA
ENDROOT
BRANCH   1   6
ATOM      6  C   LIG    1        0.148   4.922  -0.253  0.00  0.00    +0.410 C 
BRANCH   6  11
ATOM      7  C   LIG    1       -1.043   1.358  -0.596  0.00  0.00    -0.210 A 
ATOM      8  C   LIG    1        0.178   0.719  -0.691  0.00  0.00    +0.320 A 
ATOM      9  N   LIG    1        1.304   1.405  -0.652  0.00  0.00    -0.480 NA
ATOM     10  C   LIG    1        1.312   2.716  -0.516  0.00  0.00    +0.330 A 
ATOM     11  C   LIG    1        0.129   3.423  -0.409  0.00  0.00    -0.180 A 
ATOM     12  C   LIG    1       -1.074   2.736  -0.447  0.00  0.00    +0.130 A 
BRANCH   7  14
ATOM     13  C   LIG    1       -2.792   0.448  -2.100  0.00  0.00    +0.080 C 
ATOM     14  C   LIG    1       -2.325   0.567  -0.648  0.00  0.00    +0.350 C 
ATOM     15  F   LIG    1       -3.306   1.219   0.106  0.00  0.00    -0.190 F 
ATOM     16  F   LIG    1       -2.105  -0.711  -0.123  0.00  0.00    -0.190 F 
ENDBRANCH   7  14
ENDBRANCH   6  11
ENDBRANCH   1   6
BRANCH   3  17
ATOM     17  C   LIG    1       -1.147   7.751  -4.180  0.00  0.00    +0.170 C 
BRANCH  17  18
ATOM     18  C   LIG    1       -0.143   8.792  -4.680  0.00  0.00    +0.030 C 
ATOM     19  C   LIG    1        0.349   9.637  -3.500  0.00  0.00    +0.050 C 
ATOM     20  C   LIG    1        1.264  10.742  -4.039  0.00  0.00    +0.090 C 
ATOM     21  C   LIG    1        0.521  11.534  -5.082  0.00  0.00    +0.520 C 
ATOM     22  N   LIG    1       -0.443  10.973  -5.827  0.00  0.00    -0.680 N 
ATOM     23  H   LIG    1       -0.892  11.517  -6.494  0.00  0.00    +0.410 HD
ATOM     24  O   LIG    1        0.799  12.702  -5.250  0.00  0.00    -0.500 OA
ATOM     25  C   LIG    1       -0.810   9.691  -5.688  0.00  0.00    +0.530 C 
ATOM     26  O   LIG    1       -1.695   9.246  -6.386  0.00  0.00    -0.490 OA
ENDBRANCH  17  18
ENDBRANCH   3  17
TORSDOF 5
