REMARK  Name = ZINCpk00000kJibo.0
REMARK                            x       y       z     vdW  Elec       q    Type
REMARK                         _______ _______ _______ _____ _____    ______ ____
ROOT
ATOM      1  C   LIG    1        3.026   1.389   1.556  0.00  0.00    +0.520 C 
ATOM      2  N   LIG    1        4.306   0.979   1.650  0.00  0.00    -0.630 N 
ATOM      3  C   LIG    1        5.040   1.044   2.925  0.00  0.00    +0.300 C 
ATOM      4  C   LIG    1        5.439  -0.379   3.321  0.00  0.00    +0.250 C 
ATOM      5  N   LIG    1        6.017  -1.087   2.187  0.00  0.00    -0.590 N 
ATOM      6  C   LIG    1        5.814  -0.763   0.908  0.00  0.00    +0.510 C 
ATOM      7  O   LIG    1        6.286  -1.477   0.049  0.00  0.00    -0.540 OA
ATOM      8  C   LIG    1        5.026   0.442   0.485  0.00  0.00    +0.330 C 
ATOM      9  O   LIG    1        2.455   1.823   2.533  0.00  0.00    -0.510 OA
ENDROOT
BRANCH   5  10
ATOM     10  C   LIG    1        6.882  -2.235   2.469  0.00  0.00    +0.210 C 
ATOM     11  C   LIG    1        7.951  -1.861   3.525  0.00  0.00    +0.010 C 
ATOM     12  C   LIG    1        7.316  -2.408   4.833  0.00  0.00    +0.200 C 
ATOM     13  O   LIG    1        6.674  -3.630   4.410  0.00  0.00    -0.370 OA
ATOM     14  C   LIG    1        6.074  -3.368   3.130  0.00  0.00    +0.190 C 
ENDBRANCH   5  10
BRANCH   1  15
ATOM     15  C   LIG    1        2.305   1.309   0.235  0.00  0.00    +0.140 C 
BRANCH  15  21
ATOM     16  C   LIG    1       -1.702   6.902   0.296  0.00  0.00    +0.090 C 
ATOM     17  C   LIG    1       -0.943   5.600   0.308  0.00  0.00    -0.070 A 
ATOM     18  C   LIG    1        0.428   5.603   0.098  0.00  0.00    -0.020 A 
ATOM     19  C   LIG    1        1.134   4.432   0.106  0.00  0.00    +0.050 A 
ATOM     20  C   LIG    1        0.470   3.224   0.326  0.00  0.00    -0.090 A 
ATOM     21  C   LIG    1        0.898   1.825   0.398  0.00  0.00    -0.160 A 
ATOM     22  C   LIG    1       -0.199   1.091   0.638  0.00  0.00    +0.240 A 
ATOM     23  N   LIG    1       -1.296   1.904   0.720  0.00  0.00    -0.590 N 
ATOM     24  H   LIG    1       -2.203   1.602   0.884  0.00  0.00    +0.420 HD
ATOM     25  C   LIG    1       -0.921   3.216   0.540  0.00  0.00    +0.100 A 
ATOM     26  C   LIG    1       -1.619   4.419   0.528  0.00  0.00    -0.010 A 
ENDBRANCH  15  21
ENDBRANCH   1  15
TORSDOF 3
