REMARK  Name = ZINCpe000000UcgS.0
REMARK                            x       y       z     vdW  Elec       q    Type
REMARK                         _______ _______ _______ _____ _____    ______ ____
ROOT
ATOM      1  N   LIG    1        1.891   3.767   1.825  0.00  0.00    -0.480 N 
ATOM      2  C   LIG    1        0.593   4.439   1.974  0.00  0.00    +0.220 C 
ENDROOT
BRANCH   1  11
ATOM      3  C   LIG    1        2.329   0.665   1.478  0.00  0.00    -0.120 A 
ATOM      4  C   LIG    1        2.562  -0.583   1.916  0.00  0.00    +0.230 A 
ATOM      5  N   LIG    1        2.695  -0.579   3.280  0.00  0.00    -0.570 N 
ATOM      6  H   LIG    1        2.868  -1.363   3.825  0.00  0.00    +0.420 HD
ATOM      7  C   LIG    1        2.548   0.693   3.762  0.00  0.00    +0.320 A 
ATOM      8  N   LIG    1        2.585   1.238   4.977  0.00  0.00    -0.530 NA
ATOM      9  C   LIG    1        2.405   2.531   5.139  0.00  0.00    +0.530 A 
ATOM     10  N   LIG    1        2.180   3.352   4.130  0.00  0.00    -0.570 NA
ATOM     11  C   LIG    1        2.126   2.903   2.879  0.00  0.00    +0.390 A 
ATOM     12  C   LIG    1        2.318   1.532   2.655  0.00  0.00    -0.170 A 
BRANCH   3  14
ATOM     13  C   LIG    1        3.460   1.545  -0.546  0.00  0.00    +0.030 C 
ATOM     14  C   LIG    1        2.124   1.092   0.047  0.00  0.00    +0.100 C 
ENDBRANCH   3  14
ENDBRANCH   1  11
BRANCH   1  15
ATOM     15  C   LIG    1        2.978   4.746   1.694  0.00  0.00    +0.350 C 
BRANCH  15  16
ATOM     16  C   LIG    1        2.817   5.506   0.403  0.00  0.00    +0.210 A 
ATOM     17  N   LIG    1        3.330   5.177  -0.759  0.00  0.00    -0.250 NA
ATOM     18  N   LIG    1        2.994   6.043  -1.651  0.00  0.00    -0.200 NA
ATOM     19  C   LIG    1        2.254   6.975  -1.094  0.00  0.00    +0.110 A 
ATOM     20  C   LIG    1        1.597   8.194  -1.585  0.00  0.00    +0.590 A 
ATOM     21  N   LIG    1        0.894   8.944  -0.708  0.00  0.00    -0.540 N 
ATOM     22  C   LIG    1        0.801   8.563   0.617  0.00  0.00    +0.290 A 
ATOM     23  C   LIG    1        1.390   7.464   1.073  0.00  0.00    +0.140 A 
ATOM     24  C   LIG    1        0.226  10.165  -1.165  0.00  0.00    +0.330 C 
ATOM     25  O   LIG    1        1.684   8.520  -2.755  0.00  0.00    -0.470 OA
ATOM     26  N   LIG    1        2.127   6.648   0.234  0.00  0.00    -0.380 N 
ENDBRANCH  15  16
ENDBRANCH   1  15
TORSDOF 4
