REMARK  Name = ZINCqH0000034yhH.0
REMARK                            x       y       z     vdW  Elec       q    Type
REMARK                         _______ _______ _______ _____ _____    ______ ____
ROOT
ATOM      1  N   LIG    1        1.813   3.132   7.769  0.00  0.00    -0.680 N 
ATOM      2  H   LIG    1        1.017   3.473   8.205  0.00  0.00    +0.410 HD
ATOM      3  C   LIG    1        2.971   3.045   8.451  0.00  0.00    +0.700 C 
ATOM      4  N   LIG    1        3.001   3.330   9.768  0.00  0.00    -0.740 N 
ATOM      5  H   LIG    1        2.188   3.598  10.225  0.00  0.00    +0.400 HD
ATOM      6  O   LIG    1        3.991   2.710   7.879  0.00  0.00    -0.570 OA
ENDROOT
BRANCH   1  12
ATOM      7  C   LIG    1        2.677   0.376   2.684  0.00  0.00    +0.500 A 
ATOM      8  N   LIG    1        1.804   1.341   2.558  0.00  0.00    -0.540 NA
ATOM      9  C   LIG    1        1.639   1.942   3.771  0.00  0.00    +0.050 A 
ATOM     10  C   LIG    1        0.851   3.001   4.220  0.00  0.00    +0.080 A 
ATOM     11  C   LIG    1        0.912   3.389   5.540  0.00  0.00    +0.010 A 
ATOM     12  C   LIG    1        1.758   2.729   6.427  0.00  0.00    +0.170 A 
ATOM     13  C   LIG    1        2.546   1.676   5.991  0.00  0.00    +0.060 A 
ATOM     14  C   LIG    1        2.491   1.278   4.666  0.00  0.00    +0.010 A 
ATOM     15  O   LIG    1        3.118   0.313   3.953  0.00  0.00    -0.230 OA
BRANCH   7  17
ATOM     16  C   LIG    1        2.537  -0.287   0.317  0.00  0.00    +0.330 C 
ATOM     17  N   LIG    1        3.091  -0.452   1.663  0.00  0.00    -0.580 N 
ATOM     18  C   LIG    1        4.083  -1.497   1.924  0.00  0.00    +0.300 C 
ENDBRANCH   7  17
ENDBRANCH   1  12
BRANCH   4  19
ATOM     19  C   LIG    1        4.260   3.236  10.511  0.00  0.00    +0.280 C 
BRANCH  19  20
ATOM     20  C   LIG    1        4.018   3.609  11.975  0.00  0.00    +0.030 C 
BRANCH  20  21
ATOM     21  C   LIG    1        5.334   3.511  12.750  0.00  0.00    +0.170 C 
BRANCH  21  22
ATOM     22  O   LIG    1        5.108   3.859  14.117  0.00  0.00    -0.380 OA
BRANCH  22  23
ATOM     23  C   LIG    1        6.280   3.799  14.933  0.00  0.00    +0.150 C 
ATOM     24  C   LIG    1        6.414   2.397  15.530  0.00  0.00    -0.010 C 
ATOM     25  C   LIG    1        7.669   2.333  16.404  0.00  0.00    +0.010 C 
ATOM     26  C   LIG    1        7.557   3.359  17.533  0.00  0.00    +0.000 C 
ATOM     27  C   LIG    1        7.422   4.761  16.936  0.00  0.00    +0.010 C 
ATOM     28  C   LIG    1        6.168   4.825  16.063  0.00  0.00    +0.020 C 
ENDBRANCH  22  23
ENDBRANCH  21  22
ENDBRANCH  20  21
ENDBRANCH  19  20
ENDBRANCH   4  19
TORSDOF 7
