REMARK  Name = ZINCvU0000000I9t.0
REMARK                            x       y       z     vdW  Elec       q    Type
REMARK                         _______ _______ _______ _____ _____    ______ ____
ROOT
ATOM      1  C   LIG    1       -5.494   1.574   1.330  0.00  0.00    +0.220 A 
ATOM      2  N   LIG    1       -6.512   1.718   0.513  0.00  0.00    -0.260 NA
ATOM      3  N   LIG    1       -6.307   2.714  -0.271  0.00  0.00    -0.290 NA
ATOM      4  C   LIG    1       -5.148   3.271  -0.001  0.00  0.00    +0.180 A 
ATOM      5  N   LIG    1       -4.588   2.562   1.024  0.00  0.00    -0.450 N 
ENDROOT
BRANCH   1  10
ATOM      6 CL   LIG    1       -4.908  -2.595   5.583  0.00  0.00    -0.060 Cl
ATOM      7  C   LIG    1       -5.078  -1.386   4.349  0.00  0.00    -0.020 A 
ATOM      8  C   LIG    1       -6.330  -1.102   3.829  0.00  0.00    +0.040 A 
ATOM      9  C   LIG    1       -6.471  -0.142   2.849  0.00  0.00    +0.090 A 
ATOM     10  C   LIG    1       -5.349   0.544   2.381  0.00  0.00    -0.010 A 
ATOM     11  C   LIG    1       -4.089   0.249   2.904  0.00  0.00    +0.030 A 
ATOM     12  C   LIG    1       -3.961  -0.709   3.888  0.00  0.00    +0.040 A 
ENDBRANCH   1  10
BRANCH   4  13
ATOM     13  S   LIG    1       -4.446   4.670  -0.810  0.00  0.00    +0.060 S 
BRANCH  13  14
ATOM     14  C   LIG    1       -5.752   5.026  -2.011  0.00  0.00    +0.200 C 
BRANCH  14  15
ATOM     15  C   LIG    1       -5.359   6.221  -2.841  0.00  0.00    +0.030 A 
ATOM     16  N   LIG    1       -4.693   6.206  -3.961  0.00  0.00    -0.340 NA
ATOM     17  O   LIG    1       -4.525   7.320  -4.401  0.00  0.00    +0.120 OA
ATOM     18  C   LIG    1       -5.076   8.252  -3.604  0.00  0.00    +0.020 A 
ATOM     19  C   LIG    1       -5.645   7.573  -2.561  0.00  0.00    -0.020 A 
BRANCH  18  20
ATOM     20  C   LIG    1       -5.074   9.715  -3.815  0.00  0.00    -0.030 A 
ATOM     21  C   LIG    1       -5.698  10.558  -2.893  0.00  0.00    +0.040 A 
ATOM     22  C   LIG    1       -5.686  11.923  -3.093  0.00  0.00    +0.010 A 
ATOM     23  C   LIG    1       -5.069  12.456  -4.210  0.00  0.00    +0.030 A 
ATOM     24  C   LIG    1       -4.454  11.627  -5.131  0.00  0.00    +0.010 A 
ATOM     25  C   LIG    1       -4.453  10.260  -4.940  0.00  0.00    +0.040 A 
ENDBRANCH  18  20
ENDBRANCH  14  15
ENDBRANCH  13  14
ENDBRANCH   4  13
BRANCH   5  26
ATOM     26  C   LIG    1       -3.294   2.808   1.667  0.00  0.00    +0.330 C 
BRANCH  26  27
ATOM     27  C   LIG    1       -2.197   2.060   0.906  0.00  0.00    +0.140 C 
ATOM     28  C   LIG    1       -0.822   2.260   1.605  0.00  0.00    +0.030 C 
ATOM     29  C   LIG    1        0.144   2.023   0.412  0.00  0.00    +0.020 C 
ATOM     30  C   LIG    1       -0.651   2.598  -0.779  0.00  0.00    +0.190 C 
ATOM     31  O   LIG    1       -2.035   2.614  -0.409  0.00  0.00    -0.360 OA
ENDBRANCH  26  27
ENDBRANCH   5  26
TORSDOF 7
