REMARK  Name = ZINCrD000000CNLl.0
REMARK                            x       y       z     vdW  Elec       q    Type
REMARK                         _______ _______ _______ _____ _____    ______ ____
ROOT
ATOM      1  C   LIG    1        1.099  -2.166   0.555  0.00  0.00    +0.560 C 
ATOM      2  N   LIG    1        0.090  -2.853  -0.015  0.00  0.00    -0.650 N 
ATOM      3  H   LIG    1       -0.687  -2.381  -0.355  0.00  0.00    +0.420 HD
ATOM      4  O   LIG    1        2.025  -2.762   1.071  0.00  0.00    -0.520 OA
ENDROOT
BRANCH   1  11
ATOM      5  O   LIG    1        2.128   5.384   0.768  0.00  0.00    -0.520 OA
ATOM      6  C   LIG    1        2.163   4.171   0.760  0.00  0.00    +0.520 C 
ATOM      7  C   LIG    1        3.472   3.465   0.990  0.00  0.00    +0.080 C 
ATOM      8  C   LIG    1        3.234   2.174   1.774  0.00  0.00    +0.110 C 
ATOM      9  C   LIG    1        2.108   1.400   1.139  0.00  0.00    -0.130 A 
ATOM     10  C   LIG    1        2.128   0.024   1.143  0.00  0.00    +0.130 A 
ATOM     11  C   LIG    1        1.081  -0.690   0.553  0.00  0.00    -0.160 A 
ATOM     12  C   LIG    1        0.018  -0.004  -0.039  0.00  0.00    +0.080 A 
ATOM     13  C   LIG    1        0.004   1.373  -0.040  0.00  0.00    -0.020 A 
ATOM     14  C   LIG    1        1.047   2.081   0.548  0.00  0.00    +0.190 A 
ATOM     15  N   LIG    1        1.032   3.475   0.546  0.00  0.00    -0.660 N 
ATOM     16  H   LIG    1        0.199   3.947   0.390  0.00  0.00    +0.410 HD
ENDBRANCH   1  11
BRANCH   2  17
ATOM     17  C   LIG    1        0.162  -4.248  -0.116  0.00  0.00    +0.190 A 
ATOM     18  C   LIG    1        1.395  -4.882  -0.130  0.00  0.00    +0.040 A 
ATOM     19  C   LIG    1        1.464  -6.259  -0.225  0.00  0.00    +0.060 A 
ATOM     20  C   LIG    1        0.306  -7.009  -0.318  0.00  0.00    +0.020 A 
ATOM     21  C   LIG    1       -0.928  -6.386  -0.311  0.00  0.00    -0.050 A 
ATOM     22 CL   LIG    1       -2.379  -7.331  -0.429  0.00  0.00    -0.050 Cl
ATOM     23  C   LIG    1       -1.007  -5.004  -0.210  0.00  0.00    +0.060 A 
BRANCH  23  24
ATOM     24  N   LIG    1       -2.255  -4.370  -0.203  0.00  0.00    -0.500 N 
ATOM     25  C   LIG    1       -3.040  -4.764   0.976  0.00  0.00    +0.170 C 
ATOM     26  C   LIG    1       -4.369  -4.005   0.975  0.00  0.00    +0.230 C 
ATOM     27  O   LIG    1       -5.061  -4.267  -0.249  0.00  0.00    -0.380 OA
ATOM     28  C   LIG    1       -4.326  -3.895  -1.417  0.00  0.00    +0.230 C 
ATOM     29  C   LIG    1       -2.997  -4.653  -1.441  0.00  0.00    +0.160 C 
ENDBRANCH  23  24
ENDBRANCH   2  17
TORSDOF 3
