REMARK  Name = ZINCkj000005j5mF.0
REMARK                            x       y       z     vdW  Elec       q    Type
REMARK                         _______ _______ _______ _____ _____    ______ ____
ROOT
ATOM      1  C   UNK A  0        3.355   3.218   1.394  0.00  0.00    +0.240 C 
ATOM      2  C   UNK A  0        4.733   3.861   1.559  0.00  0.00    +0.040 C 
ENDROOT
BRANCH   1   3
ATOM      3  C   UNK A  0        3.519   1.722   1.116  0.00  0.00    +0.010 C 
ATOM      4  C   UNK A  0        4.246   1.527  -0.217  0.00  0.00    +0.060 C 
ATOM      5  C   UNK A  0        3.387   2.104  -1.345  0.00  0.00    +0.060 C 
ATOM      6  C   UNK A  0        2.014   1.430  -1.329  0.00  0.00    +0.250 C 
ATOM      7  N   UNK A  0        1.359   1.676  -0.039  0.00  0.00    -0.380 N 
ATOM      8  H   UNK A  0        1.292   2.670   0.119  0.00  0.00    +0.420 HD
ATOM      9  C   UNK A  0        2.141   1.061   1.040  0.00  0.00    +0.260 C 
BRANCH   7  10
ATOM     10  C   UNK A  0        0.010   1.093  -0.057  0.00  0.00    +0.150 C 
ATOM     11  C   UNK A  0       -0.938   1.701   0.990  0.00  0.00    +0.050 C 
ATOM     12  C   UNK A  0       -2.037   1.638  -0.087  0.00  0.00    +0.070 C 
ATOM     13  C   UNK A  0       -0.909   1.700  -1.130  0.00  0.00    +0.050 C 
ENDBRANCH   7  10
ENDBRANCH   1   3
BRANCH   1  17
ATOM     14  N   ALA A  1        1.169   4.714   3.944  0.00  0.00    -0.730 N 
ATOM     15  H   ALA A  1        1.156   4.018   4.620  0.00  0.00    +0.400 HD
ATOM     16  C   UNK A  0        1.882   4.542   2.814  0.00  0.00    +0.700 C 
ATOM     17  N   UNK A  0        2.579   3.404   2.623  0.00  0.00    -0.760 N 
ATOM     18  H   UNK A  0        2.566   2.709   3.298  0.00  0.00    +0.400 HD
ATOM     19  O   UNK A  0        1.898   5.415   1.967  0.00  0.00    -0.580 OA
BRANCH  14  21
ATOM     20  CB  ALA A  1       -0.957   5.830   3.480  0.00  0.00    +0.030 C 
ATOM     21  CA  ALA A  1        0.412   5.951   4.152  0.00  0.00    +0.260 C 
BRANCH  21  22
ATOM     22  C   ALA A  1        0.224   6.188   5.652  0.00  0.00    +0.180 C 
BRANCH  22  23
ATOM     23  O   ALA A  1       -0.590   5.150   6.200  0.00  0.00    -0.570 OA
ATOM     24  H   ALA A  1       -0.751   5.236   7.150  0.00  0.00    +0.390 HD
ENDBRANCH  22  23
ENDBRANCH  21  22
ENDBRANCH  14  21
ENDBRANCH   1  17
TORSDOF 6
