REMARK  Name = ZINCkj000005j5mF.1
REMARK                            x       y       z     vdW  Elec       q    Type
REMARK                         _______ _______ _______ _____ _____    ______ ____
ROOT
ATOM      1  C   UNK A  0       -0.729   1.579   1.267  0.00  0.00    +0.270 C 
ATOM      2  C   UNK A  0       -0.013   1.086   0.008  0.00  0.00    +0.020 C 
ENDROOT
BRANCH   1   3
ATOM      3  C   UNK A  0       -0.750   3.109   1.275  0.00  0.00    -0.020 C 
ATOM      4  C   UNK A  0       -1.490   3.617   0.035  0.00  0.00    +0.040 C 
ATOM      5  C   UNK A  0       -1.437   5.148   0.012  0.00  0.00    +0.060 C 
ATOM      6  C   UNK A  0        0.023   5.603   0.043  0.00  0.00    +0.250 C 
ATOM      7  N   UNK A  0        0.669   5.107   1.264  0.00  0.00    -0.370 N 
ATOM      8  H   UNK A  0        0.155   5.433   2.070  0.00  0.00    +0.420 HD
ATOM      9  C   UNK A  0        0.686   3.640   1.259  0.00  0.00    +0.260 C 
BRANCH   7  10
ATOM     10  C   UNK A  0        2.047   5.611   1.327  0.00  0.00    +0.150 C 
ATOM     11  C   UNK A  0        2.644   5.598   2.744  0.00  0.00    +0.050 C 
ATOM     12  C   UNK A  0        3.276   6.960   2.404  0.00  0.00    +0.070 C 
ATOM     13  C   UNK A  0        2.140   7.145   1.385  0.00  0.00    +0.050 C 
ENDBRANCH   7  10
ENDBRANCH   1   3
BRANCH   1  17
ATOM     14  N   ALA A  1       -3.629  -0.623   1.776  0.00  0.00    -0.730 N 
ATOM     15  H   ALA A  1       -4.351  -0.074   1.431  0.00  0.00    +0.400 HD
ATOM     16  C   UNK A  0       -2.365  -0.156   1.766  0.00  0.00    +0.710 C 
ATOM     17  N   UNK A  0       -2.103   1.072   1.277  0.00  0.00    -0.750 N 
ATOM     18  H   UNK A  0       -2.825   1.620   0.932  0.00  0.00    +0.400 HD
ATOM     19  O   UNK A  0       -1.460  -0.844   2.199  0.00  0.00    -0.580 OA
BRANCH  14  21
ATOM     20  CB  ALA A  1       -4.088  -1.876   3.825  0.00  0.00    +0.040 C 
ATOM     21  CA  ALA A  1       -3.913  -1.958   2.308  0.00  0.00    +0.260 C 
BRANCH  21  22
ATOM     22  C   ALA A  1       -5.198  -2.496   1.675  0.00  0.00    +0.180 C 
BRANCH  22  23
ATOM     23  O   ALA A  1       -6.303  -1.685   2.078  0.00  0.00    -0.570 OA
ATOM     24  H   ALA A  1       -7.153  -1.969   1.714  0.00  0.00    +0.390 HD
ENDBRANCH  22  23
ENDBRANCH  21  22
ENDBRANCH  14  21
ENDBRANCH   1  17
TORSDOF 6
