REMARK  Name = ZINCrD000000D2V7.0
REMARK                            x       y       z     vdW  Elec       q    Type
REMARK                         _______ _______ _______ _____ _____    ______ ____
ROOT
ATOM      1  O   LIG    1        0.475   1.061   4.871  0.00  0.00    -0.950 OA
ATOM      2  S   LIG    1       -0.334   1.762   3.936  0.00  0.00    +2.700 S 
ATOM      3  O   LIG    1       -0.278   3.171   3.762  0.00  0.00    -0.950 OA
ENDROOT
BRANCH   2   4
ATOM      4  C   LIG    1       -2.006   1.377   4.338  0.00  0.00    -0.680 A 
ATOM      5  C   LIG    1       -3.020   2.240   3.968  0.00  0.00    +0.140 A 
ATOM      6  C   LIG    1       -4.336   1.941   4.276  0.00  0.00    +0.010 A 
ATOM      7  C   LIG    1       -4.632   0.778   4.965  0.00  0.00    +0.130 A 
ATOM      8  O   LIG    1       -5.925   0.474   5.280  0.00  0.00    -0.320 OA
ATOM      9  C   LIG    1       -6.484  -0.651   4.600  0.00  0.00    +0.230 C 
ATOM     10  C   LIG    1       -6.124  -1.946   5.313  0.00  0.00    +0.000 C 
ATOM     11  C   LIG    1       -4.630  -2.224   5.287  0.00  0.00    +0.230 C 
ATOM     12  O   LIG    1       -3.916  -1.229   6.023  0.00  0.00    -0.310 OA
ATOM     13  C   LIG    1       -3.613  -0.086   5.342  0.00  0.00    +0.050 A 
ATOM     14  C   LIG    1       -2.299   0.213   5.028  0.00  0.00    +0.140 A 
ENDBRANCH   2   4
BRANCH   2  15
ATOM     15  N   LIG    1       -0.020   1.094   2.454  0.00  0.00    -1.120 NA
ATOM     16  H   LIG    1        0.633   0.382   2.371  0.00  0.00    +0.420 HD
BRANCH  15  17
ATOM     17  C   LIG    1       -0.729   1.579   1.267  0.00  0.00    +0.280 C 
BRANCH  17  18
ATOM     18  C   LIG    1       -0.013   1.086   0.008  0.00  0.00    +0.090 C 
BRANCH  18  19
ATOM     19  C   LIG    1       -0.742   1.585  -1.213  0.00  0.00    -0.050 A 
ATOM     20  C   LIG    1       -1.750   0.825  -1.775  0.00  0.00    +0.020 A 
ATOM     21  C   LIG    1       -2.422   1.285  -2.892  0.00  0.00    +0.070 A 
ATOM     22  C   LIG    1       -2.078   2.501  -3.453  0.00  0.00    -0.180 A 
ATOM     23  C   LIG    1       -1.066   3.259  -2.894  0.00  0.00    +0.070 A 
ATOM     24  C   LIG    1       -0.398   2.801  -1.774  0.00  0.00    +0.030 A 
BRANCH  22  25
ATOM     25  C   LIG    1       -2.807   2.999  -4.674  0.00  0.00    +0.510 C 
ATOM     26  F   LIG    1       -2.826   4.398  -4.667  0.00  0.00    -0.180 F 
ATOM     27  F   LIG    1       -4.119   2.515  -4.665  0.00  0.00    -0.180 F 
ATOM     28  F   LIG    1       -2.151   2.548  -5.825  0.00  0.00    -0.180 F 
ENDBRANCH  22  25
ENDBRANCH  18  19
ENDBRANCH  17  18
ENDBRANCH  15  17
ENDBRANCH   2  15
TORSDOF 6
