REMARK  Name = ZINCtj00001UqOwo.0
REMARK                            x       y       z     vdW  Elec       q    Type
REMARK                         _______ _______ _______ _____ _____    ______ ____
ROOT
ATOM      1  C   LIG    1        6.318   5.036  -1.902  0.00  0.00    +0.110 C 
ATOM      2  C   LIG    1        7.793   4.635  -2.233  0.00  0.00    +0.050 C 
ATOM      3  C   LIG    1        8.049   5.628  -1.027  0.00  0.00    +0.080 C 
ATOM      4  O   LIG    1        7.355   5.106   0.154  0.00  0.00    -0.310 OA
ATOM      5  C   LIG    1        9.445   6.222  -0.829  0.00  0.00    +0.130 C 
ATOM      6  C   LIG    1        6.114   4.667  -0.409  0.00  0.00    +0.080 C 
ATOM      7  C   LIG    1        4.824   5.118   0.237  0.00  0.00    +0.300 C 
ATOM      8  N   LIG    1        4.266   3.798  -0.115  0.00  0.00    -0.650 N 
ATOM      9  C   LIG    1        3.035   3.299  -0.342  0.00  0.00    +0.590 C 
ATOM     10  O   LIG    1        2.061   4.025  -0.267  0.00  0.00    -0.540 OA
ATOM     11  C   LIG    1        5.640   3.261  -0.105  0.00  0.00    +0.300 C 
ATOM     12  C   LIG    1        6.963   6.446  -1.770  0.00  0.00    +0.040 C 
ENDROOT
BRANCH   1  14
ATOM     13  C   LIG    1        5.392   5.084  -4.155  0.00  0.00    +0.510 C 
ATOM     14  N   LIG    1        5.237   4.771  -2.854  0.00  0.00    -0.660 N 
ATOM     15  H   LIG    1        4.408   4.370  -2.547  0.00  0.00    +0.410 HD
ATOM     16  O   LIG    1        6.428   5.585  -4.539  0.00  0.00    -0.520 OA
BRANCH  13  17
ATOM     17  C   LIG    1        4.280   4.811  -5.134  0.00  0.00    +0.160 C 
BRANCH  17  18
ATOM     18  N   LIG    1        4.825   4.776  -6.498  0.00  0.00    -0.370 N 
ATOM     19  C   LIG    1        3.724   4.642  -7.462  0.00  0.00    +0.340 C 
ATOM     20  C   LIG    1        5.735   3.631  -6.632  0.00  0.00    +0.330 C 
ATOM     21  H   LIG    1        5.330   5.630  -6.680  0.00  0.00    +0.430 HD
ENDBRANCH  17  18
BRANCH  17  23
ATOM     22  C   LIG    1        3.857   7.256  -5.426  0.00  0.00    +0.040 C 
ATOM     23  C   LIG    1        3.228   5.917  -5.033  0.00  0.00    +0.090 C 
ENDBRANCH  17  23
ENDBRANCH  13  17
ENDBRANCH   1  14
BRANCH   9  24
ATOM     24  C   LIG    1        2.875   1.930  -0.670  0.00  0.00    -0.150 C 
ATOM     25  C   LIG    1        1.640   1.429  -0.897  0.00  0.00    +0.200 C 
BRANCH  25  26
ATOM     26  C   LIG    1        1.474   0.011  -1.236  0.00  0.00    -0.200 A 
ATOM     27  C   LIG    1        0.290  -0.649  -1.496  0.00  0.00    +0.220 A 
ATOM     28  N   LIG    1        0.578  -1.939  -1.764  0.00  0.00    -0.440 N 
ATOM     29  C   LIG    1        1.924  -2.150  -1.690  0.00  0.00    +0.150 A 
ATOM     30  C   LIG    1       -0.414  -2.967  -2.090  0.00  0.00    +0.320 C 
ATOM     31  C   LIG    1        2.534  -0.996  -1.369  0.00  0.00    -0.030 A 
ENDBRANCH  25  26
ENDBRANCH   9  24
TORSDOF 6
