REMARK  Name = ZINCrH000004os0V.0
REMARK                            x       y       z     vdW  Elec       q    Type
REMARK                         _______ _______ _______ _____ _____    ______ ____
ROOT
ATOM      1  N   LIG    1       -3.953   7.172   0.596  0.00  0.00    -0.520 N 
ATOM      2  H   LIG    1       -3.213   7.785   0.726  0.00  0.00    +0.440 HD
ATOM      3  C   LIG    1       -3.739   5.841   0.624  0.00  0.00    +0.520 C 
ATOM      4  O   LIG    1       -4.665   5.075   0.461  0.00  0.00    -0.500 OA
ENDROOT
BRANCH   1   6
ATOM      5  C   LIG    1       -5.459   8.999   0.349  0.00  0.00    +0.520 C 
ATOM      6  N   LIG    1       -5.245   7.669   0.377  0.00  0.00    -0.520 N 
ATOM      7  H   LIG    1       -5.985   7.056   0.247  0.00  0.00    +0.440 HD
ATOM      8  O   LIG    1       -4.534   9.766   0.512  0.00  0.00    -0.510 OA
BRANCH   5  10
ATOM      9  C   LIG    1       -7.752   9.137   1.283  0.00  0.00    +0.060 C 
ATOM     10  C   LIG    1       -6.848   9.534   0.114  0.00  0.00    +0.190 C 
BRANCH  10  11
ATOM     11  O   LIG    1       -6.800  10.958   0.012  0.00  0.00    -0.280 OA
BRANCH  11  12
ATOM     12  C   LIG    1       -7.796  11.562  -0.689  0.00  0.00    +0.090 A 
ATOM     13  C   LIG    1       -8.858  10.812  -1.170  0.00  0.00    -0.050 A 
ATOM     14  C   LIG    1       -9.873  11.428  -1.879  0.00  0.00    +0.050 A 
ATOM     15  C   LIG    1       -9.825  12.789  -2.117  0.00  0.00    +0.020 A 
ATOM     16  C   LIG    1       -8.764  13.539  -1.643  0.00  0.00    +0.030 A 
ATOM     17  C   LIG    1       -7.749  12.929  -0.929  0.00  0.00    +0.080 A 
ATOM     18  F   LIG    1       -6.713  13.662  -0.466  0.00  0.00    -0.130 F 
ENDBRANCH  11  12
ENDBRANCH  10  11
ENDBRANCH   5  10
ENDBRANCH   1   6
BRANCH   3  19
ATOM     19  C   LIG    1       -2.350   5.307   0.859  0.00  0.00    +0.270 C 
BRANCH  19  20
ATOM     20  O   LIG    1       -2.381   3.878   0.845  0.00  0.00    -0.270 OA
BRANCH  20  21
ATOM     21  C   LIG    1       -1.200   3.233   1.043  0.00  0.00    +0.160 A 
ATOM     22  C   LIG    1       -0.038   3.961   1.247  0.00  0.00    -0.020 A 
ATOM     23  C   LIG    1        1.162   3.303   1.449  0.00  0.00    +0.010 A 
ATOM     24  C   LIG    1        1.202   1.919   1.448  0.00  0.00    -0.060 A 
ATOM     25  C   LIG    1        0.043   1.192   1.244  0.00  0.00    +0.110 A 
ATOM     26 CL   LIG    1        2.710   1.096   1.701  0.00  0.00    -0.030 Cl
ATOM     27 CL   LIG    1        2.618   4.214   1.704  0.00  0.00    -0.030 Cl
ATOM     28  C   LIG    1       -1.157   1.846   1.037  0.00  0.00    -0.050 A 
ATOM     29 CL   LIG    1       -2.610   0.932   0.775  0.00  0.00    -0.020 Cl
ENDBRANCH  20  21
ENDBRANCH  19  20
ENDBRANCH   3  19
TORSDOF 7
