REMARK  Name = ZINCrH00000No4QW.0
REMARK                            x       y       z     vdW  Elec       q    Type
REMARK                         _______ _______ _______ _____ _____    ______ ____
ROOT
ATOM      1  C   LIG    1       -4.653   4.628  -0.661  0.00  0.00    -0.100 C 
ATOM      2  C   LIG    1       -5.857   4.129  -1.014  0.00  0.00    +0.140 C 
ENDROOT
BRANCH   2   3
ATOM      3  C   LIG    1       -6.996   5.034  -1.221  0.00  0.00    -0.110 A 
ATOM      4  C   LIG    1       -6.836   6.415  -1.047  0.00  0.00    +0.090 A 
ATOM      5  C   LIG    1       -7.900   7.256  -1.247  0.00  0.00    -0.050 A 
ATOM      6  C   LIG    1       -9.140   6.739  -1.611  0.00  0.00    +0.230 A 
ATOM      7  C   LIG    1       -9.305   5.367  -1.779  0.00  0.00    -0.030 A 
ATOM      8  C   LIG    1       -8.245   4.519  -1.587  0.00  0.00    +0.090 A 
BRANCH   6   9
ATOM      9  N   LIG    1      -10.219   7.596  -1.807  0.00  0.00    -0.930 N 
ATOM     10  C   LIG    1      -11.392   7.339  -2.655  0.00  0.00    +0.260 C 
ATOM     11  C   LIG    1      -12.621   8.086  -2.094  0.00  0.00    +0.090 C 
ATOM     12  C   LIG    1      -12.086   9.511  -1.769  0.00  0.00    -0.290 C 
ATOM     13  S   LIG    1      -10.414   9.110  -1.128  0.00  0.00    +2.560 S 
ATOM     14  O   LIG    1       -9.418   9.921  -1.736  0.00  0.00    -0.940 OA
ATOM     15  O   LIG    1      -10.441   8.887   0.275  0.00  0.00    -0.940 OA
ENDBRANCH   6   9
ENDBRANCH   2   3
BRANCH   1  18
ATOM     16  N   LIG    1       -2.319   4.226  -0.102  0.00  0.00    -0.670 N 
ATOM     17  H   LIG    1       -2.216   5.177   0.056  0.00  0.00    +0.410 HD
ATOM     18  C   LIG    1       -3.521   3.728  -0.455  0.00  0.00    +0.550 C 
ATOM     19  O   LIG    1       -3.663   2.528  -0.601  0.00  0.00    -0.520 OA
BRANCH  16  26
ATOM     20  C   LIG    1       -0.491   3.361   1.218  0.00  0.00    -0.090 A 
ATOM     21  C   LIG    1        0.593   2.515   1.350  0.00  0.00    +0.010 A 
ATOM     22  C   LIG    1        0.952   1.680   0.308  0.00  0.00    +0.000 A 
ATOM     23  C   LIG    1        0.228   1.689  -0.870  0.00  0.00    +0.010 A 
ATOM     24  C   LIG    1       -0.854   2.536  -1.011  0.00  0.00    -0.070 A 
ATOM     25  C   LIG    1       -1.639   2.549  -2.298  0.00  0.00    +0.090 C 
ATOM     26  C   LIG    1       -1.221   3.371   0.035  0.00  0.00    +0.140 A 
BRANCH  20  28
ATOM     27  C   LIG    1       -1.971   3.600   3.193  0.00  0.00    +0.020 C 
ATOM     28  C   LIG    1       -0.882   4.271   2.353  0.00  0.00    +0.060 C 
ENDBRANCH  20  28
ENDBRANCH  16  26
ENDBRANCH   1  18
TORSDOF 5
