REMARK  Name = ZINCvU0000000AJ1.0
REMARK                            x       y       z     vdW  Elec       q    Type
REMARK                         _______ _______ _______ _____ _____    ______ ____
ROOT
ATOM      1  C   LIG    1        5.162   3.443   0.276  0.00  0.00    +0.540 C 
ATOM      2  N   LIG    1        5.785   4.638   0.253  0.00  0.00    -0.720 N 
ATOM      3  H   LIG    1        5.271   5.454   0.359  0.00  0.00    +0.400 HD
ATOM      4  O   LIG    1        5.789   2.429   0.053  0.00  0.00    -0.520 OA
ENDROOT
BRANCH   1   5
ATOM      5  C   LIG    1        3.688   3.367   0.579  0.00  0.00    +0.100 C 
BRANCH   5   6
ATOM      6  S   LIG    1        3.151   1.639   0.535  0.00  0.00    +0.090 S 
BRANCH   6  11
ATOM      7  N   LIG    1        0.510   0.844   1.018  0.00  0.00    -0.420 N 
ATOM      8  C   LIG    1       -0.669   1.473   1.322  0.00  0.00    +0.400 A 
ATOM      9  N   LIG    1       -0.421   2.750   1.385  0.00  0.00    -0.280 NA
ATOM     10  N   LIG    1        0.821   2.973   1.145  0.00  0.00    -0.290 NA
ATOM     11  C   LIG    1        1.442   1.839   0.912  0.00  0.00    +0.150 A 
BRANCH   7  16
ATOM     12  C   LIG    1        1.348  -4.728   0.336  0.00  0.00    +0.110 C 
ATOM     13  C   LIG    1        1.125  -3.249   0.517  0.00  0.00    -0.070 A 
ATOM     14  C   LIG    1        1.581  -2.361  -0.439  0.00  0.00    +0.040 A 
ATOM     15  C   LIG    1        1.373  -1.004  -0.279  0.00  0.00    +0.020 A 
ATOM     16  C   LIG    1        0.717  -0.533   0.850  0.00  0.00    +0.100 A 
ATOM     17  C   LIG    1        0.261  -1.427   1.809  0.00  0.00    +0.030 A 
ATOM     18  C   LIG    1        0.466  -2.782   1.640  0.00  0.00    -0.070 A 
ATOM     19  C   LIG    1       -0.029  -3.754   2.680  0.00  0.00    +0.110 C 
ENDBRANCH   7  16
ENDBRANCH   6  11
ENDBRANCH   5   6
ENDBRANCH   1   5
BRANCH   2  20
ATOM     20  C   LIG    1        7.237   4.704   0.069  0.00  0.00    +0.300 C 
BRANCH  20  21
ATOM     21  C   LIG    1        7.614   6.062  -0.465  0.00  0.00    -0.100 A 
ATOM     22  C   LIG    1        6.881   7.176  -0.098  0.00  0.00    +0.040 A 
ATOM     23  C   LIG    1        7.230   8.423  -0.583  0.00  0.00    -0.010 A 
ATOM     24  C   LIG    1        8.306   8.554  -1.444  0.00  0.00    +0.100 A 
ATOM     25  C   LIG    1        9.035   7.437  -1.815  0.00  0.00    -0.010 A 
ATOM     26  F   LIG    1        8.644   9.772  -1.923  0.00  0.00    -0.140 F 
ATOM     27  C   LIG    1        8.688   6.192  -1.325  0.00  0.00    +0.060 A 
ENDBRANCH  20  21
BRANCH  20  28
ATOM     28  C   LIG    1        7.933   4.473   1.412  0.00  0.00    -0.020 C 
ATOM     29  C   LIG    1        7.517   5.566   2.417  0.00  0.00    +0.000 C 
ATOM     30  C   LIG    1        8.807   5.847   3.228  0.00  0.00    +0.010 C 
ATOM     31  C   LIG    1        9.915   5.748   2.150  0.00  0.00    +0.000 C 
ATOM     32  C   LIG    1        9.457   4.589   1.242  0.00  0.00    +0.020 C 
ENDBRANCH  20  28
ENDBRANCH   2  20
TORSDOF 7
