REMARK  Name = ZINCpk00000k9IQo.0
REMARK                            x       y       z     vdW  Elec       q    Type
REMARK                         _______ _______ _______ _____ _____    ______ ____
ROOT
ATOM      1  C   LIG    1       -3.087   7.153   0.122  0.00  0.00    +0.250 A 
ATOM      2  N   LIG    1       -4.334   6.778   0.012  0.00  0.00    -0.310 NA
ATOM      3  N   LIG    1       -4.342   5.374  -0.022  0.00  0.00    -0.320 N 
ATOM      4  C   LIG    1       -3.038   4.985   0.074  0.00  0.00    +0.430 A 
ATOM      5  N   LIG    1       -2.303   6.078   0.166  0.00  0.00    -0.520 NA
ENDROOT
BRANCH   4   6
ATOM      6  C   LIG    1       -2.541   3.598   0.081  0.00  0.00    -0.230 A 
ATOM      7  C   LIG    1       -1.669   3.012  -0.849  0.00  0.00    +0.100 A 
ATOM      8  N   LIG    1       -1.033   3.461  -1.972  0.00  0.00    -0.490 N 
ATOM      9  H   LIG    1       -1.159   4.378  -2.261  0.00  0.00    +0.420 HD
ATOM     10  C   LIG    1       -0.235   2.643  -2.679  0.00  0.00    +0.310 A 
ATOM     11  C   LIG    1       -0.034   1.349  -2.303  0.00  0.00    -0.040 A 
ATOM     12  C   LIG    1       -0.653   0.838  -1.170  0.00  0.00    +0.190 A 
ATOM     13  C   LIG    1       -1.492   1.671  -0.424  0.00  0.00    +0.040 A 
ATOM     14  N   LIG    1       -2.215   1.492   0.696  0.00  0.00    -0.510 NA
ATOM     15  C   LIG    1       -2.846   2.599   1.019  0.00  0.00    +0.350 A 
ENDBRANCH   4   6
BRANCH   3  16
ATOM     16  C   LIG    1       -5.456   4.547  -0.132  0.00  0.00    +0.510 A 
ATOM     17  N   LIG    1       -5.450   3.233  -0.091  0.00  0.00    -0.520 NA
ATOM     18  C   LIG    1       -6.694   2.774  -0.224  0.00  0.00    +0.240 A 
ATOM     19  N   LIG    1       -7.511   3.784  -0.362  0.00  0.00    -0.300 NA
ATOM     20  C   LIG    1       -7.094   1.321  -0.223  0.00  0.00    +0.210 C 
ATOM     21  N   LIG    1       -6.731   4.951  -0.306  0.00  0.00    -0.370 N 
ATOM     22  C   LIG    1       -7.208   6.332  -0.413  0.00  0.00    +0.380 C 
ENDBRANCH   3  16
BRANCH   1  23
ATOM     23  C   LIG    1       -2.611   8.581   0.195  0.00  0.00    +0.180 C 
BRANCH  23  24
ATOM     24  C   LIG    1       -2.566   9.030   1.657  0.00  0.00    +0.180 C 
BRANCH  24  26
ATOM     25  C   LIG    1       -2.036  10.904   3.054  0.00  0.00    +0.200 C 
ATOM     26  O   LIG    1       -2.115  10.384   1.725  0.00  0.00    -0.390 OA
ENDBRANCH  24  26
ENDBRANCH  23  24
ENDBRANCH   1  23
TORSDOF 5
