REMARK  Name = ZINCqH0000050rzX.0
REMARK                            x       y       z     vdW  Elec       q    Type
REMARK                         _______ _______ _______ _____ _____    ______ ____
ROOT
ATOM      1  C   LIG    1        5.836  -0.596  -1.460  0.00  0.00    +0.550 C 
ATOM      2  O   LIG    1        6.682  -0.716  -0.595  0.00  0.00    -0.480 OA
ENDROOT
BRANCH   1   3
ATOM      3  C   LIG    1        5.932  -1.385  -2.697  0.00  0.00    -0.160 A 
ATOM      4  C   LIG    1        5.403  -2.617  -2.929  0.00  0.00    +0.080 A 
ATOM      5  O   LIG    1        5.707  -2.999  -4.175  0.00  0.00    -0.150 OA
ATOM      6  C   LIG    1        6.430  -2.066  -4.809  0.00  0.00    +0.310 A 
ATOM      7  C   LIG    1        4.603  -3.424  -1.939  0.00  0.00    +0.210 C 
ATOM      8  C   LIG    1        6.618  -1.002  -3.951  0.00  0.00    -0.100 A 
BRANCH   6   9
ATOM      9  N   LIG    1        6.905  -2.154  -6.111  0.00  0.00    -0.380 N 
ATOM     10  C   LIG    1        7.638  -1.198  -6.759  0.00  0.00    +0.160 A 
ATOM     11  C   LIG    1        7.911  -1.647  -8.000  0.00  0.00    +0.000 A 
ATOM     12  C   LIG    1        7.321  -2.921  -8.130  0.00  0.00    -0.020 A 
ATOM     13  C   LIG    1        6.712  -3.207  -6.962  0.00  0.00    +0.170 A 
ENDBRANCH   6   9
BRANCH   8  14
ATOM     14  C   LIG    1        7.329   0.213  -4.217  0.00  0.00    +0.270 C 
ATOM     15  N   LIG    1        7.892   1.177  -4.428  0.00  0.00    -0.390 NA
ENDBRANCH   8  14
ENDBRANCH   1   3
BRANCH   1  16
ATOM     16  O   LIG    1        4.810   0.261  -1.285  0.00  0.00    -0.340 OA
BRANCH  16  17
ATOM     17  C   LIG    1        4.780   1.007  -0.039  0.00  0.00    +0.260 C 
BRANCH  17  18
ATOM     18  C   LIG    1        3.553   1.921  -0.022  0.00  0.00    +0.230 C 
BRANCH  18  19
ATOM     19  O   LIG    1        2.366   1.125  -0.015  0.00  0.00    -0.310 OA
BRANCH  19  24
ATOM     20  C   LIG    1       -2.553   3.867   0.046  0.00  0.00    +0.100 C 
ATOM     21  C   LIG    1       -1.237   3.133   0.030  0.00  0.00    -0.120 A 
ATOM     22  C   LIG    1       -1.218   1.751   0.017  0.00  0.00    +0.050 A 
ATOM     23  C   LIG    1       -0.013   1.076   0.008  0.00  0.00    -0.020 A 
ATOM     24  C   LIG    1        1.179   1.786   0.000  0.00  0.00    +0.120 A 
ATOM     25  C   LIG    1        1.157   3.174   0.008  0.00  0.00    -0.080 A 
ATOM     26  C   LIG    1       -0.051   3.844   0.023  0.00  0.00    +0.050 A 
ENDBRANCH  19  24
ENDBRANCH  18  19
ENDBRANCH  17  18
ENDBRANCH  16  17
ENDBRANCH   1  16
TORSDOF 8
