REMARK  Name = ZINCvU0000000BXc.0
REMARK                            x       y       z     vdW  Elec       q    Type
REMARK                         _______ _______ _______ _____ _____    ______ ____
ROOT
ATOM      1  C   LIG    1        5.589  -2.280  -1.424  0.00  0.00    +0.090 C 
ATOM      2  C   LIG    1        5.914  -1.953  -0.156  0.00  0.00    -0.070 C 
ATOM      3  C   LIG    1        6.957  -2.749   0.569  0.00  0.00    +0.090 C 
ATOM      4  C   LIG    1        7.113  -2.382   2.031  0.00  0.00    +0.010 C 
ATOM      5  C   LIG    1        6.865  -0.902   2.314  0.00  0.00    +0.050 C 
ATOM      6  C   LIG    1        5.410  -0.586   1.964  0.00  0.00    +0.020 C 
ATOM      7  C   LIG    1        5.119   0.922   2.048  0.00  0.00    +0.270 C 
ATOM      8  N   LIG    1        4.287   1.133   0.841  0.00  0.00    -0.470 N 
ATOM      9  C   LIG    1        3.428   2.151   0.635  0.00  0.00    +0.580 C 
ATOM     10  O   LIG    1        3.329   3.038   1.457  0.00  0.00    -0.520 OA
ATOM     11  N   LIG    1        4.551   0.082  -0.045  0.00  0.00    -0.220 NA
ATOM     12  C   LIG    1        5.251  -0.866   0.475  0.00  0.00    +0.140 C 
ENDROOT
BRANCH   1  18
ATOM     13  C   LIG    1        4.552  -1.152  -3.389  0.00  0.00    +0.150 A 
ATOM     14  C   LIG    1        3.462  -0.549  -3.994  0.00  0.00    -0.080 A 
ATOM     15  C   LIG    1        2.268  -0.427  -3.308  0.00  0.00    +0.050 A 
ATOM     16  C   LIG    1        2.150  -0.904  -2.014  0.00  0.00    -0.040 A 
ATOM     17  C   LIG    1        3.223  -1.512  -1.397  0.00  0.00    +0.090 A 
ATOM     18  C   LIG    1        4.438  -1.637  -2.077  0.00  0.00    -0.090 A 
BRANCH  13  20
ATOM     19  C   LIG    1        5.766  -0.755  -5.393  0.00  0.00    +0.250 C 
ATOM     20  O   LIG    1        5.725  -1.272  -4.062  0.00  0.00    -0.310 OA
ENDBRANCH  13  20
ENDBRANCH   1  18
BRANCH   7  21
ATOM     21  C   LIG    1        6.393   1.724   1.973  0.00  0.00    -0.120 A 
ATOM     22  C   LIG    1        6.840   2.199   0.756  0.00  0.00    +0.050 A 
ATOM     23  C   LIG    1        8.006   2.939   0.687  0.00  0.00    -0.030 A 
ATOM     24  C   LIG    1        8.733   3.196   1.835  0.00  0.00    +0.050 A 
ATOM     25  C   LIG    1        8.292   2.719   3.054  0.00  0.00    -0.080 A 
ATOM     26  C   LIG    1        7.120   1.980   3.127  0.00  0.00    +0.140 A 
BRANCH  26  27
ATOM     27  O   LIG    1        6.685   1.510   4.325  0.00  0.00    -0.310 OA
ATOM     28  C   LIG    1        7.485   1.812   5.470  0.00  0.00    +0.250 C 
ENDBRANCH  26  27
ENDBRANCH   7  21
BRANCH   9  29
ATOM     29  C   LIG    1        2.588   2.186  -0.616  0.00  0.00    -0.050 C 
ATOM     30  C   LIG    1        2.066   3.548  -1.078  0.00  0.00    +0.050 C 
ATOM     31  C   LIG    1        1.105   2.529  -0.462  0.00  0.00    +0.050 C 
ENDBRANCH   9  29
TORSDOF 5
