REMARK  Name = ZINCqH0000000orN.0
REMARK                            x       y       z     vdW  Elec       q    Type
REMARK                         _______ _______ _______ _____ _____    ______ ____
ROOT
ATOM      1  C   LIG    1        0.928   3.642  -0.671  0.00  0.00    +0.010 C 
ATOM      2  C   LIG    1       -0.124   4.475   0.064  0.00  0.00    +0.020 C 
ATOM      3  C   LIG    1       -0.470   5.707  -0.776  0.00  0.00    +0.170 C 
ATOM      4  N   LIG    1       -0.984   5.281  -2.084  0.00  0.00    -0.530 NA
ATOM      5  C   LIG    1        0.026   4.518  -2.828  0.00  0.00    +0.180 C 
ATOM      6  C   LIG    1        0.387   3.251  -2.050  0.00  0.00    +0.030 C 
ENDROOT
BRANCH   1  15
ATOM      7  C   LIG    1        2.436   4.410   3.107  0.00  0.00    +0.070 C 
ATOM      8  C   LIG    1        2.194   3.928   1.700  0.00  0.00    +0.510 C 
ATOM      9  N   LIG    1        1.587   2.743   1.488  0.00  0.00    -0.600 N 
ATOM     10  C   LIG    1        1.306   1.875   2.648  0.00  0.00    +0.260 C 
ATOM     11  C   LIG    1        1.610   0.395   2.353  0.00  0.00    +0.020 C 
ATOM     12  C   LIG    1        2.884   0.277   1.555  0.00  0.00    +0.000 C 
ATOM     13  C   LIG    1        2.550   0.278   0.066  0.00  0.00    +0.000 C 
ATOM     14  C   LIG    1        2.413   1.619  -0.523  0.00  0.00    +0.010 C 
ATOM     15  C   LIG    1        1.234   2.377   0.135  0.00  0.00    +0.240 C 
ATOM     16  O   LIG    1        2.546   4.606   0.758  0.00  0.00    -0.530 OA
ENDBRANCH   1  15
BRANCH   4  17
ATOM     17  C   LIG    1       -1.456   6.432  -2.865  0.00  0.00    +0.230 C 
BRANCH  17  18
ATOM     18  C   LIG    1       -2.384   5.955  -3.952  0.00  0.00    -0.000 A 
ATOM     19  C   LIG    1       -1.952   5.916  -5.260  0.00  0.00    -0.010 A 
ATOM     20  C   LIG    1       -2.804   5.473  -6.261  0.00  0.00    +0.130 A 
ATOM     21  C   LIG    1       -4.096   5.076  -5.954  0.00  0.00    +0.000 A 
ATOM     22  C   LIG    1       -4.540   5.116  -4.649  0.00  0.00    +0.100 A 
ATOM     23  F   LIG    1       -2.373   5.431  -7.541  0.00  0.00    -0.130 F 
ATOM     24  C   LIG    1       -3.685   5.556  -3.636  0.00  0.00    -0.020 A 
BRANCH  24  25
ATOM     25  C   LIG    1       -4.141   5.600  -2.280  0.00  0.00    +0.260 C 
ATOM     26  N   LIG    1       -4.503   5.634  -1.203  0.00  0.00    -0.410 NA
ENDBRANCH  24  25
ENDBRANCH  17  18
ENDBRANCH   4  17
TORSDOF 4
