REMARK  Name = ZINCrH000004rqiJ.0
REMARK                            x       y       z     vdW  Elec       q    Type
REMARK                         _______ _______ _______ _____ _____    ______ ____
ROOT
ATOM      1  C   LIG    1        1.254   2.100   0.012  0.00  0.00    -0.090 A 
ATOM      2  C   LIG    1        2.474   1.421   0.007  0.00  0.00    +0.030 A 
ATOM      3  C   LIG    1        3.656   2.133   0.002  0.00  0.00    +0.130 A 
ATOM      4  C   LIG    1        3.634   3.516   0.013  0.00  0.00    -0.610 A 
ATOM      5  C   LIG    1        2.428   4.195   0.022  0.00  0.00    +0.130 A 
ATOM      6  C   LIG    1        1.239   3.495   0.022  0.00  0.00    +0.070 A 
ENDROOT
BRANCH   1   9
ATOM      7  N   LIG    1        0.002  -0.004   0.002  0.00  0.00    -0.660 N 
ATOM      8  H   LIG    1        0.845  -0.477  -0.084  0.00  0.00    +0.410 HD
ATOM      9  C   LIG    1       -0.016   1.343   0.012  0.00  0.00    +0.560 C 
ATOM     10  O   LIG    1       -1.077   1.937   0.016  0.00  0.00    -0.500 OA
BRANCH   7  15
ATOM     11  C   LIG    1       -4.849  -2.908   0.460  0.00  0.00    +0.100 C 
ATOM     12  C   LIG    1       -3.560  -2.137   0.338  0.00  0.00    -0.100 A 
ATOM     13  C   LIG    1       -3.474  -0.853   0.844  0.00  0.00    +0.030 A 
ATOM     14  C   LIG    1       -2.295  -0.143   0.735  0.00  0.00    +0.030 A 
ATOM     15  C   LIG    1       -1.194  -0.720   0.115  0.00  0.00    +0.140 A 
ATOM     16  C   LIG    1       -1.285  -2.008  -0.397  0.00  0.00    -0.110 A 
ATOM     17  C   LIG    1       -0.095  -2.636  -1.076  0.00  0.00    +0.080 C 
ATOM     18  C   LIG    1       -2.466  -2.715  -0.279  0.00  0.00    +0.030 A 
ENDBRANCH   7  15
ENDBRANCH   1   9
BRANCH   4  19
ATOM     19  S   LIG    1        5.148   4.418   0.014  0.00  0.00    +2.630 S 
ATOM     20  O   LIG    1        4.851   5.701  -0.520  0.00  0.00    -0.980 OA
ATOM     21  O   LIG    1        6.130   3.553  -0.541  0.00  0.00    -0.980 OA
BRANCH  19  22
ATOM     22  N   LIG    1        5.575   4.656   1.596  0.00  0.00    -0.990 NA
ATOM     23  C   LIG    1        6.684   5.313   1.889  0.00  0.00    +0.380 A 
ATOM     24  C   LIG    1        7.564   5.841   0.836  0.00  0.00    -0.150 A 
ATOM     25  C   LIG    1        8.795   6.259   1.187  0.00  0.00    +0.350 A 
ATOM     26  N   LIG    1        9.214   6.177   2.479  0.00  0.00    -0.600 N 
ATOM     27  H   LIG    1       10.161   6.268   2.672  0.00  0.00    +0.430 HD
ATOM     28  C   LIG    1        8.351   5.971   3.511  0.00  0.00    +0.310 A 
ATOM     29  C   LIG    1        7.093   5.543   3.282  0.00  0.00    -0.020 A 
ENDBRANCH  19  22
ENDBRANCH   4  19
TORSDOF 4
