REMARK  Name = ZINCkj000005mg4z.0
REMARK                            x       y       z     vdW  Elec       q    Type
REMARK                         _______ _______ _______ _____ _____    ______ ____
ROOT
ATOM      1  O   LIG    1        2.493  -0.481  -0.138  0.00  0.00    -0.930 OA
ATOM      2  S   LIG    1        2.791   0.901   0.009  0.00  0.00    +2.700 S 
ATOM      3  O   LIG    1        1.823   1.869   0.391  0.00  0.00    -0.950 OA
ENDROOT
BRANCH   2   4
ATOM      4  C   LIG    1        4.093   1.006   1.191  0.00  0.00    -0.700 A 
ATOM      5  C   LIG    1        4.002   1.899   2.242  0.00  0.00    +0.150 A 
ATOM      6  C   LIG    1        5.027   1.986   3.167  0.00  0.00    -0.020 A 
ATOM      7  C   LIG    1        6.138   1.173   3.049  0.00  0.00    +0.120 A 
ATOM      8  C   LIG    1        6.234   0.279   2.000  0.00  0.00    -0.060 A 
ATOM      9  C   LIG    1        5.210   0.193   1.068  0.00  0.00    +0.210 A 
BRANCH   9  10
ATOM     10  O   LIG    1        5.302  -0.685   0.035  0.00  0.00    -0.320 OA
BRANCH  10  11
ATOM     11  C   LIG    1        6.481  -1.490  -0.029  0.00  0.00    +0.610 C 
ATOM     12  F   LIG    1        6.581  -2.264   1.132  0.00  0.00    -0.190 F 
ATOM     13  F   LIG    1        7.604  -0.664  -0.137  0.00  0.00    -0.190 F 
ENDBRANCH  10  11
ENDBRANCH   9  10
ENDBRANCH   2   4
BRANCH   2  14
ATOM     14  N   LIG    1        3.406   1.403  -1.444  0.00  0.00    -1.110 NA
ATOM     15  H   LIG    1        3.479   0.778  -2.182  0.00  0.00    +0.430 HD
BRANCH  14  16
ATOM     16  C   LIG    1        3.840   2.792  -1.615  0.00  0.00    +0.250 C 
ATOM     17  C   LIG    1        5.354   2.885  -1.401  0.00  0.00    +0.030 C 
ATOM     18  C   LIG    1        5.808   4.324  -1.659  0.00  0.00    +0.060 C 
ATOM     19  C   LIG    1        5.396   4.739  -3.073  0.00  0.00    +0.260 C 
ATOM     20  N   LIG    1        3.936   4.654  -3.205  0.00  0.00    -0.500 N 
ATOM     21  H   LIG    1        3.503   5.232  -2.501  0.00  0.00    +0.430 HD
ATOM     22  H   LIG    1        3.663   4.979  -4.120  0.00  0.00    +0.440 HD
ATOM     23  C   LIG    1        3.500   3.263  -3.030  0.00  0.00    +0.260 C 
ENDBRANCH  14  16
ENDBRANCH   2  14
TORSDOF 5
