REMARK  Name = ZINCpk00000y6yIP.0
REMARK                            x       y       z     vdW  Elec       q    Type
REMARK                         _______ _______ _______ _____ _____    ______ ____
ROOT
ATOM      1  C   LIG    1       -2.200   2.025   0.360  0.00  0.00    -0.350 C 
ENDROOT
BRANCH   1   2
ATOM      2  C   LIG    1       -1.430   1.515  -0.860  0.00  0.00    +0.000 C 
ATOM      3  C   LIG    1       -0.552   2.638  -1.416  0.00  0.00    +0.040 C 
ATOM      4  C   LIG    1        0.194   2.139  -2.656  0.00  0.00    +0.020 C 
ATOM      5  C   LIG    1        1.098   0.966  -2.265  0.00  0.00    +0.260 C 
ATOM      6  N   LIG    1        0.283  -0.058  -1.598  0.00  0.00    -0.610 N 
ATOM      7  C   LIG    1        0.293  -1.334  -2.033  0.00  0.00    +0.590 C 
ATOM      8  O   LIG    1       -0.336  -2.186  -1.433  0.00  0.00    -0.510 OA
ATOM      9  C   LIG    1       -0.544   0.335  -0.449  0.00  0.00    +0.280 C 
BRANCH   7  10
ATOM     10  C   LIG    1        1.061  -1.696  -3.228  0.00  0.00    -0.270 A 
ATOM     11  C   LIG    1        0.618  -2.495  -4.243  0.00  0.00    +0.090 A 
ATOM     12  C   LIG    1        1.544  -2.666  -5.245  0.00  0.00    +0.010 A 
ATOM     13  C   LIG    1        2.710  -2.038  -5.053  0.00  0.00    -0.070 A 
ATOM     14  S   LIG    1        2.704  -1.176  -3.580  0.00  0.00    +0.210 S 
ENDBRANCH   7  10
ENDBRANCH   1   2
BRANCH   1  15
ATOM     15  S   LIG    1       -3.347   0.741   0.931  0.00  0.00    +2.600 S 
ATOM     16  O   LIG    1       -2.631  -0.362   1.472  0.00  0.00    -0.950 OA
ATOM     17  O   LIG    1       -4.388   0.545  -0.015  0.00  0.00    -0.950 OA
BRANCH  15  18
ATOM     18  N   LIG    1       -4.105   1.417   2.239  0.00  0.00    -1.120 NA
ATOM     19  H   LIG    1       -3.976   1.038   3.123  0.00  0.00    +0.420 HD
BRANCH  18  20
ATOM     20  C   LIG    1       -4.971   2.585   2.061  0.00  0.00    +0.350 C 
BRANCH  20  24
ATOM     21  C   LIG    1       -6.560   4.090   6.570  0.00  0.00    +0.360 C 
ATOM     22  N   LIG    1       -6.500   3.438   5.260  0.00  0.00    -0.370 N 
ATOM     23  C   LIG    1       -5.483   3.521   4.377  0.00  0.00    +0.260 A 
ATOM     24  C   LIG    1       -5.814   2.779   3.295  0.00  0.00    -0.260 A 
ATOM     25  C   LIG    1       -7.079   2.227   3.522  0.00  0.00    +0.260 A 
ATOM     26  N   LIG    1       -7.489   2.617   4.702  0.00  0.00    -0.290 NA
ENDBRANCH  20  24
ENDBRANCH  18  20
ENDBRANCH  15  18
ENDBRANCH   1  15
TORSDOF 6
