REMARK  Name = ZINCrH000004rqiT.0
REMARK                            x       y       z     vdW  Elec       q    Type
REMARK                         _______ _______ _______ _____ _____    ______ ____
ROOT
ATOM      1  C   LIG    1       -7.105   2.992   2.111  0.00  0.00    -0.100 A 
ATOM      2  C   LIG    1       -5.891   3.086   2.799  0.00  0.00    +0.100 A 
ATOM      3  C   LIG    1       -4.725   2.686   2.187  0.00  0.00    +0.120 A 
ATOM      4  C   LIG    1       -4.758   2.189   0.886  0.00  0.00    -0.070 A 
ATOM      5  C   LIG    1       -5.967   2.101   0.201  0.00  0.00    +0.010 A 
ATOM      6  C   LIG    1       -7.128   2.492   0.805  0.00  0.00    +0.170 A 
ENDROOT
BRANCH   1   9
ATOM      7  N   LIG    1       -8.334   3.903   4.018  0.00  0.00    -0.660 N 
ATOM      8  H   LIG    1       -7.487   4.032   4.472  0.00  0.00    +0.410 HD
ATOM      9  C   LIG    1       -8.358   3.420   2.760  0.00  0.00    +0.560 C 
ATOM     10  O   LIG    1       -9.413   3.338   2.160  0.00  0.00    -0.500 OA
BRANCH   7  15
ATOM     11  C   LIG    1      -13.189   5.177   6.660  0.00  0.00    +0.090 C 
ATOM     12  C   LIG    1      -11.899   4.838   5.958  0.00  0.00    -0.090 A 
ATOM     13  C   LIG    1      -11.779   5.049   4.597  0.00  0.00    +0.030 A 
ATOM     14  C   LIG    1      -10.596   4.745   3.952  0.00  0.00    +0.020 A 
ATOM     15  C   LIG    1       -9.531   4.217   4.670  0.00  0.00    +0.130 A 
ATOM     16  C   LIG    1       -9.655   4.007   6.037  0.00  0.00    -0.010 A 
ATOM     17  C   LIG    1      -10.838   4.318   6.677  0.00  0.00    -0.070 A 
ATOM     18  C   LIG    1      -10.974   4.091   8.161  0.00  0.00    +0.090 C 
ENDBRANCH   7  15
ENDBRANCH   1   9
BRANCH   5  19
ATOM     19  N   LIG    1       -5.995   1.578  -1.183  0.00  0.00    +0.020 N 
ATOM     20  O   LIG    1       -4.961   1.224  -1.721  0.00  0.00    -0.130 OA
ATOM     21  O   LIG    1       -7.051   1.500  -1.784  0.00  0.00    -0.150 OA
ENDBRANCH   5  19
BRANCH   4  22
ATOM     22  S   LIG    1       -3.265   1.676   0.104  0.00  0.00    +0.170 S 
BRANCH  22  23
ATOM     23  C   LIG    1       -3.426  -0.072   0.252  0.00  0.00    +0.140 A 
ATOM     24  N   LIG    1       -4.376  -0.717   0.888  0.00  0.00    -0.290 NA
ATOM     25  N   LIG    1       -4.180  -1.984   0.798  0.00  0.00    -0.290 NA
ATOM     26  C   LIG    1       -3.105  -2.221   0.100  0.00  0.00    +0.400 A 
ATOM     27  N   LIG    1       -2.588  -1.012  -0.275  0.00  0.00    -0.460 N 
ATOM     28  C   LIG    1       -1.382  -0.775  -1.071  0.00  0.00    +0.350 C 
ENDBRANCH  22  23
ENDBRANCH   4  22
TORSDOF 5
