REMARK  Name = ZINCnE000001TYBp.1
REMARK                            x       y       z     vdW  Elec       q    Type
REMARK                         _______ _______ _______ _____ _____    ______ ____
ROOT
ATOM      1  N   LIG    1       -1.216   3.585   0.714  0.00  0.00    -0.680 NA
ATOM      2  C   LIG    1       -0.031   4.226   0.692  0.00  0.00    +0.500 C 
ATOM      3  O   LIG    1        0.081   5.312   1.221  0.00  0.00    -0.560 OA
ENDROOT
BRANCH   1  11
ATOM      4  O   LIG    1       -2.778   7.702   3.556  0.00  0.00    -0.440 OA
ATOM      5  C   LIG    1       -3.690   6.981   3.207  0.00  0.00    +0.420 C 
ATOM      6  C   LIG    1       -5.142   7.323   3.484  0.00  0.00    +0.040 C 
ATOM      7  C   LIG    1       -5.854   6.056   3.969  0.00  0.00    +0.030 C 
ATOM      8  C   LIG    1       -5.884   5.009   2.853  0.00  0.00    +0.120 C 
ATOM      9  C   LIG    1       -4.484   4.802   2.324  0.00  0.00    -0.300 A 
ATOM     10  S   LIG    1       -3.914   3.455   1.446  0.00  0.00    +0.050 S 
ATOM     11  C   LIG    1       -2.309   4.167   1.343  0.00  0.00    +0.350 A 
ATOM     12  N   LIG    1       -2.301   5.316   1.935  0.00  0.00    -0.510 NA
ATOM     13  C   LIG    1       -3.457   5.707   2.483  0.00  0.00    +0.020 A 
ENDBRANCH   1  11
BRANCH   2  14
ATOM     14  C   LIG    1        1.155   3.595   0.010  0.00  0.00    -0.080 C 
ATOM     15  C   LIG    1        1.239   3.712  -1.513  0.00  0.00    +0.040 C 
ATOM     16  C   LIG    1        2.183   4.530  -0.629  0.00  0.00    +0.040 C 
BRANCH  14  17
ATOM     17  C   LIG    1        1.666   2.325   0.639  0.00  0.00    -0.050 A 
ATOM     18  C   LIG    1        1.586   1.130  -0.051  0.00  0.00    +0.050 A 
ATOM     19  C   LIG    1        2.055  -0.035   0.527  0.00  0.00    -0.010 A 
ATOM     20  C   LIG    1        2.604  -0.007   1.795  0.00  0.00    +0.030 A 
ATOM     21  C   LIG    1        2.686   1.187   2.487  0.00  0.00    -0.030 A 
ATOM     22  C   LIG    1        2.217   2.354   1.910  0.00  0.00    +0.110 A 
ATOM     23  F   LIG    1        2.291   3.521   2.587  0.00  0.00    -0.130 F 
ENDBRANCH  14  17
ENDBRANCH   2  14
TORSDOF 3
