REMARK  Name = ZINCpk00000y6wEb.0
REMARK                            x       y       z     vdW  Elec       q    Type
REMARK                         _______ _______ _______ _____ _____    ______ ____
ROOT
ATOM      1  N   LIG    1       -2.816   1.020   0.078  0.00  0.00    -0.590 N 
ATOM      2  C   LIG    1       -2.231   1.312  -1.084  0.00  0.00    +0.520 C 
ATOM      3  C   LIG    1       -0.763   1.598  -1.224  0.00  0.00    +0.090 C 
ATOM      4  C   LIG    1       -0.013   1.086   0.008  0.00  0.00    +0.060 C 
ATOM      5  C   LIG    1       -0.741   1.585   1.262  0.00  0.00    +0.000 C 
ATOM      6  O   LIG    1       -2.921   1.350  -2.080  0.00  0.00    -0.540 OA
ATOM      7  C   LIG    1       -2.103   0.895   1.344  0.00  0.00    +0.350 C 
ENDROOT
BRANCH   7   8
ATOM      8  C   LIG    1       -2.919   1.531   2.440  0.00  0.00    +0.190 A 
ATOM      9  N   LIG    1       -3.515   2.689   2.369  0.00  0.00    -0.480 NA
ATOM     10  C   LIG    1       -4.148   2.932   3.527  0.00  0.00    +0.140 A 
ATOM     11  C   LIG    1       -3.928   1.888   4.349  0.00  0.00    +0.120 A 
ATOM     12  N   LIG    1       -3.148   0.999   3.660  0.00  0.00    -0.430 N 
ATOM     13  C   LIG    1       -2.656  -0.289   4.153  0.00  0.00    +0.340 C 
ENDBRANCH   7   8
BRANCH   5  14
ATOM     14  C   LIG    1        0.072   1.249   2.486  0.00  0.00    +0.530 C 
ATOM     15  N   LIG    1        1.321   1.738   2.620  0.00  0.00    -0.730 N 
ATOM     16  H   LIG    1        1.697   2.305   1.929  0.00  0.00    +0.400 HD
ATOM     17  O   LIG    1       -0.398   0.540   3.350  0.00  0.00    -0.530 OA
BRANCH  15  18
ATOM     18  C   LIG    1        2.111   1.411   3.810  0.00  0.00    +0.280 C 
BRANCH  18  19
ATOM     19  C   LIG    1        3.480   2.087   3.714  0.00  0.00    +0.110 C 
BRANCH  19  20
ATOM     20  C   LIG    1        4.293   1.751   4.938  0.00  0.00    +0.010 A 
ATOM     21  C   LIG    1        5.045   0.644   5.109  0.00  0.00    -0.050 A 
ATOM     22  C   LIG    1        5.632   0.727   6.387  0.00  0.00    -0.060 A 
ATOM     23  C   LIG    1        5.217   1.880   6.948  0.00  0.00    +0.150 A 
ATOM     24  N   LIG    1        4.399   2.516   6.062  0.00  0.00    -0.560 N 
ATOM     25  H   LIG    1        3.964   3.370   6.207  0.00  0.00    +0.410 HD
ENDBRANCH  19  20
ENDBRANCH  18  19
ENDBRANCH  15  18
ENDBRANCH   5  14
BRANCH   1  27
ATOM     26  C   LIG    1       -4.569  -0.667  -0.167  0.00  0.00    +0.010 C 
ATOM     27  C   LIG    1       -4.266   0.812   0.083  0.00  0.00    +0.280 C 
ENDBRANCH   1  27
TORSDOF 6
