REMARK  Name = ZINCrH00000tj117.0
REMARK                            x       y       z     vdW  Elec       q    Type
REMARK                         _______ _______ _______ _____ _____    ______ ____
ROOT
ATOM      1  C   LIG    1       -1.206  -0.821   0.131  0.00  0.00    +0.350 C 
ENDROOT
BRANCH   1  10
ATOM      2  C   LIG    1       -0.575  -3.031   1.183  0.00  0.00    +0.270 A 
ATOM      3  N   LIG    1       -0.319  -4.254   0.789  0.00  0.00    -0.490 NA
ATOM      4  C   LIG    1       -0.431  -4.330  -0.563  0.00  0.00    +0.060 A 
ATOM      5  C   LIG    1       -0.271  -5.370  -1.482  0.00  0.00    +0.060 A 
ATOM      6  C   LIG    1       -0.458  -5.130  -2.826  0.00  0.00    +0.010 A 
ATOM      7  C   LIG    1       -0.804  -3.864  -3.273  0.00  0.00    +0.030 A 
ATOM      8  C   LIG    1       -0.967  -2.826  -2.378  0.00  0.00    +0.010 A 
ATOM      9  C   LIG    1       -0.788  -3.051  -1.022  0.00  0.00    +0.060 A 
ATOM     10  N   LIG    1       -0.867  -2.246   0.104  0.00  0.00    -0.460 N 
BRANCH   2  11
ATOM     11  S   LIG    1       -0.546  -2.480   2.857  0.00  0.00    -0.010 S 
BRANCH  11  12
ATOM     12  C   LIG    1       -0.095  -4.024   3.688  0.00  0.00    +0.140 C 
BRANCH  12  14
ATOM     13  C   LIG    1       -0.850  -4.384   5.982  0.00  0.00    +0.060 C 
ATOM     14  C   LIG    1       -0.009  -3.787   5.174  0.00  0.00    -0.040 C 
ENDBRANCH  12  14
ENDBRANCH  11  12
ENDBRANCH   2  11
ENDBRANCH   1  10
BRANCH   1  15
ATOM     15  C   LIG    1        0.053  -0.003   0.008  0.00  0.00    +0.490 C 
ATOM     16  N   LIG    1       -0.016   1.344   0.009  0.00  0.00    -0.670 N 
ATOM     17  H   LIG    1       -0.880   1.785   0.019  0.00  0.00    +0.420 HD
ATOM     18  O   LIG    1        1.128  -0.555  -0.093  0.00  0.00    -0.490 OA
BRANCH  16  19
ATOM     19  C   LIG    1        1.160   2.105  -0.008  0.00  0.00    +0.150 A 
ATOM     20  C   LIG    1        1.216   3.310   0.678  0.00  0.00    +0.000 A 
ATOM     21  C   LIG    1        2.377   4.059   0.666  0.00  0.00    +0.050 A 
ATOM     22  C   LIG    1        3.485   3.616  -0.042  0.00  0.00    +0.040 A 
ATOM     23  O   LIG    1        4.617   4.373  -0.051  0.00  0.00    -0.310 OA
ATOM     24  C   LIG    1        5.824   3.720  -0.458  0.00  0.00    +0.220 C 
ATOM     25  C   LIG    1        5.529   2.914  -1.731  0.00  0.00    +0.220 C 
ATOM     26  O   LIG    1        4.508   1.957  -1.429  0.00  0.00    -0.300 OA
ATOM     27  C   LIG    1        3.430   2.411  -0.733  0.00  0.00    +0.070 A 
ATOM     28  C   LIG    1        2.267   1.657  -0.716  0.00  0.00    +0.040 A 
ENDBRANCH  16  19
ENDBRANCH   1  15
TORSDOF 6
