REMARK  Name = ZINCrH000004sNjf.0
REMARK                            x       y       z     vdW  Elec       q    Type
REMARK                         _______ _______ _______ _____ _____    ______ ____
ROOT
ATOM      1  C   LIG    1       -3.221   0.159  -0.283  0.00  0.00    +0.550 C 
ATOM      2  N   LIG    1       -4.196   1.084  -0.174  0.00  0.00    -0.710 N 
ATOM      3  H   LIG    1       -3.986   2.025  -0.282  0.00  0.00    +0.410 HD
ATOM      4  O   LIG    1       -3.484  -1.020  -0.146  0.00  0.00    -0.530 OA
ENDROOT
BRANCH   1   8
ATOM      5  C   LIG    1        0.772   1.366  -1.110  0.00  0.00    -0.010 A 
ATOM      6  C   LIG    1        0.470   0.012  -0.953  0.00  0.00    +0.060 A 
ATOM      7  C   LIG    1       -0.823  -0.379  -0.681  0.00  0.00    +0.090 A 
ATOM      8  C   LIG    1       -1.832   0.579  -0.568  0.00  0.00    -0.100 A 
ATOM      9  C   LIG    1       -1.530   1.934  -0.720  0.00  0.00    +0.050 A 
ATOM     10  C   LIG    1       -0.237   2.325  -0.992  0.00  0.00    +0.080 A 
BRANCH   5  15
ATOM     11  C   LIG    1        4.858   4.053  -2.073  0.00  0.00    +0.200 C 
ATOM     12  C   LIG    1        3.906   2.915  -1.811  0.00  0.00    +0.170 A 
ATOM     13  N   LIG    1        4.211   1.652  -1.775  0.00  0.00    -0.380 NA
ATOM     14  O   LIG    1        3.226   0.984  -1.541  0.00  0.00    +0.090 OA
ATOM     15  C   LIG    1        2.159   1.786  -1.401  0.00  0.00    +0.220 A 
ATOM     16  N   LIG    1        2.589   3.022  -1.578  0.00  0.00    -0.470 NA
ENDBRANCH   5  15
ENDBRANCH   1   8
BRANCH   2  17
ATOM     17  C   LIG    1       -5.572   0.668   0.110  0.00  0.00    +0.290 C 
BRANCH  17  18
ATOM     18  C   LIG    1       -6.454   1.906   0.281  0.00  0.00    +0.190 C 
BRANCH  18  19
ATOM     19  C   LIG    1       -6.551   2.639  -1.032  0.00  0.00    -0.080 A 
ATOM     20  C   LIG    1       -5.701   3.695  -1.299  0.00  0.00    +0.050 A 
ATOM     21  C   LIG    1       -5.788   4.365  -2.505  0.00  0.00    +0.010 A 
ATOM     22  C   LIG    1       -6.732   3.986  -3.441  0.00  0.00    +0.020 A 
ATOM     23  C   LIG    1       -7.587   2.933  -3.172  0.00  0.00    +0.020 A 
ATOM     24  C   LIG    1       -7.497   2.259  -1.968  0.00  0.00    -0.030 A 
ATOM     25 CL   LIG    1       -8.571   0.938  -1.630  0.00  0.00    -0.070 Cl
ENDBRANCH  18  19
BRANCH  18  26
ATOM     26  N   LIG    1       -5.863   2.792   1.294  0.00  0.00    -0.540 NA
ATOM     27  C   LIG    1       -5.511   2.043   2.507  0.00  0.00    +0.190 C 
ATOM     28  C   LIG    1       -6.764   3.909   1.607  0.00  0.00    +0.190 C 
ENDBRANCH  18  26
ENDBRANCH  17  18
ENDBRANCH   2  17
TORSDOF 6
