REMARK  Name = ZINCtV00000ogcKR.0
REMARK                            x       y       z     vdW  Elec       q    Type
REMARK                         _______ _______ _______ _____ _____    ______ ____
ROOT
ATOM      1  C   LIG    1        8.353  -0.802  -0.335  0.00  0.00    +0.040 C 
ATOM      2  C   LIG    1        8.259  -1.763  -1.522  0.00  0.00    +0.050 C 
ATOM      3  C   LIG    1        8.642  -1.026  -2.807  0.00  0.00    +0.000 C 
ATOM      4  C   LIG    1       10.074  -0.502  -2.688  0.00  0.00    +0.010 C 
ATOM      5  C   LIG    1       10.168   0.459  -1.501  0.00  0.00    +0.050 C 
ATOM      6  C   LIG    1        9.786  -0.278  -0.216  0.00  0.00    +0.100 C 
ENDROOT
BRANCH   6   7
ATOM      7  C   LIG    1        9.879   0.668   0.953  0.00  0.00    +0.090 A 
ATOM      8  N   LIG    1        9.302   1.809   1.003  0.00  0.00    -0.430 NA
ATOM      9  C   LIG    1        9.472   2.552   2.113  0.00  0.00    +0.080 A 
ATOM     10  C   LIG    1        8.960   3.826   2.431  0.00  0.00    +0.070 A 
ATOM     11  C   LIG    1        9.257   4.411   3.625  0.00  0.00    +0.030 A 
ATOM     12  C   LIG    1       10.066   3.766   4.549  0.00  0.00    +0.040 A 
ATOM     13  C   LIG    1       10.580   2.521   4.266  0.00  0.00    +0.060 A 
ATOM     14  C   LIG    1       10.288   1.908   3.050  0.00  0.00    -0.180 A 
ATOM     15  S   LIG    1       10.761   0.350   2.379  0.00  0.00    +0.090 S 
ENDBRANCH   6   7
BRANCH   1  17
ATOM     16  O   LIG    1        7.845   1.432  -0.886  0.00  0.00    -0.450 OA
ATOM     17  C   LIG    1        7.412   0.355  -0.550  0.00  0.00    +0.460 C 
BRANCH  17  18
ATOM     18  O   LIG    1        6.092   0.189  -0.367  0.00  0.00    -0.360 OA
BRANCH  18  19
ATOM     19  C   LIG    1        5.245   1.347  -0.592  0.00  0.00    +0.280 C 
BRANCH  19  20
ATOM     20  C   LIG    1        3.807   0.973  -0.341  0.00  0.00    -0.090 A 
ATOM     21  C   LIG    1        3.485  -0.295   0.035  0.00  0.00    +0.040 A 
ATOM     22  C   LIG    1        2.161  -0.658   0.272  0.00  0.00    +0.010 A 
ATOM     23  C   LIG    1        1.151   0.243   0.134  0.00  0.00    +0.030 A 
ATOM     24  C   LIG    1        1.444   1.562  -0.253  0.00  0.00    -0.050 A 
ATOM     25  C   LIG    1        0.428   2.521  -0.406  0.00  0.00    +0.030 A 
ATOM     26  C   LIG    1        0.750   3.788  -0.783  0.00  0.00    +0.000 A 
ATOM     27  C   LIG    1        2.074   4.152  -1.021  0.00  0.00    +0.010 A 
ATOM     28  C   LIG    1        3.084   3.250  -0.882  0.00  0.00    +0.020 A 
ATOM     29  C   LIG    1        2.791   1.932  -0.495  0.00  0.00    -0.040 A 
ENDBRANCH  19  20
ENDBRANCH  18  19
ENDBRANCH  17  18
ENDBRANCH   1  17
TORSDOF 5
