REMARK  Name = ZINCpk000000oz2K.0
REMARK                            x       y       z     vdW  Elec       q    Type
REMARK                         _______ _______ _______ _____ _____    ______ ____
ROOT
ATOM      1  N   LIG    1       -3.357  -6.366  -0.304  0.00  0.00    -0.580 N 
ATOM      2  C   LIG    1       -3.168  -7.025  -1.464  0.00  0.00    +0.590 C 
ATOM      3  O   LIG    1       -3.348  -6.454  -2.523  0.00  0.00    -0.500 OA
ENDROOT
BRANCH   2   4
ATOM      4  C   LIG    1       -2.746  -8.435  -1.450  0.00  0.00    +0.110 A 
ATOM      5  C   LIG    1       -3.564  -9.549  -1.633  0.00  0.00    -0.140 A 
ATOM      6  C   LIG    1       -2.744 -10.687  -1.541  0.00  0.00    +0.310 A 
ATOM      7  N   LIG    1       -1.516 -10.298  -1.319  0.00  0.00    -0.260 NA
ATOM      8  N   LIG    1       -1.480  -8.900  -1.262  0.00  0.00    -0.330 N 
ATOM      9  C   LIG    1       -0.287  -8.079  -1.036  0.00  0.00    +0.380 C 
BRANCH   5  10
ATOM     10  C   LIG    1       -4.977  -9.536  -1.869  0.00  0.00    +0.280 C 
ATOM     11  N   LIG    1       -6.097  -9.526  -2.057  0.00  0.00    -0.410 NA
ENDBRANCH   5  10
ENDBRANCH   2   4
BRANCH   1  13
ATOM     12  C   LIG    1       -4.596  -7.716   1.316  0.00  0.00    +0.030 C 
ATOM     13  C   LIG    1       -3.247  -7.080   0.970  0.00  0.00    +0.280 C 
ENDBRANCH   1  13
BRANCH   1  14
ATOM     14  C   LIG    1       -3.670  -4.935  -0.316  0.00  0.00    +0.350 C 
BRANCH  14  15
ATOM     15  C   LIG    1       -2.391  -4.139  -0.269  0.00  0.00    +0.500 C 
ATOM     16  N   LIG    1       -2.434  -2.792  -0.271  0.00  0.00    -0.670 N 
ATOM     17  H   LIG    1       -3.288  -2.335  -0.229  0.00  0.00    +0.420 HD
ATOM     18  O   LIG    1       -1.322  -4.712  -0.228  0.00  0.00    -0.510 OA
BRANCH  16  19
ATOM     19  C   LIG    1       -1.247  -2.054  -0.335  0.00  0.00    +0.180 A 
ATOM     20  C   LIG    1       -1.154  -0.831   0.315  0.00  0.00    -0.050 A 
ATOM     21  C   LIG    1        0.018  -0.101   0.250  0.00  0.00    +0.070 A 
ATOM     22  C   LIG    1        1.101  -0.590  -0.455  0.00  0.00    -0.090 A 
ATOM     23  C   LIG    1        1.011  -1.810  -1.111  0.00  0.00    +0.150 A 
ATOM     24  C   LIG    1       -0.162  -2.544  -1.049  0.00  0.00    -0.010 A 
BRANCH  23  25
ATOM     25  O   LIG    1        2.076  -2.287  -1.808  0.00  0.00    -0.310 OA
ATOM     26  C   LIG    1        3.253  -1.477  -1.829  0.00  0.00    +0.250 C 
ENDBRANCH  23  25
ENDBRANCH  16  19
ENDBRANCH  14  15
ENDBRANCH   1  14
TORSDOF 7
