REMARK  Name = ZINCqH0000001nP6.0
REMARK                            x       y       z     vdW  Elec       q    Type
REMARK                         _______ _______ _______ _____ _____    ______ ____
ROOT
ATOM      1  N   LIG    1       -0.755   3.484   1.277  0.00  0.00    -0.450 N 
ATOM      2  C   LIG    1       -1.714   4.300   0.747  0.00  0.00    +0.160 A 
ATOM      3  N   LIG    1       -1.341   5.540   0.973  0.00  0.00    -0.280 NA
ATOM      4  N   LIG    1       -0.222   5.557   1.605  0.00  0.00    -0.250 NA
ATOM      5  C   LIG    1        0.187   4.327   1.826  0.00  0.00    +0.270 A 
ENDROOT
BRANCH   5   6
ATOM      6  C   LIG    1        1.418   3.926   2.525  0.00  0.00    +0.040 A 
ATOM      7  C   LIG    1        2.478   4.735   2.806  0.00  0.00    +0.030 A 
ATOM      8  C   LIG    1        3.426   3.942   3.481  0.00  0.00    -0.050 A 
ATOM      9  C   LIG    1        2.910   2.700   3.572  0.00  0.00    +0.190 A 
ATOM     10  O   LIG    1        1.697   2.694   2.993  0.00  0.00    -0.170 OA
ENDBRANCH   5   6
BRANCH   1  11
ATOM     11  C   LIG    1       -0.735   2.019   1.269  0.00  0.00    +0.310 C 
BRANCH  11  13
ATOM     12  C   LIG    1        0.002  -0.004   0.002  0.00  0.00    +0.050 C 
ATOM     13  C   LIG    1       -0.019   1.526   0.010  0.00  0.00    -0.030 C 
ATOM     14  C   LIG    1        1.417   2.055  -0.000  0.00  0.00    +0.020 C 
ENDBRANCH  11  13
ENDBRANCH   1  11
BRANCH   2  15
ATOM     15  S   LIG    1       -3.179   3.786  -0.086  0.00  0.00    +0.040 S 
BRANCH  15  16
ATOM     16  C   LIG    1       -3.903   5.399  -0.474  0.00  0.00    +0.130 C 
BRANCH  16  17
ATOM     17  C   LIG    1       -5.223   5.199  -1.221  0.00  0.00    -0.300 C 
BRANCH  17  18
ATOM     18  S   LIG    1       -5.949   6.816  -1.609  0.00  0.00    +2.510 S 
ATOM     19  O   LIG    1       -5.161   7.497  -2.576  0.00  0.00    -0.920 OA
ATOM     20  O   LIG    1       -6.377   7.468  -0.421  0.00  0.00    -0.920 OA
BRANCH  18  21
ATOM     21  C   LIG    1       -7.445   6.434  -2.458  0.00  0.00    -0.660 A 
ATOM     22  C   LIG    1       -7.445   6.303  -3.834  0.00  0.00    +0.120 A 
ATOM     23  C   LIG    1       -8.617   5.999  -4.500  0.00  0.00    -0.010 A 
ATOM     24  C   LIG    1       -9.793   5.835  -3.790  0.00  0.00    +0.070 A 
ATOM     25  C   LIG    1       -9.794   5.971  -2.414  0.00  0.00    -0.010 A 
ATOM     26  C   LIG    1       -8.620   6.270  -1.748  0.00  0.00    +0.120 A 
ENDBRANCH  18  21
ENDBRANCH  17  18
ENDBRANCH  16  17
ENDBRANCH  15  16
ENDBRANCH   2  15
TORSDOF 8
