REMARK  Name = ZINCvU0000000AVd.0
REMARK                            x       y       z     vdW  Elec       q    Type
REMARK                         _______ _______ _______ _____ _____    ______ ____
ROOT
ATOM      1  C   LIG    1       -1.747   2.208  -0.020  0.00  0.00    +0.020 C 
ATOM      2  C   LIG    1       -2.201   2.535  -1.444  0.00  0.00    +0.110 C 
ENDROOT
BRANCH   1   3
ATOM      3  C   LIG    1       -0.418   1.501  -0.066  0.00  0.00    +0.540 C 
ATOM      4  N   LIG    1        0.724   2.215  -0.133  0.00  0.00    -0.660 N 
ATOM      5  H   LIG    1        0.687   3.179  -0.230  0.00  0.00    +0.420 HD
ATOM      6  O   LIG    1       -0.374   0.289  -0.047  0.00  0.00    -0.490 OA
BRANCH   4   7
ATOM      7  C   LIG    1        1.961   1.564  -0.062  0.00  0.00    +0.160 A 
ATOM      8  C   LIG    1        2.064   0.332   0.568  0.00  0.00    +0.100 A 
ATOM      9  C   LIG    1        3.286  -0.310   0.631  0.00  0.00    -0.160 A 
ATOM     10  C   LIG    1        4.408   0.279   0.077  0.00  0.00    +0.070 A 
ATOM     11  C   LIG    1        4.310   1.509  -0.547  0.00  0.00    +0.060 A 
ATOM     12  C   LIG    1        3.090   2.154  -0.619  0.00  0.00    -0.040 A 
ATOM     13 CL   LIG    1        2.969   3.698  -1.402  0.00  0.00    -0.040 Cl
BRANCH   9  14
ATOM     14  C   LIG    1        3.397  -1.651   1.310  0.00  0.00    +0.510 C 
ATOM     15  F   LIG    1        2.569  -2.572   0.661  0.00  0.00    -0.170 F 
ATOM     16  F   LIG    1        3.004  -1.531   2.647  0.00  0.00    -0.170 F 
ATOM     17  F   LIG    1        4.723  -2.094   1.252  0.00  0.00    -0.170 F 
ENDBRANCH   9  14
ENDBRANCH   4   7
ENDBRANCH   1   3
BRANCH   1  18
ATOM     18  S   LIG    1       -2.973   1.138   0.773  0.00  0.00    +0.080 S 
BRANCH  18  22
ATOM     19  C   LIG    1       -6.322   3.112   1.167  0.00  0.00    +0.230 A 
ATOM     20  N   LIG    1       -5.536   3.990   0.588  0.00  0.00    -0.260 NA
ATOM     21  N   LIG    1       -4.375   3.477   0.390  0.00  0.00    -0.290 NA
ATOM     22  C   LIG    1       -4.348   2.238   0.830  0.00  0.00    +0.150 A 
ATOM     23  N   LIG    1       -5.587   1.961   1.334  0.00  0.00    -0.450 N 
ATOM     24  C   LIG    1       -6.038   0.702   1.932  0.00  0.00    +0.360 C 
BRANCH  19  29
ATOM     25  C   LIG    1       -9.798   4.531   1.349  0.00  0.00    +0.130 A 
ATOM     26  C   LIG    1      -10.377   3.702   2.300  0.00  0.00    -0.060 A 
ATOM     27  C   LIG    1       -9.638   2.686   2.880  0.00  0.00    +0.060 A 
ATOM     28  C   LIG    1       -8.322   2.490   2.516  0.00  0.00    -0.020 A 
ATOM     29  C   LIG    1       -7.732   3.319   1.560  0.00  0.00    +0.020 A 
ATOM     30  C   LIG    1       -8.476   4.346   0.980  0.00  0.00    +0.040 A 
BRANCH  25  32
ATOM     31  C   LIG    1      -11.884   5.665   1.215  0.00  0.00    +0.250 C 
ATOM     32  O   LIG    1      -10.528   5.528   0.783  0.00  0.00    -0.310 OA
ENDBRANCH  25  32
ENDBRANCH  19  29
ENDBRANCH  18  22
ENDBRANCH   1  18
TORSDOF 7
