REMARK  Name = ZINCpk00000KfLjo.0
REMARK                            x       y       z     vdW  Elec       q    Type
REMARK                         _______ _______ _______ _____ _____    ______ ____
ROOT
ATOM      1  C   LIG    1        1.217   1.570  -0.018  0.00  0.00    +0.340 A 
ATOM      2  C   LIG    1       -0.065   1.031  -0.112  0.00  0.00    -0.030 A 
ATOM      3  C   LIG    1       -1.139   1.837   0.241  0.00  0.00    -0.060 A 
ATOM      4  C   LIG    1       -0.882   3.119   0.683  0.00  0.00    +0.030 A 
ATOM      5  N   LIG    1        0.371   3.548   0.737  0.00  0.00    -0.190 NA
ATOM      6  C   LIG    1       -1.973   4.061   1.116  0.00  0.00    +0.120 C 
ATOM      7  C   LIG    1       -3.323   3.625   0.548  0.00  0.00    +0.300 C 
ATOM      8  N   LIG    1       -3.478   2.182   0.793  0.00  0.00    -0.610 N 
ATOM      9  C   LIG    1       -4.451   1.708   1.596  0.00  0.00    +0.520 C 
ATOM     10  O   LIG    1       -5.221   2.476   2.134  0.00  0.00    -0.520 OA
ATOM     11  C   LIG    1       -2.531   1.279   0.127  0.00  0.00    +0.360 C 
ATOM     12  N   LIG    1        1.368   2.817   0.403  0.00  0.00    -0.300 NA
ENDROOT
BRANCH   1  13
ATOM     13  N   LIG    1        2.326   0.806  -0.364  0.00  0.00    -0.720 N 
ATOM     14  H   LIG    1        3.216   1.186  -0.298  0.00  0.00    +0.410 HD
BRANCH  13  16
ATOM     15  C   LIG    1        3.518  -1.183  -1.141  0.00  0.00    +0.050 C 
ATOM     16  C   LIG    1        2.151  -0.572  -0.829  0.00  0.00    +0.260 C 
ENDBRANCH  13  16
ENDBRANCH   1  13
BRANCH   9  17
ATOM     17  C   LIG    1       -4.583   0.225   1.826  0.00  0.00    +0.260 C 
BRANCH  17  18
ATOM     18  C   LIG    1       -4.832  -0.478   0.490  0.00  0.00    -0.020 C 
ATOM     19  C   LIG    1       -6.189  -0.036  -0.094  0.00  0.00    +0.020 C 
ATOM     20  C   LIG    1       -6.755  -1.321  -0.750  0.00  0.00    +0.020 C 
ATOM     21  C   LIG    1       -6.325  -2.430   0.242  0.00  0.00    +0.010 C 
ATOM     22  C   LIG    1       -4.918  -2.000   0.704  0.00  0.00    +0.020 C 
ENDBRANCH  17  18
BRANCH  17  23
ATOM     23  N   LIG    1       -5.707  -0.031   2.730  0.00  0.00    -0.700 N 
ATOM     24  H   LIG    1       -6.575   0.362   2.548  0.00  0.00    +0.410 HD
ATOM     25  C   LIG    1       -5.535  -0.814   3.814  0.00  0.00    +0.520 C 
ATOM     26  O   LIG    1       -4.432  -1.235   4.089  0.00  0.00    -0.550 OA
ATOM     27  C   LIG    1       -6.715  -1.164   4.684  0.00  0.00    +0.110 C 
ENDBRANCH  17  23
ENDBRANCH   9  17
TORSDOF 5
