REMARK  Name = ZINCtV000002O5KB.0
REMARK                            x       y       z     vdW  Elec       q    Type
REMARK                         _______ _______ _______ _____ _____    ______ ____
ROOT
ATOM      1  C   LIG    1       -1.081  -2.089   0.091  0.00  0.00    +0.140 A 
ATOM      2  C   LIG    1        0.155  -2.716   0.166  0.00  0.00    -0.020 A 
ATOM      3  C   LIG    1        0.225  -4.093   0.254  0.00  0.00    +0.030 A 
ATOM      4  C   LIG    1       -0.934  -4.847   0.254  0.00  0.00    -0.080 A 
ATOM      5  C   LIG    1       -2.167  -4.225   0.174  0.00  0.00    +0.020 A 
ATOM      6  C   LIG    1       -2.244  -2.849   0.093  0.00  0.00    +0.020 A 
ENDROOT
BRANCH   4   7
ATOM      7  C   LIG    1       -0.854  -6.349   0.342  0.00  0.00    -0.010 C 
ATOM      8  C   LIG    1       -1.591  -6.826   1.595  0.00  0.00    +0.020 C 
ATOM      9  C   LIG    1       -1.510  -8.351   1.685  0.00  0.00    -0.020 C 
ATOM     10  C   LIG    1       -2.157  -8.971   0.445  0.00  0.00    +0.010 C 
ATOM     11  C   LIG    1       -1.419  -8.493  -0.808  0.00  0.00    -0.020 C 
ATOM     12  C   LIG    1        0.047  -8.922  -0.730  0.00  0.00    +0.010 C 
ATOM     13  C   LIG    1        0.695  -8.303   0.510  0.00  0.00    -0.020 C 
ATOM     14  C   LIG    1       -0.043  -8.780   1.762  0.00  0.00    +0.010 C 
ATOM     15  C   LIG    1       -1.501  -6.968  -0.898  0.00  0.00    +0.020 C 
ATOM     16  C   LIG    1        0.613  -6.778   0.420  0.00  0.00    +0.030 C 
ENDBRANCH   4   7
BRANCH   1  19
ATOM     17  O   LIG    1       -3.061  -0.658   1.145  0.00  0.00    -0.520 OA
ATOM     18  C   LIG    1       -2.169  -0.037   0.608  0.00  0.00    +0.520 C 
ATOM     19  N   LIG    1       -1.156  -0.694   0.009  0.00  0.00    -0.670 N 
ATOM     20  H   LIG    1       -0.478  -0.200  -0.478  0.00  0.00    +0.410 HD
BRANCH  18  21
ATOM     21  C   LIG    1       -2.194   1.470   0.609  0.00  0.00    -0.070 C 
ATOM     22  C   LIG    1       -0.943   2.000   1.312  0.00  0.00    +0.040 C 
ATOM     23  C   LIG    1       -0.968   3.530   1.313  0.00  0.00    +0.000 C 
ATOM     24  C   LIG    1       -0.997   4.040  -0.129  0.00  0.00    +0.020 C 
ATOM     25  C   LIG    1       -2.248   3.510  -0.833  0.00  0.00    +0.000 C 
ATOM     26  C   LIG    1       -3.495   3.999  -0.093  0.00  0.00    +0.020 C 
ATOM     27  C   LIG    1       -3.466   3.489   1.349  0.00  0.00    -0.010 C 
ATOM     28  C   LIG    1       -2.215   4.019   2.052  0.00  0.00    +0.020 C 
ATOM     29  C   LIG    1       -2.223   1.980  -0.834  0.00  0.00    +0.040 C 
ATOM     30  C   LIG    1       -3.441   1.959   1.348  0.00  0.00    +0.050 C 
ENDBRANCH  18  21
ENDBRANCH   1  19
TORSDOF 3
