REMARK  Name = ZINCvU0000000JoD.0
REMARK                            x       y       z     vdW  Elec       q    Type
REMARK                         _______ _______ _______ _____ _____    ______ ____
ROOT
ATOM      1  P   LIG    1       -1.250  -0.489  -0.312  0.00  0.00    +2.680 P 
ATOM      2  N   LIG    1        0.022   0.404  -0.310  0.00  0.00    -1.170 NA
ENDROOT
BRANCH   1   7
ATOM      3  C   LIG    1       -5.177  -0.432  -3.922  0.00  0.00    +0.180 C 
ATOM      4  C   LIG    1       -3.826  -0.199  -3.295  0.00  0.00    +0.030 A 
ATOM      5  C   LIG    1       -2.784   0.419  -3.879  0.00  0.00    -0.070 A 
ATOM      6  C   LIG    1       -1.728   0.417  -2.939  0.00  0.00    +0.080 A 
ATOM      7  C   LIG    1       -2.188  -0.203  -1.838  0.00  0.00    -0.680 A 
ATOM      8  O   LIG    1       -3.458  -0.578  -2.061  0.00  0.00    -0.150 OA
ENDBRANCH   1   7
BRANCH   2   9
ATOM      9  C   LIG    1        0.975   0.202  -1.209  0.00  0.00    +0.320 A 
ATOM     10  C   LIG    1        0.874  -0.871  -2.131  0.00  0.00    -0.190 A 
ATOM     11  C   LIG    1        1.860  -1.063  -3.052  0.00  0.00    +0.100 A 
ATOM     12  C   LIG    1        2.965  -0.221  -3.084  0.00  0.00    -0.100 A 
ATOM     13  C   LIG    1        3.080   0.831  -2.185  0.00  0.00    +0.110 A 
ATOM     14  C   LIG    1        2.108   1.052  -1.254  0.00  0.00    -0.260 A 
BRANCH  14  15
ATOM     15  C   LIG    1        2.238   2.195  -0.281  0.00  0.00    +0.530 C 
ATOM     16  F   LIG    1        2.246   1.696   1.026  0.00  0.00    -0.180 F 
ATOM     17  F   LIG    1        1.156   3.068  -0.440  0.00  0.00    -0.180 F 
ATOM     18  F   LIG    1        3.432   2.883  -0.524  0.00  0.00    -0.190 F 
ENDBRANCH  14  15
ENDBRANCH   2   9
BRANCH   1  19
ATOM     19  C   LIG    1       -2.288  -0.071   1.127  0.00  0.00    -0.670 C 
ATOM     20  C   LIG    1       -2.576   1.432   1.129  0.00  0.00    +0.080 C 
ATOM     21  C   LIG    1       -1.552  -0.450   2.414  0.00  0.00    +0.080 C 
ATOM     22  C   LIG    1       -3.606  -0.843   1.047  0.00  0.00    +0.060 C 
ENDBRANCH   1  19
BRANCH   1  23
ATOM     23  O   LIG    1       -0.818  -2.038  -0.230  0.00  0.00    -0.700 OA
BRANCH  23  24
ATOM     24  C   LIG    1       -1.752  -3.113  -0.340  0.00  0.00    +0.240 C 
BRANCH  24  25
ATOM     25  C   LIG    1       -0.996  -4.442  -0.402  0.00  0.00    +0.210 C 
BRANCH  25  26
ATOM     26  N   LIG    1       -0.296  -4.667   0.870  0.00  0.00    -0.530 NA
ATOM     27  C   LIG    1        0.785  -5.650   0.710  0.00  0.00    +0.150 C 
ATOM     28  C   LIG    1        1.524  -5.809   2.042  0.00  0.00    +0.220 C 
ATOM     29  O   LIG    1        0.591  -6.191   3.056  0.00  0.00    -0.380 OA
ATOM     30  C   LIG    1       -0.476  -5.256   3.239  0.00  0.00    +0.220 C 
ATOM     31  C   LIG    1       -1.235  -5.091   1.920  0.00  0.00    +0.140 C 
ENDBRANCH  25  26
ENDBRANCH  24  25
ENDBRANCH  23  24
ENDBRANCH   1  23
TORSDOF 8
