REMARK  Name = ZINCqH0000008So4.0
REMARK                            x       y       z     vdW  Elec       q    Type
REMARK                         _______ _______ _______ _____ _____    ______ ____
ROOT
ATOM      1  C   LIG    1       -4.075  -1.432   0.787  0.00  0.00    +0.090 C 
ATOM      2  C   LIG    1       -4.260  -0.072   1.464  0.00  0.00    +0.120 C 
ATOM      3  N   LIG    1       -5.324   0.701   0.801  0.00  0.00    -0.720 N 
ATOM      4  H   LIG    1       -5.335   0.998  -0.122  0.00  0.00    +0.440 HD
ATOM      5  C   LIG    1       -6.278   0.913   1.726  0.00  0.00    +0.700 C 
ATOM      6  N   LIG    1       -5.969   0.376   2.912  0.00  0.00    -0.570 N 
ATOM      7  O   LIG    1       -7.305   1.526   1.509  0.00  0.00    -0.520 OA
ATOM      8  C   LIG    1       -4.774  -0.246   2.880  0.00  0.00    +0.530 C 
ATOM      9  O   LIG    1       -4.225  -0.825   3.792  0.00  0.00    -0.460 OA
ENDROOT
BRANCH   6  10
ATOM     10  C   LIG    1       -6.825   0.453   4.098  0.00  0.00    +0.350 C 
BRANCH  10  11
ATOM     11  C   LIG    1       -6.473   1.708   4.900  0.00  0.00    +0.200 C 
BRANCH  11  12
ATOM     12  O   LIG    1       -6.789   2.869   4.130  0.00  0.00    -0.300 OA
BRANCH  12  13
ATOM     13  C   LIG    1       -6.535   4.076   4.701  0.00  0.00    +0.140 A 
ATOM     14  C   LIG    1       -5.999   4.141   5.979  0.00  0.00    -0.070 A 
ATOM     15  C   LIG    1       -5.737   5.369   6.556  0.00  0.00    +0.070 A 
ATOM     16  C   LIG    1       -6.019   6.533   5.865  0.00  0.00    +0.010 A 
ATOM     17  C   LIG    1       -6.559   6.471   4.593  0.00  0.00    -0.050 A 
ATOM     18 BR   LIG    1       -6.943   8.066   3.651  0.00  0.00    -0.040 Br
ATOM     19  C   LIG    1       -6.817   5.245   4.009  0.00  0.00    +0.020 A 
ENDBRANCH  12  13
ENDBRANCH  11  12
ENDBRANCH  10  11
ENDBRANCH   6  10
BRANCH   2  20
ATOM     20  C   LIG    1       -2.945   0.711   1.462  0.00  0.00    +0.060 C 
BRANCH  20  21
ATOM     21  C   LIG    1       -2.514   0.980   0.019  0.00  0.00    +0.070 C 
BRANCH  21  22
ATOM     22  C   LIG    1       -1.219   1.751   0.017  0.00  0.00    -0.090 A 
ATOM     23  C   LIG    1       -0.013   1.076   0.008  0.00  0.00    +0.000 A 
ATOM     24  C   LIG    1        1.175   1.783   0.000  0.00  0.00    +0.000 A 
ATOM     25  C   LIG    1        1.156   3.165   0.008  0.00  0.00    +0.000 A 
ATOM     26  C   LIG    1       -0.050   3.840   0.022  0.00  0.00    +0.000 A 
ATOM     27  C   LIG    1       -1.238   3.133   0.030  0.00  0.00    +0.000 A 
ENDBRANCH  21  22
ENDBRANCH  20  21
ENDBRANCH   2  20
TORSDOF 7
