REMARK  Name = ZINCpe00000R92sC.1
REMARK                            x       y       z     vdW  Elec       q    Type
REMARK                         _______ _______ _______ _____ _____    ______ ____
ROOT
ATOM      1  C   LIG    1        3.171   5.966  -3.071  0.00  0.00    +0.130 C 
ATOM      2  C   LIG    1        3.873   6.685  -1.917  0.00  0.00    +0.070 C 
ENDROOT
BRANCH   1   5
ATOM      3  C   LIG    1       -0.288   6.137  -1.591  0.00  0.00    +0.290 C 
ATOM      4  C   LIG    1        1.067   6.649  -2.085  0.00  0.00    +0.180 C 
ATOM      5  N   LIG    1        1.839   5.526  -2.636  0.00  0.00    -0.510 NA
ATOM      6  C   LIG    1        1.109   4.885  -3.740  0.00  0.00    +0.150 C 
ATOM      7  C   LIG    1       -0.246   4.390  -3.229  0.00  0.00    +0.240 C 
ATOM      8  O   LIG    1       -0.969   5.489  -2.669  0.00  0.00    -0.370 OA
BRANCH   3  12
ATOM      9  C   LIG    1       -2.583   9.309   1.532  0.00  0.00    +0.190 C 
ATOM     10  C   LIG    1       -2.101   8.658   0.261  0.00  0.00    +0.290 A 
ATOM     11  N   LIG    1       -1.354   7.587   0.182  0.00  0.00    -0.530 NA
ATOM     12  C   LIG    1       -1.115   7.295  -1.096  0.00  0.00    +0.230 A 
ATOM     13  N   LIG    1       -1.713   8.178  -1.852  0.00  0.00    -0.290 NA
ATOM     14  N   LIG    1       -2.365   9.075  -0.989  0.00  0.00    -0.480 N 
ATOM     15  H   LIG    1       -2.897   9.845  -1.245  0.00  0.00    +0.440 HD
ENDBRANCH   3  12
ENDBRANCH   1   5
BRANCH   1  16
ATOM     16  C   LIG    1        3.986   4.768  -3.486  0.00  0.00    +0.520 C 
ATOM     17  N   LIG    1        5.043   4.923  -4.306  0.00  0.00    -0.650 N 
ATOM     18  H   LIG    1        5.329   5.813  -4.566  0.00  0.00    +0.400 HD
ATOM     19  O   LIG    1        3.689   3.663  -3.081  0.00  0.00    -0.490 OA
BRANCH  17  20
ATOM     20  C   LIG    1        5.733   3.794  -4.786  0.00  0.00    -0.010 A 
ATOM     21  C   LIG    1        6.128   3.583  -6.068  0.00  0.00    +0.070 A 
ATOM     22  N   LIG    1        6.758   2.381  -6.110  0.00  0.00    -0.370 N 
ATOM     23  N   LIG    1        6.747   1.843  -4.817  0.00  0.00    -0.290 NA
ATOM     24  C   LIG    1        7.346   1.756  -7.298  0.00  0.00    +0.360 C 
ATOM     25  C   LIG    1        5.908   4.514  -7.232  0.00  0.00    +0.140 C 
ATOM     26  C   LIG    1        6.140   2.689  -4.024  0.00  0.00    +0.100 A 
ATOM     27  C   LIG    1        5.914   2.505  -2.546  0.00  0.00    +0.160 C 
ENDBRANCH  17  20
ENDBRANCH   1  16
TORSDOF 4
