REMARK  Name = ZINCpe00000R92sC.0
REMARK                            x       y       z     vdW  Elec       q    Type
REMARK                         _______ _______ _______ _____ _____    ______ ____
ROOT
ATOM      1  C   LIG    1        1.298   3.633   0.185  0.00  0.00    +0.130 C 
ATOM      2  C   LIG    1        1.213   4.164  -1.247  0.00  0.00    +0.080 C 
ENDROOT
BRANCH   1   5
ATOM      3  C   LIG    1        4.030   5.969   1.310  0.00  0.00    +0.290 C 
ATOM      4  C   LIG    1        2.686   5.547   0.711  0.00  0.00    +0.190 C 
ATOM      5  N   LIG    1        2.552   4.086   0.802  0.00  0.00    -0.510 NA
ATOM      6  C   LIG    1        2.642   3.641   2.200  0.00  0.00    +0.150 C 
ATOM      7  C   LIG    1        3.986   4.082   2.785  0.00  0.00    +0.250 C 
ATOM      8  O   LIG    1        4.113   5.501   2.659  0.00  0.00    -0.390 OA
BRANCH   3  13
ATOM      9  C   LIG    1        4.636  10.795   2.676  0.00  0.00    +0.200 C 
ATOM     10  C   LIG    1        4.401   9.539   1.876  0.00  0.00    +0.180 A 
ATOM     11  N   LIG    1        4.170   9.472   0.594  0.00  0.00    -0.290 NA
ATOM     12  N   LIG    1        4.016   8.243   0.246  0.00  0.00    -0.280 NA
ATOM     13  C   LIG    1        4.141   7.471   1.291  0.00  0.00    +0.180 A 
ATOM     14  N   LIG    1        4.384   8.272   2.356  0.00  0.00    -0.560 N 
ATOM     15  H   LIG    1        4.521   7.995   3.276  0.00  0.00    +0.430 HD
ENDBRANCH   3  13
ENDBRANCH   1   5
BRANCH   1  16
ATOM     16  C   LIG    1        1.264   2.126   0.165  0.00  0.00    +0.520 C 
ATOM     17  N   LIG    1        0.083   1.478   0.198  0.00  0.00    -0.650 N 
ATOM     18  H   LIG    1       -0.747   1.980   0.156  0.00  0.00    +0.400 HD
ATOM     19  O   LIG    1        2.300   1.497   0.118  0.00  0.00    -0.490 OA
BRANCH  17  20
ATOM     20  C   LIG    1        0.052   0.074   0.289  0.00  0.00    -0.010 A 
ATOM     21  C   LIG    1       -0.737  -0.657   1.118  0.00  0.00    +0.070 A 
ATOM     22  N   LIG    1       -0.461  -1.968   0.896  0.00  0.00    -0.370 N 
ATOM     23  N   LIG    1        0.525  -2.038  -0.097  0.00  0.00    -0.290 NA
ATOM     24  C   LIG    1       -1.084  -3.107   1.575  0.00  0.00    +0.360 C 
ATOM     25  C   LIG    1       -1.737  -0.112   2.105  0.00  0.00    +0.140 C 
ATOM     26  C   LIG    1        0.828  -0.820  -0.464  0.00  0.00    +0.100 A 
ATOM     27  C   LIG    1        1.841  -0.441  -1.514  0.00  0.00    +0.160 C 
ENDBRANCH  17  20
ENDBRANCH   1  16
TORSDOF 4
