REMARK  Name = ZINCrD0000071bxv.0
REMARK                            x       y       z     vdW  Elec       q    Type
REMARK                         _______ _______ _______ _____ _____    ______ ____
ROOT
ATOM      1  C   LIG    1        6.112   1.994  -0.685  0.00  0.00    +0.240 C 
ENDROOT
BRANCH   1   2
ATOM      2  C   LIG    1        4.838   1.189  -0.685  0.00  0.00    +0.400 C 
ATOM      3  O   LIG    1        4.864   0.012  -0.976  0.00  0.00    -0.420 OA
BRANCH   2   4
ATOM      4  C   LIG    1        3.565   1.831  -0.333  0.00  0.00    -0.160 A 
ATOM      5  C   LIG    1        3.532   3.189   0.003  0.00  0.00    +0.090 A 
ATOM      6  C   LIG    1        2.338   3.791   0.334  0.00  0.00    +0.030 A 
ATOM      7  C   LIG    1        1.163   3.052   0.334  0.00  0.00    +0.120 A 
ATOM      8  O   LIG    1       -0.019   3.637   0.658  0.00  0.00    -0.300 OA
ATOM      9  C   LIG    1       -1.184   3.143  -0.007  0.00  0.00    +0.310 C 
ATOM     10  C   LIG    1       -1.184   1.636   0.017  0.00  0.00    +0.490 C 
ATOM     11  N   LIG    1       -0.011   0.966   0.007  0.00  0.00    -0.660 N 
ATOM     12  H   LIG    1        0.002  -0.004   0.002  0.00  0.00    +0.420 HD
ATOM     13  O   LIG    1       -2.233   1.028   0.048  0.00  0.00    -0.500 OA
ATOM     14  C   LIG    1        1.188   1.695  -0.000  0.00  0.00    +0.080 A 
ATOM     15  C   LIG    1        2.379   1.084  -0.333  0.00  0.00    +0.090 A 
ENDBRANCH   2   4
ENDBRANCH   1   2
BRANCH   1  16
ATOM     16  O   LIG    1        7.224   1.140  -1.063  0.00  0.00    -0.330 OA
BRANCH  16  17
ATOM     17  C   LIG    1        8.444   1.710  -1.112  0.00  0.00    +0.510 C 
ATOM     18  O   LIG    1        8.575   2.888  -0.845  0.00  0.00    -0.500 OA
BRANCH  17  22
ATOM     19  C   LIG    1       11.830  -0.612  -2.196  0.00  0.00    -0.030 A 
ATOM     20  C   LIG    1       11.983   0.730  -1.894  0.00  0.00    +0.000 A 
ATOM     21  C   LIG    1       10.887   1.490  -1.541  0.00  0.00    +0.090 A 
ATOM     22  C   LIG    1        9.622   0.902  -1.490  0.00  0.00    -0.140 A 
ATOM     23  C   LIG    1        9.475  -0.453  -1.792  0.00  0.00    +0.080 A 
ATOM     24  C   LIG    1       10.579  -1.200  -2.148  0.00  0.00    +0.000 A 
BRANCH  19  26
ATOM     25  C   LIG    1       14.044  -1.427  -1.433  0.00  0.00    +0.040 C 
ATOM     26  C   LIG    1       13.032  -1.436  -2.580  0.00  0.00    -0.040 C 
ATOM     27  C   LIG    1       13.677  -0.843  -3.835  0.00  0.00    +0.040 C 
ATOM     28  C   LIG    1       12.595  -2.875  -2.863  0.00  0.00    +0.030 C 
ENDBRANCH  19  26
ENDBRANCH  17  22
ENDBRANCH  16  17
ENDBRANCH   1  16
TORSDOF 6
