REMARK  Name = ZINCqH0000069B8g.0
REMARK                            x       y       z     vdW  Elec       q    Type
REMARK                         _______ _______ _______ _____ _____    ______ ____
ROOT
ATOM      1  N   LIG    1       -0.275   1.170   2.486  0.00  0.00    -0.680 N 
ATOM      2  H   LIG    1       -0.189   0.206   2.420  0.00  0.00    +0.410 HD
ATOM      3  C   LIG    1        0.160   1.956   1.481  0.00  0.00    +0.500 C 
ATOM      4  O   LIG    1       -0.020   3.154   1.528  0.00  0.00    -0.490 OA
ENDROOT
BRANCH   1   9
ATOM      5  C   LIG    1       -2.696   2.869   4.705  0.00  0.00    -0.160 A 
ATOM      6  C   LIG    1       -1.975   2.881   5.903  0.00  0.00    +0.110 A 
ATOM      7  C   LIG    1       -0.712   2.332   5.954  0.00  0.00    +0.000 A 
ATOM      8  C   LIG    1       -0.150   1.765   4.822  0.00  0.00    -0.030 A 
ATOM      9  C   LIG    1       -0.851   1.745   3.627  0.00  0.00    +0.090 A 
ATOM     10  C   LIG    1        1.232   1.167   4.892  0.00  0.00    +0.110 C 
ATOM     11  C   LIG    1       -2.126   2.301   3.558  0.00  0.00    +0.200 A 
BRANCH   5  12
ATOM     12  C   LIG    1       -4.046   3.457   4.647  0.00  0.00    +0.510 C 
ATOM     13  O   LIG    1       -4.670   3.444   3.604  0.00  0.00    -0.490 OA
BRANCH  12  15
ATOM     14  C   LIG    1       -5.923   4.567   5.620  0.00  0.00    +0.260 C 
ATOM     15  O   LIG    1       -4.589   4.008   5.750  0.00  0.00    -0.360 OA
ENDBRANCH  12  15
ENDBRANCH   5  12
BRANCH  11  16
ATOM     16  O   LIG    1       -2.813   2.289   2.389  0.00  0.00    -0.470 OA
ATOM     17  H   LIG    1       -3.400   1.527   2.285  0.00  0.00    +0.390 HD
ENDBRANCH  11  16
ENDBRANCH   1   9
BRANCH   3  18
ATOM     18  C   LIG    1        0.869   1.346   0.300  0.00  0.00    +0.350 C 
BRANCH  18  19
ATOM     19  N   LIG    1        1.238   2.401  -0.647  0.00  0.00    -0.470 N 
ATOM     20  C   LIG    1        0.497   2.774  -1.736  0.00  0.00    +0.230 A 
ATOM     21  C   LIG    1        1.117   3.768  -2.392  0.00  0.00    -0.040 A 
ATOM     22  C   LIG    1        2.356   4.055  -1.663  0.00  0.00    -0.100 A 
ATOM     23  C   LIG    1        3.401   4.962  -1.847  0.00  0.00    +0.070 A 
ATOM     24  C   LIG    1        4.445   4.982  -0.966  0.00  0.00    -0.010 A 
ATOM     25  C   LIG    1        4.475   4.106   0.111  0.00  0.00    -0.010 A 
ATOM     26  C   LIG    1        3.453   3.202   0.311  0.00  0.00    +0.000 A 
ATOM     27 CL   LIG    1        5.813   4.149   1.217  0.00  0.00    -0.070 Cl
ATOM     28  C   LIG    1        2.378   3.169  -0.571  0.00  0.00    +0.120 A 
ENDBRANCH  18  19
ENDBRANCH   3  18
TORSDOF 6
