REMARK  Name = ZINCqH0000037Tuo.0
REMARK                            x       y       z     vdW  Elec       q    Type
REMARK                         _______ _______ _______ _____ _____    ______ ____
ROOT
ATOM      1  C   LIG    1        0.603   0.416   2.597  0.00  0.00    +0.110 C 
ATOM      2  C   LIG    1       -0.474   1.448   2.379  0.00  0.00    -0.080 A 
ATOM      3  C   LIG    1       -1.194   1.945   3.449  0.00  0.00    +0.070 A 
ATOM      4  C   LIG    1       -2.180   2.899   3.200  0.00  0.00    +0.090 A 
ATOM      5  C   LIG    1       -2.405   3.316   1.897  0.00  0.00    +0.240 A 
ATOM      6  N   LIG    1       -1.694   2.824   0.900  0.00  0.00    -0.490 NA
ATOM      7  C   LIG    1       -0.754   1.913   1.098  0.00  0.00    +0.280 A 
ENDROOT
BRANCH   7   8
ATOM      8  N   LIG    1       -0.034   1.420   0.013  0.00  0.00    -0.480 N 
ATOM      9  C   LIG    1        0.593   2.512  -0.742  0.00  0.00    +0.180 C 
ATOM     10  C   LIG    1        1.491   1.927  -1.835  0.00  0.00    +0.020 C 
ATOM     11  C   LIG    1        0.648   1.054  -2.769  0.00  0.00    +0.010 C 
ATOM     12  C   LIG    1       -0.033  -0.046  -1.949  0.00  0.00    +0.030 C 
ATOM     13  C   LIG    1       -0.886   0.596  -0.853  0.00  0.00    +0.140 C 
ATOM     14  C   LIG    1       -1.553  -0.500  -0.019  0.00  0.00    +0.030 C 
ENDBRANCH   7   8
BRANCH   4  15
ATOM     15  N   LIG    1       -2.935   3.430   4.255  0.00  0.00    -0.660 N 
ATOM     16  H   LIG    1       -3.868   3.657   4.117  0.00  0.00    +0.410 HD
ATOM     17  C   LIG    1       -2.364   3.627   5.460  0.00  0.00    +0.570 C 
ATOM     18  O   LIG    1       -1.218   3.269   5.655  0.00  0.00    -0.510 OA
BRANCH  17  19
ATOM     19  C   LIG    1       -3.129   4.276   6.542  0.00  0.00    -0.130 A 
ATOM     20  C   LIG    1       -4.443   4.693   6.317  0.00  0.00    +0.070 A 
ATOM     21  C   LIG    1       -5.158   5.294   7.330  0.00  0.00    +0.040 A 
ATOM     22  C   LIG    1       -4.573   5.498   8.572  0.00  0.00    +0.070 A 
ATOM     23  O   LIG    1       -5.058   6.063   9.715  0.00  0.00    -0.300 OA
ATOM     24  C   LIG    1       -3.901   6.368  10.515  0.00  0.00    +0.440 C 
ATOM     25  O   LIG    1       -2.924   5.400  10.088  0.00  0.00    -0.300 OA
ATOM     26  C   LIG    1       -3.259   5.089   8.802  0.00  0.00    +0.030 A 
ATOM     27  C   LIG    1       -2.539   4.481   7.792  0.00  0.00    +0.110 A 
ENDBRANCH  17  19
ENDBRANCH   4  15
TORSDOF 3
