REMARK  Name = ZINCAx0000000bkI.0
REMARK                            x       y       z     vdW  Elec       q    Type
REMARK                         _______ _______ _______ _____ _____    ______ ____
ROOT
ATOM      1  C   LIG    1       -3.839   6.981  -2.920  0.00  0.00    -0.120 A 
ATOM      2  C   LIG    1       -3.676   7.644  -1.700  0.00  0.00    +0.200 A 
ATOM      3  C   LIG    1       -4.215   8.899  -1.523  0.00  0.00    -0.690 A 
ATOM      4  C   LIG    1       -4.920   9.510  -2.548  0.00  0.00    +0.170 A 
ATOM      5  C   LIG    1       -5.090   8.869  -3.758  0.00  0.00    -0.040 A 
ATOM      6  C   LIG    1       -4.549   7.605  -3.958  0.00  0.00    +0.210 A 
ENDROOT
BRANCH   6   7
ATOM      7  N   LIG    1       -4.714   6.961  -5.177  0.00  0.00    -0.490 N 
ATOM      8  C   LIG    1       -4.047   7.700  -6.259  0.00  0.00    +0.170 C 
ATOM      9  C   LIG    1       -4.202   6.926  -7.570  0.00  0.00    +0.240 C 
ATOM     10  O   LIG    1       -5.593   6.718  -7.833  0.00  0.00    -0.380 OA
ATOM     11  C   LIG    1       -6.273   5.999  -6.800  0.00  0.00    +0.240 C 
ATOM     12  C   LIG    1       -6.138   6.764  -5.481  0.00  0.00    +0.160 C 
ENDBRANCH   6   7
BRANCH   3  13
ATOM     13  S   LIG    1       -4.008   9.733   0.015  0.00  0.00    +2.690 S 
ATOM     14  O   LIG    1       -3.774   8.725   0.989  0.00  0.00    -0.940 OA
ATOM     15  O   LIG    1       -5.070  10.672   0.109  0.00  0.00    -0.950 OA
BRANCH  13  16
ATOM     16  N   LIG    1       -2.611  10.616  -0.089  0.00  0.00    -0.990 NA
ATOM     17  C   LIG    1       -1.325  10.032   0.314  0.00  0.00    +0.290 C 
ATOM     18  C   LIG    1       -0.333  10.184  -0.849  0.00  0.00    +0.010 C 
ATOM     19  C   LIG    1       -0.254  11.658  -1.254  0.00  0.00    +0.010 C 
ATOM     20  C   LIG    1       -1.629  12.132  -1.730  0.00  0.00    +0.010 C 
ATOM     21  C   LIG    1       -2.635  12.000  -0.582  0.00  0.00    +0.290 C 
ENDBRANCH  13  16
ENDBRANCH   3  13
BRANCH   1  22
ATOM     22  C   LIG    1       -3.264   5.639  -3.117  0.00  0.00    +0.510 C 
ATOM     23  O   LIG    1       -3.409   5.066  -4.179  0.00  0.00    -0.460 OA
BRANCH  22  24
ATOM     24  O   LIG    1       -2.579   5.047  -2.119  0.00  0.00    -0.330 OA
BRANCH  24  25
ATOM     25  C   LIG    1       -2.041   3.724  -2.383  0.00  0.00    +0.250 C 
BRANCH  25  28
ATOM     26  N   LIG    1       -0.727   2.011  -1.176  0.00  0.00    -0.720 N 
ATOM     27  H   LIG    1       -0.775   1.459  -1.972  0.00  0.00    +0.400 HD
ATOM     28  C   LIG    1       -1.312   3.225  -1.163  0.00  0.00    +0.520 C 
ATOM     29  O   LIG    1       -1.252   3.916  -0.168  0.00  0.00    -0.510 OA
BRANCH  26  35
ATOM     30  C   LIG    1        0.026  -0.018   2.500  0.00  0.00    +0.020 C 
ATOM     31  C   LIG    1        0.742  -0.511   1.242  0.00  0.00    +0.000 C 
ATOM     32  C   LIG    1        2.178   0.019   1.231  0.00  0.00    +0.010 C 
ATOM     33  C   LIG    1        2.157   1.548   1.239  0.00  0.00    +0.020 C 
ATOM     34  C   LIG    1        1.417   2.055  -0.000  0.00  0.00    +0.000 C 
ATOM     35  C   LIG    1       -0.019   1.526   0.010  0.00  0.00    +0.250 C 
ATOM     36  C   LIG    1        0.002  -0.004   0.002  0.00  0.00    -0.010 C 
ATOM     37  C   LIG    1       -1.433  -0.534   0.013  0.00  0.00    +0.020 C 
ENDBRANCH  26  35
ENDBRANCH  25  28
ENDBRANCH  24  25
ENDBRANCH  22  24
ENDBRANCH   1  22
TORSDOF 8
