REMARK  Name = ZINC9u0000000C81.0
REMARK                            x       y       z     vdW  Elec       q    Type
REMARK                         _______ _______ _______ _____ _____    ______ ____
ROOT
ATOM      1  C   LIG    1       -0.573   5.617   0.036  0.00  0.00    -0.010 A 
ATOM      2  C   LIG    1        0.813   5.559   0.022  0.00  0.00    +0.050 A 
ATOM      3  C   LIG    1        1.466   4.345   0.011  0.00  0.00    +0.020 A 
ATOM      4  C   LIG    1        0.735   3.164   0.011  0.00  0.00    +0.050 A 
ATOM      5  O   LIG    1        1.079   1.860   0.002  0.00  0.00    -0.200 OA
ATOM      6  C   LIG    1       -0.013   1.076   0.008  0.00  0.00    +0.220 A 
ATOM      7  C   LIG    1       -1.121   1.828   0.017  0.00  0.00    -0.050 A 
ATOM      8  C   LIG    1       -0.669   3.224   0.025  0.00  0.00    -0.130 A 
ATOM      9  C   LIG    1       -1.317   4.458   0.037  0.00  0.00    +0.060 A 
ENDROOT
TORSDOF 0
