REMARK  Name = ZINCfA000000bmgh.0
REMARK                            x       y       z     vdW  Elec       q    Type
REMARK                         _______ _______ _______ _____ _____    ______ ____
ROOT
ATOM      1  C   LIG    1       -1.050  -0.466  -3.160  0.00  0.00    +0.110 C 
ATOM      2  C   LIG    1        0.255   0.239  -2.784  0.00  0.00    +0.250 C 
ENDROOT
BRANCH   2   3
ATOM      3  C   LIG    1        1.191   0.226  -3.965  0.00  0.00    +0.080 A 
ATOM      4  C   LIG    1        1.998  -0.873  -4.185  0.00  0.00    +0.030 A 
ATOM      5  C   LIG    1        2.856  -0.875  -5.274  0.00  0.00    +0.130 A 
ATOM      6  C   LIG    1        2.868   0.234  -6.107  0.00  0.00    -0.130 A 
ATOM      7  C   LIG    1        2.031   1.298  -5.823  0.00  0.00    +0.330 A 
ATOM      8 BR   LIG    1        4.014   0.292  -7.609  0.00  0.00    +0.010 Br
ATOM      9  N   LIG    1        1.225   1.262  -4.780  0.00  0.00    -0.490 NA
ENDBRANCH   2   3
BRANCH   2  10
ATOM     10  N   LIG    1       -0.031   1.628  -2.400  0.00  0.00    -0.500 N 
ATOM     11  H   LIG    1        0.836   2.115  -2.232  0.00  0.00    +0.430 HD
ATOM     12  H   LIG    1       -0.535   2.085  -3.145  0.00  0.00    +0.440 HD
BRANCH  10  13
ATOM     13  C   LIG    1       -0.845   1.640  -1.178  0.00  0.00    +0.180 C 
ATOM     14  C   LIG    1       -1.270   3.075  -0.859  0.00  0.00    +0.060 C 
ATOM     15  C   LIG    1       -1.449   3.313   0.649  0.00  0.00    +0.150 C 
ATOM     16  S   LIG    1       -0.973   1.728   1.440  0.00  0.00    -0.200 S 
ATOM     17  C   LIG    1       -0.013   1.086   0.008  0.00  0.00    +0.120 C 
ENDBRANCH  10  13
ENDBRANCH   2  10
TORSDOF 3
