REMARK  Name = ZINCvU0000000IZZ.0
REMARK                            x       y       z     vdW  Elec       q    Type
REMARK                         _______ _______ _______ _____ _____    ______ ____
ROOT
ATOM      1  O   LIG    1       -2.900   9.521   1.333  0.00  0.00    -0.500 OA
ATOM      2  C   LIG    1       -3.321   8.850   2.252  0.00  0.00    +0.530 C 
ATOM      3  N   LIG    1       -3.255   7.506   2.191  0.00  0.00    -0.670 N 
ATOM      4  H   LIG    1       -3.657   6.968   2.890  0.00  0.00    +0.410 HD
ENDROOT
BRANCH   2   5
ATOM      5  C   LIG    1       -3.916   9.521   3.463  0.00  0.00    -0.030 C 
ATOM      6  C   LIG    1       -5.315   8.955   3.726  0.00  0.00    +0.030 C 
ATOM      7  C   LIG    1       -6.221   9.285   2.534  0.00  0.00    +0.210 C 
ATOM      8  O   LIG    1       -6.252  10.700   2.337  0.00  0.00    -0.380 OA
ATOM      9  C   LIG    1       -4.979  11.277   2.042  0.00  0.00    +0.220 C 
ATOM     10  C   LIG    1       -4.024  11.028   3.213  0.00  0.00    +0.050 C 
BRANCH   5  11
ATOM     11  C   LIG    1       -3.038   9.270   4.661  0.00  0.00    -0.080 A 
ATOM     12  C   LIG    1       -3.571   8.699   5.801  0.00  0.00    +0.060 A 
ATOM     13  C   LIG    1       -2.765   8.469   6.901  0.00  0.00    +0.030 A 
ATOM     14  C   LIG    1       -1.426   8.810   6.860  0.00  0.00    +0.070 A 
ATOM     15  C   LIG    1       -0.893   9.382   5.720  0.00  0.00    -0.180 A 
ATOM     16  C   LIG    1       -1.698   9.607   4.619  0.00  0.00    +0.070 A 
BRANCH  15  17
ATOM     17  C   LIG    1        0.567   9.755   5.675  0.00  0.00    +0.510 C 
ATOM     18  F   LIG    1        0.690  11.130   5.447  0.00  0.00    -0.170 F 
ATOM     19  F   LIG    1        1.196   9.052   4.642  0.00  0.00    -0.170 F 
ATOM     20  F   LIG    1        1.168   9.429   6.895  0.00  0.00    -0.180 F 
ENDBRANCH  15  17
ENDBRANCH   5  11
ENDBRANCH   2   5
BRANCH   3  21
ATOM     21  C   LIG    1       -2.605   6.885   1.117  0.00  0.00    +0.170 A 
ATOM     22  C   LIG    1       -1.504   7.492   0.526  0.00  0.00    -0.020 A 
ATOM     23  C   LIG    1       -0.863   6.881  -0.534  0.00  0.00    +0.060 A 
ATOM     24  C   LIG    1       -1.313   5.665  -1.009  0.00  0.00    -0.050 A 
ATOM     25  C   LIG    1       -2.414   5.052  -0.422  0.00  0.00    +0.130 A 
ATOM     26  C   LIG    1       -3.064   5.666   0.639  0.00  0.00    -0.040 A 
BRANCH  25  27
ATOM     27  N   LIG    1       -2.869   3.822  -0.903  0.00  0.00    -0.490 N 
ATOM     28  C   LIG    1       -2.045   3.359  -2.027  0.00  0.00    +0.180 C 
ATOM     29  C   LIG    1       -2.656   2.088  -2.620  0.00  0.00    +0.020 C 
ATOM     30  C   LIG    1       -2.728   1.008  -1.536  0.00  0.00    +0.010 C 
ATOM     31  C   LIG    1       -3.551   1.533  -0.356  0.00  0.00    +0.020 C 
ATOM     32  C   LIG    1       -2.914   2.821   0.171  0.00  0.00    +0.180 C 
ENDBRANCH  25  27
ENDBRANCH   3  21
TORSDOF 5
