REMARK  Name = ZINCpk00000xVbcI.0
REMARK                            x       y       z     vdW  Elec       q    Type
REMARK                         _______ _______ _______ _____ _____    ______ ____
ROOT
ATOM      1  N   LIG    1        2.113   0.106  -1.255  0.00  0.00    -0.480 N 
ATOM      2  C   LIG    1        2.065   1.575  -1.255  0.00  0.00    +0.180 C 
ATOM      3  C   LIG    1        1.312   2.056  -0.012  0.00  0.00    +0.180 C 
ATOM      4  O   LIG    1        0.007   1.471   0.005  0.00  0.00    -0.360 OA
ATOM      5  C   LIG    1        0.017   0.041   0.006  0.00  0.00    +0.120 C 
ATOM      6  C   LIG    1       -1.421  -0.481  -0.011  0.00  0.00    +0.060 C 
ATOM      7  C   LIG    1        0.730  -0.464   1.263  0.00  0.00    +0.020 C 
ATOM      8  C   LIG    1        0.757  -0.460  -1.237  0.00  0.00    +0.190 C 
ENDROOT
BRANCH   1  14
ATOM      9  C   LIG    1        2.479  -0.506  -5.993  0.00  0.00    +0.170 C 
ATOM     10  C   LIG    1        3.047  -0.679  -4.608  0.00  0.00    +0.330 A 
ATOM     11  N   LIG    1        4.213  -1.276  -4.465  0.00  0.00    -0.520 NA
ATOM     12  C   LIG    1        4.748  -1.448  -3.264  0.00  0.00    +0.180 A 
ATOM     13  C   LIG    1        4.068  -0.994  -2.151  0.00  0.00    -0.170 A 
ATOM     14  C   LIG    1        2.835  -0.367  -2.339  0.00  0.00    +0.340 A 
ATOM     15  C   LIG    1        4.643  -1.171  -0.769  0.00  0.00    +0.120 C 
ATOM     16  C   LIG    1        6.083  -2.132  -3.115  0.00  0.00    +0.140 C 
ATOM     17  N   LIG    1        2.361  -0.236  -3.575  0.00  0.00    -0.550 NA
ENDBRANCH   1  14
BRANCH   3  18
ATOM     18  C   LIG    1        1.188   3.580  -0.047  0.00  0.00    +0.200 C 
BRANCH  18  19
ATOM     19  O   LIG    1        0.584   4.037   1.165  0.00  0.00    -0.350 OA
BRANCH  19  20
ATOM     20  C   LIG    1        0.422   5.455   1.235  0.00  0.00    +0.210 C 
BRANCH  20  21
ATOM     21  C   LIG    1       -0.220   5.823   2.548  0.00  0.00    +0.510 C 
ATOM     22  N   LIG    1       -0.472   7.115   2.836  0.00  0.00    -0.620 N 
ATOM     23  C   LIG    1       -0.123   8.162   1.873  0.00  0.00    +0.280 C 
ATOM     24  C   LIG    1       -1.096   7.473   4.112  0.00  0.00    +0.300 C 
ATOM     25  O   LIG    1       -0.510   4.957   3.345  0.00  0.00    -0.510 OA
ENDBRANCH  20  21
ENDBRANCH  19  20
ENDBRANCH  18  19
ENDBRANCH   3  18
TORSDOF 5
