REMARK  Name = ZINCpk00000xVgIF.0
REMARK                            x       y       z     vdW  Elec       q    Type
REMARK                         _______ _______ _______ _____ _____    ______ ____
ROOT
ATOM      1  C   LIG    1       -2.333  -0.656  -0.317  0.00  0.00    +0.570 C 
ATOM      2  N   LIG    1       -3.482  -1.278  -0.649  0.00  0.00    -0.610 N 
ATOM      3  C   LIG    1       -4.751  -0.537  -0.714  0.00  0.00    +0.290 C 
ATOM      4  C   LIG    1       -5.410  -0.827  -2.071  0.00  0.00    +0.200 C 
ATOM      5  N   LIG    1       -5.531  -2.280  -2.250  0.00  0.00    -0.450 N 
ATOM      6  C   LIG    1       -4.211  -2.923  -2.294  0.00  0.00    +0.200 C 
ATOM      7  C   LIG    1       -3.501  -2.717  -0.952  0.00  0.00    +0.300 C 
ATOM      8  O   LIG    1       -1.308  -1.298  -0.194  0.00  0.00    -0.520 OA
ENDROOT
BRANCH   1  12
ATOM      9  C   LIG    1       -4.183   3.384   1.944  0.00  0.00    +0.110 C 
ATOM     10  C   LIG    1       -3.207   2.753   0.985  0.00  0.00    -0.140 A 
ATOM     11  C   LIG    1       -3.224   1.389   0.788  0.00  0.00    +0.150 A 
ATOM     12  C   LIG    1       -2.320   0.802  -0.101  0.00  0.00    -0.210 A 
ATOM     13  C   LIG    1       -1.401   1.609  -0.788  0.00  0.00    +0.320 A 
ATOM     14  C   LIG    1       -1.395   2.982  -0.572  0.00  0.00    -0.120 A 
ATOM     15  C   LIG    1       -2.297   3.547   0.305  0.00  0.00    +0.170 A 
BRANCH  14  16
ATOM     16  N   LIG    1       -0.423   3.839  -1.288  0.00  0.00    +0.050 N 
ATOM     17  O   LIG    1        0.288   3.361  -2.153  0.00  0.00    -0.190 OA
ATOM     18  O   LIG    1       -0.336   5.022  -1.012  0.00  0.00    -0.160 OA
ENDBRANCH  14  16
BRANCH  13  19
ATOM     19  N   LIG    1       -0.497   1.038  -1.675  0.00  0.00    -0.830 N 
ATOM     20  H   LIG    1        0.341   1.487  -1.869  0.00  0.00    +0.420 HD
ATOM     21  H   LIG    1       -0.705   0.193  -2.103  0.00  0.00    +0.410 HD
ENDBRANCH  13  19
ENDBRANCH   1  12
BRANCH   5  22
ATOM     22  C   LIG    1       -6.276  -2.584  -3.396  0.00  0.00    +0.260 A 
ATOM     23  N   LIG    1       -5.881  -3.339  -4.394  0.00  0.00    -0.320 NA
ATOM     24  N   LIG    1       -6.915  -3.392  -5.337  0.00  0.00    -0.470 N 
ATOM     25  H   LIG    1       -6.897  -3.879  -6.176  0.00  0.00    +0.440 HD
ATOM     26  C   LIG    1       -7.942  -2.648  -4.875  0.00  0.00    +0.100 A 
ATOM     27  C   LIG    1       -9.261  -2.426  -5.569  0.00  0.00    +0.140 C 
ATOM     28  C   LIG    1       -7.579  -2.141  -3.674  0.00  0.00    -0.120 A 
ENDBRANCH   5  22
TORSDOF 4
