REMARK  Name = ZINCqH0000007ggo.0
REMARK                            x       y       z     vdW  Elec       q    Type
REMARK                         _______ _______ _______ _____ _____    ______ ____
ROOT
ATOM      1  C   LIG    1        2.228   2.999   0.310  0.00  0.00    +0.320 A 
ATOM      2  C   LIG    1        1.466   1.869   0.316  0.00  0.00    -0.230 A 
ATOM      3  C   LIG    1        0.086   1.354   0.662  0.00  0.00    +0.120 C 
ATOM      4  C   LIG    1        0.237  -0.180   0.750  0.00  0.00    +0.030 C 
ATOM      5  C   LIG    1        1.434  -0.456  -0.183  0.00  0.00    +0.140 C 
ATOM      6  C   LIG    1        2.248   0.820  -0.174  0.00  0.00    +0.070 A 
ATOM      7  N   LIG    1        3.437   1.292  -0.466  0.00  0.00    -0.260 NA
ATOM      8  N   LIG    1        3.454   2.661  -0.173  0.00  0.00    -0.340 N 
ENDROOT
BRANCH   8   9
ATOM      9  C   LIG    1        4.542   3.528  -0.345  0.00  0.00    +0.150 A 
ATOM     10  C   LIG    1        4.339   4.805  -0.852  0.00  0.00    -0.010 A 
ATOM     11  C   LIG    1        5.412   5.660  -1.015  0.00  0.00    +0.030 A 
ATOM     12  C   LIG    1        6.688   5.241  -0.685  0.00  0.00    +0.010 A 
ATOM     13  C   LIG    1        6.893   3.968  -0.185  0.00  0.00    +0.030 A 
ATOM     14  C   LIG    1        5.824   3.111  -0.014  0.00  0.00    +0.020 A 
ENDBRANCH   8   9
BRANCH   1  16
ATOM     15  C   LIG    1        0.524   4.616   0.654  0.00  0.00    +0.570 C 
ATOM     16  N   LIG    1        1.825   4.267   0.721  0.00  0.00    -0.650 N 
ATOM     17  H   LIG    1        2.479   4.900   1.056  0.00  0.00    +0.410 HD
ATOM     18  O   LIG    1       -0.304   3.806   0.285  0.00  0.00    -0.470 OA
BRANCH  15  25
ATOM     19  C   LIG    1       -1.245   6.346   0.960  0.00  0.00    +0.190 A 
ATOM     20  C   LIG    1       -1.628   7.631   1.314  0.00  0.00    -0.040 A 
ATOM     21  C   LIG    1       -0.682   8.546   1.733  0.00  0.00    +0.070 A 
ATOM     22  C   LIG    1        0.656   8.188   1.803  0.00  0.00    +0.060 A 
ATOM     23  C   LIG    1        1.054   6.912   1.459  0.00  0.00    +0.060 A 
ATOM     24  F   LIG    1        1.574   9.091   2.214  0.00  0.00    -0.130 F 
ATOM     25  C   LIG    1        0.106   5.980   1.029  0.00  0.00    -0.150 A 
BRANCH  19  27
ATOM     26  C   LIG    1       -3.532   5.892   0.505  0.00  0.00    +0.250 C 
ATOM     27  O   LIG    1       -2.175   5.447   0.549  0.00  0.00    -0.280 OA
ENDBRANCH  19  27
ENDBRANCH  15  25
ENDBRANCH   1  16
TORSDOF 4
