REMARK  Name = ZINCrD0000072tnS.0
REMARK                            x       y       z     vdW  Elec       q    Type
REMARK                         _______ _______ _______ _____ _____    ______ ____
ROOT
ATOM      1  C   LIG    1       -0.144  -1.671   1.004  0.00  0.00    +0.280 C 
ATOM      2  N   LIG    1       -0.025  -0.403   1.729  0.00  0.00    -0.610 N 
ATOM      3  C   LIG    1        0.642  -0.356   2.899  0.00  0.00    +0.720 C 
ATOM      4  N   LIG    1        1.198  -1.476   3.403  0.00  0.00    -0.710 N 
ATOM      5  H   LIG    1        1.119  -2.315   2.923  0.00  0.00    +0.400 HD
ATOM      6  O   LIG    1        0.741   0.696   3.501  0.00  0.00    -0.580 OA
ENDROOT
BRANCH   2   7
ATOM      7  C   LIG    1       -0.629   0.814   1.181  0.00  0.00    +0.290 C 
ATOM      8  C   LIG    1       -0.019   1.112  -0.191  0.00  0.00    +0.040 C 
ATOM      9  C   LIG    1       -0.848   2.214  -0.862  0.00  0.00    +0.050 C 
ATOM     10  C   LIG    1       -2.234   1.655  -1.187  0.00  0.00    +0.260 C 
ATOM     11  N   LIG    1       -2.817   1.021  -0.011  0.00  0.00    -0.560 N 
ATOM     12  C   LIG    1       -2.113   0.619   1.048  0.00  0.00    +0.510 C 
ATOM     13  O   LIG    1       -2.703   0.066   1.952  0.00  0.00    -0.520 OA
BRANCH  11  14
ATOM     14  C   LIG    1       -4.202   0.821   0.007  0.00  0.00    +0.130 A 
ATOM     15  C   LIG    1       -4.743  -0.348  -0.509  0.00  0.00    +0.010 A 
ATOM     16  C   LIG    1       -6.110  -0.545  -0.484  0.00  0.00    +0.020 A 
ATOM     17  C   LIG    1       -6.940   0.427   0.045  0.00  0.00    +0.020 A 
ATOM     18  C   LIG    1       -6.404   1.595   0.554  0.00  0.00    +0.020 A 
ATOM     19  C   LIG    1       -5.038   1.795   0.537  0.00  0.00    +0.010 A 
ENDBRANCH  11  14
ENDBRANCH   2   7
BRANCH   4  20
ATOM     20  C   LIG    1        1.923  -1.425   4.676  0.00  0.00    +0.270 C 
ATOM     21  C   LIG    1        3.255  -2.172   4.760  0.00  0.00    +0.030 C 
ATOM     22  C   LIG    1        2.022  -2.720   5.484  0.00  0.00    -0.010 C 
BRANCH  22  23
ATOM     23  C   LIG    1        1.368  -3.950   4.910  0.00  0.00    -0.050 A 
ATOM     24  C   LIG    1        1.765  -4.434   3.678  0.00  0.00    -0.020 A 
ATOM     25  C   LIG    1        1.168  -5.565   3.154  0.00  0.00    +0.010 A 
ATOM     26  C   LIG    1        0.167  -6.207   3.858  0.00  0.00    +0.000 A 
ATOM     27  C   LIG    1       -0.234  -5.721   5.088  0.00  0.00    +0.010 A 
ATOM     28  C   LIG    1        0.366  -4.592   5.615  0.00  0.00    +0.010 A 
ENDBRANCH  22  23
ENDBRANCH   4  20
TORSDOF 4
