REMARK  Name = ZINCrH000004rnFP.0
REMARK                            x       y       z     vdW  Elec       q    Type
REMARK                         _______ _______ _______ _____ _____    ______ ____
ROOT
ATOM      1  N   LIG    1        5.961   2.024  -0.356  0.00  0.00    -0.560 N 
ATOM      2  C   LIG    1        6.630   2.514   0.693  0.00  0.00    +0.710 C 
ATOM      3  N   LIG    1        7.590   3.384   0.329  0.00  0.00    -0.710 N 
ATOM      4  H   LIG    1        8.196   3.859   0.919  0.00  0.00    +0.440 HD
ATOM      5  C   LIG    1        7.543   3.473  -1.141  0.00  0.00    +0.170 C 
ATOM      6  C   LIG    1        8.867   3.007  -1.752  0.00  0.00    +0.110 C 
ATOM      7  O   LIG    1        6.397   2.209   1.846  0.00  0.00    -0.530 OA
ATOM      8  C   LIG    1        6.423   2.524  -1.519  0.00  0.00    +0.540 C 
ATOM      9  O   LIG    1        6.025   2.268  -2.636  0.00  0.00    -0.450 OA
ENDROOT
BRANCH   5  10
ATOM     10  C   LIG    1        7.222   4.879  -1.577  0.00  0.00    -0.090 A 
ATOM     11  C   LIG    1        6.516   5.096  -2.746  0.00  0.00    +0.060 A 
ATOM     12  C   LIG    1        6.216   6.385  -3.143  0.00  0.00    +0.040 A 
ATOM     13  C   LIG    1        6.632   7.460  -2.377  0.00  0.00    -0.020 A 
ATOM     14  C   LIG    1        7.343   7.242  -1.210  0.00  0.00    +0.030 A 
ATOM     15 CL   LIG    1        6.261   9.079  -2.878  0.00  0.00    -0.060 Cl
ATOM     16  C   LIG    1        7.638   5.952  -0.810  0.00  0.00    +0.050 A 
ENDBRANCH   5  10
BRANCH   1  17
ATOM     17  C   LIG    1        4.864   1.058  -0.254  0.00  0.00    +0.370 C 
BRANCH  17  20
ATOM     18  N   LIG    1        2.402   1.107  -0.015  0.00  0.00    -0.670 N 
ATOM     19  H   LIG    1        2.420   0.139   0.057  0.00  0.00    +0.420 HD
ATOM     20  C   LIG    1        3.556   1.795  -0.124  0.00  0.00    +0.500 C 
ATOM     21  O   LIG    1        3.541   3.008  -0.117  0.00  0.00    -0.500 OA
BRANCH  18  26
ATOM     22  C   LIG    1       -2.556   3.864   0.026  0.00  0.00    +0.100 C 
ATOM     23  C   LIG    1       -1.239   3.132   0.015  0.00  0.00    -0.090 A 
ATOM     24  C   LIG    1       -1.087   1.974   0.755  0.00  0.00    +0.050 A 
ATOM     25  C   LIG    1        0.119   1.300   0.747  0.00  0.00    +0.000 A 
ATOM     26  C   LIG    1        1.180   1.787  -0.005  0.00  0.00    +0.150 A 
ATOM     27  C   LIG    1        1.025   2.950  -0.748  0.00  0.00    +0.030 A 
ATOM     28  C   LIG    1       -0.182   3.623  -0.732  0.00  0.00    -0.020 A 
ATOM     29 CL   LIG    1       -0.375   5.082  -1.653  0.00  0.00    -0.060 Cl
ENDBRANCH  18  26
ENDBRANCH  17  20
ENDBRANCH   1  17
TORSDOF 4
