REMARK  Name = ZINCb70000002Axu.0
REMARK                            x       y       z     vdW  Elec       q    Type
REMARK                         _______ _______ _______ _____ _____    ______ ____
ROOT
ATOM      1  C   LIG    1        0.880  -0.358  -1.545  0.00  0.00    -0.460 C 
ATOM      2  C   LIG    1        2.259   0.245  -1.491  0.00  0.00    +0.060 C 
ATOM      3  C   LIG    1        2.786   0.685  -2.871  0.00  0.00    +0.070 C 
ATOM      4  C   LIG    1        2.479  -0.339  -3.978  0.00  0.00    +0.250 C 
ATOM      5  N   LIG    1        2.682  -1.691  -3.511  0.00  0.00    -0.500 N 
ATOM      6  C   LIG    1        1.371  -2.225  -3.104  0.00  0.00    +0.270 C 
ATOM      7  H   LIG    1        3.066  -2.255  -4.255  0.00  0.00    +0.440 HD
ATOM      8  H   LIG    1        3.312  -1.690  -2.723  0.00  0.00    +0.430 HD
ATOM      9  C   LIG    1        1.001  -1.890  -1.732  0.00  0.00    +0.100 C 
ENDROOT
BRANCH   1  11
ATOM     10  C   LIG    1       -0.022   1.810   0.012  0.00  0.00    -0.260 C 
ATOM     11  S   LIG    1        0.002  -0.004   0.002  0.00  0.00    +2.430 S 
ATOM     12  O   LIG    1       -1.334  -0.474  -0.117  0.00  0.00    -0.920 OA
ATOM     13  O   LIG    1        0.801  -0.452   1.088  0.00  0.00    -0.920 OA
ENDBRANCH   1  11
TORSDOF 1
