REMARK  Name = ZINCpk000000np4d.1
REMARK                            x       y       z     vdW  Elec       q    Type
REMARK                         _______ _______ _______ _____ _____    ______ ____
ROOT
ATOM      1  S   LIG    1       -2.495   5.649  -1.370  0.00  0.00    +2.700 S 
ATOM      2  O   LIG    1       -2.365   6.968  -1.883  0.00  0.00    -0.950 OA
ATOM      3  O   LIG    1       -3.082   5.359  -0.108  0.00  0.00    -0.950 OA
ENDROOT
BRANCH   1   7
ATOM      4  N   LIG    1       -3.916   2.886  -4.449  0.00  0.00    -0.530 NA
ATOM      5  C   LIG    1       -3.725   2.450  -3.059  0.00  0.00    +0.180 C 
ATOM      6  C   LIG    1       -4.113   3.590  -2.111  0.00  0.00    +0.310 C 
ATOM      7  N   LIG    1       -3.357   4.793  -2.495  0.00  0.00    -0.990 NA
ATOM      8  C   LIG    1       -3.394   5.218  -3.902  0.00  0.00    +0.310 C 
ATOM      9  C   LIG    1       -3.030   4.010  -4.780  0.00  0.00    +0.170 C 
BRANCH   4  10
ATOM     10  C   LIG    1       -3.720   1.769  -5.383  0.00  0.00    +0.150 C 
BRANCH  10  12
ATOM     11  C   LIG    1       -6.203   1.724  -5.657  0.00  0.00    +0.060 C 
ATOM     12  C   LIG    1       -4.962   0.875  -5.375  0.00  0.00    +0.130 C 
ATOM     13  C   LIG    1       -4.824  -0.199  -6.455  0.00  0.00    +0.020 C 
BRANCH  12  14
ATOM     14  O   LIG    1       -5.093   0.251  -4.096  0.00  0.00    -0.550 OA
ATOM     15  H   LIG    1       -4.340  -0.304  -3.851  0.00  0.00    +0.370 HD
ENDBRANCH  12  14
ENDBRANCH  10  12
ENDBRANCH   4  10
ENDBRANCH   1   7
BRANCH   1  16
ATOM     16  C   LIG    1       -0.870   4.968  -1.330  0.00  0.00    -0.710 A 
ATOM     17  C   LIG    1        0.209   5.733  -1.728  0.00  0.00    +0.200 A 
ATOM     18  C   LIG    1        1.485   5.199  -1.697  0.00  0.00    -0.210 A 
ATOM     19  C   LIG    1        1.683   3.900  -1.268  0.00  0.00    +0.150 A 
ATOM     20  C   LIG    1        0.607   3.131  -0.870  0.00  0.00    -0.010 A 
ATOM     21  C   LIG    1       -0.674   3.663  -0.904  0.00  0.00    +0.240 A 
BRANCH  18  22
ATOM     22  C   LIG    1        2.661   6.036  -2.132  0.00  0.00    +0.510 C 
ATOM     23  F   LIG    1        2.749   7.173  -1.321  0.00  0.00    -0.170 F 
ATOM     24  F   LIG    1        2.489   6.426  -3.465  0.00  0.00    -0.170 F 
ATOM     25  F   LIG    1        3.836   5.286  -2.013  0.00  0.00    -0.170 F 
ENDBRANCH  18  22
BRANCH  21  26
ATOM     26  O   LIG    1       -1.735   2.906  -0.518  0.00  0.00    -0.490 OA
ATOM     27  H   LIG    1       -1.945   2.976   0.424  0.00  0.00    +0.420 HD
ENDBRANCH  21  26
ENDBRANCH   1  16
TORSDOF 7
