REMARK  Name = ZINCrg00000AWtT7.0
REMARK                            x       y       z     vdW  Elec       q    Type
REMARK                         _______ _______ _______ _____ _____    ______ ____
ROOT
ATOM      1  C   LIG    1        4.623  12.192  -0.271  0.00  0.00    +0.630 C 
ATOM      2  N   LIG    1        3.702  11.211  -0.195  0.00  0.00    -0.630 N 
ATOM      3  C   LIG    1        3.725   9.741  -0.132  0.00  0.00    +0.310 C 
ATOM      4  C   LIG    1        2.381   9.812   0.600  0.00  0.00    -0.120 C 
ATOM      5  C   LIG    1        2.493   9.955   2.114  0.00  0.00    +0.060 C 
ATOM      6  C   LIG    1        1.111  10.265   2.699  0.00  0.00    +0.020 C 
ATOM      7  C   LIG    1        0.142   9.136   2.337  0.00  0.00    +0.280 C 
ATOM      8  N   LIG    1        0.113   8.976   0.877  0.00  0.00    -0.600 N 
ATOM      9  C   LIG    1       -1.051   9.043   0.201  0.00  0.00    +0.560 C 
ATOM     10  O   LIG    1       -2.100   9.136   0.806  0.00  0.00    -0.520 OA
ATOM     11  C   LIG    1        1.381   8.742   0.169  0.00  0.00    +0.310 C 
ATOM     12  C   LIG    1        2.233  11.140  -0.145  0.00  0.00    +0.290 C 
ATOM     13  O   LIG    1        4.270  13.355  -0.316  0.00  0.00    -0.530 OA
ENDROOT
BRANCH   9  14
ATOM     14  C   LIG    1       -1.050   9.003  -1.283  0.00  0.00    -0.010 A 
ATOM     15  C   LIG    1       -0.771  10.142  -2.017  0.00  0.00    -0.060 A 
ATOM     16  C   LIG    1       -0.779  10.067  -3.424  0.00  0.00    +0.510 A 
ATOM     17  N   LIG    1       -1.055   8.901  -4.036  0.00  0.00    -0.500 N 
ATOM     18  C   LIG    1       -1.329   7.781  -3.321  0.00  0.00    +0.310 A 
ATOM     19  C   LIG    1       -1.058   8.839  -5.500  0.00  0.00    +0.330 C 
ATOM     20  O   LIG    1       -0.535  11.061  -4.088  0.00  0.00    -0.540 OA
ATOM     21  C   LIG    1       -1.328   7.801  -1.968  0.00  0.00    -0.060 A 
ENDBRANCH   9  14
BRANCH   1  24
ATOM     22  C   LIG    1        6.991  14.238  -0.443  0.00  0.00    +0.210 C 
ATOM     23  C   LIG    1        7.094  12.736  -0.375  0.00  0.00    +0.050 A 
ATOM     24  C   LIG    1        6.058  11.856  -0.300  0.00  0.00    -0.080 A 
ATOM     25  N   LIG    1        6.597  10.607  -0.258  0.00  0.00    -0.460 NA
ATOM     26  C   LIG    1        7.891  10.715  -0.304  0.00  0.00    +0.440 A 
ATOM     27  O   LIG    1        8.224  12.011  -0.377  0.00  0.00    -0.200 OA
ENDBRANCH   1  24
TORSDOF 2
