REMARK  Name = ZINCpk00000xI5s3.0
REMARK                            x       y       z     vdW  Elec       q    Type
REMARK                         _______ _______ _______ _____ _____    ______ ____
ROOT
ATOM      1  N   LIG    1        5.816   0.820  -0.034  0.00  0.00    -0.430 N 
ATOM      2  N   LIG    1        6.439  -0.413   0.222  0.00  0.00    -0.210 NA
ATOM      3  C   LIG    1        5.810  -1.516   0.220  0.00  0.00    +0.100 C 
ATOM      4  C   LIG    1        4.338  -1.647  -0.059  0.00  0.00    +0.350 C 
ATOM      5  N   LIG    1        3.715  -0.326  -0.036  0.00  0.00    -0.450 N 
ATOM      6  C   LIG    1        2.382   0.026  -0.021  0.00  0.00    -0.150 A 
ATOM      7  C   LIG    1        1.167  -0.684  -0.013  0.00  0.00    +0.600 A 
ATOM      8  N   LIG    1        0.002  -0.004   0.002  0.00  0.00    -0.550 N 
ATOM      9  C   LIG    1       -0.016   1.340   0.009  0.00  0.00    +0.710 A 
ATOM     10  N   LIG    1        1.121   2.060   0.002  0.00  0.00    -0.510 N 
ATOM     11  C   LIG    1        1.060   3.523   0.010  0.00  0.00    +0.350 C 
ATOM     12  O   LIG    1       -1.085   1.919   0.018  0.00  0.00    -0.530 OA
ATOM     13  C   LIG    1       -1.263  -0.742   0.010  0.00  0.00    +0.350 C 
ATOM     14  O   LIG    1        1.167  -1.902  -0.021  0.00  0.00    -0.520 OA
ATOM     15  C   LIG    1        2.350   1.420  -0.012  0.00  0.00    +0.350 A 
ATOM     16  N   LIG    1        3.613   1.856  -0.020  0.00  0.00    -0.510 NA
ATOM     17  C   LIG    1        4.434   0.839  -0.031  0.00  0.00    +0.510 A 
ENDROOT
BRANCH   3  18
ATOM     18  C   LIG    1        6.587  -2.772   0.517  0.00  0.00    -0.000 C 
ATOM     19  C   LIG    1        6.492  -3.725  -0.677  0.00  0.00    +0.060 C 
ATOM     20  C   LIG    1        6.005  -3.451   1.758  0.00  0.00    +0.050 C 
ATOM     21  C   LIG    1        8.054  -2.417   0.770  0.00  0.00    +0.050 C 
ENDBRANCH   3  18
BRANCH   1  22
ATOM     22  C   LIG    1        6.597   2.032  -0.293  0.00  0.00    +0.350 C 
BRANCH  22  23
ATOM     23  C   LIG    1        6.875   2.751   1.029  0.00  0.00    +0.000 C 
BRANCH  23  25
ATOM     24  C   LIG    1        7.970   4.736   2.080  0.00  0.00    +0.010 C 
ATOM     25  C   LIG    1        7.691   4.017   0.759  0.00  0.00    +0.010 C 
ENDBRANCH  23  25
ENDBRANCH  22  23
ENDBRANCH   1  22
TORSDOF 4
