REMARK  Name = ZINCqH00000h4s24.0
REMARK                            x       y       z     vdW  Elec       q    Type
REMARK                         _______ _______ _______ _____ _____    ______ ____
ROOT
ATOM      1  N   LIG    1       -1.036   1.656   6.882  0.00  0.00    -0.740 N 
ATOM      2  H   LIG    1       -1.532   0.885   6.566  0.00  0.00    +0.390 HD
ATOM      3  C   LIG    1        0.134   1.485   7.529  0.00  0.00    +0.700 C 
ATOM      4  N   LIG    1        0.565   0.242   7.826  0.00  0.00    -0.630 N 
ATOM      5  C   LIG    1       -0.173  -0.938   7.354  0.00  0.00    +0.260 C 
ATOM      6  C   LIG    1        0.803  -1.855   6.602  0.00  0.00    +0.010 C 
ATOM      7  C   LIG    1        1.992  -2.179   7.509  0.00  0.00    +0.020 C 
ATOM      8  C   LIG    1        2.728  -0.886   7.870  0.00  0.00    +0.040 C 
ATOM      9  C   LIG    1        1.777   0.043   8.631  0.00  0.00    +0.310 C 
ATOM     10  O   LIG    1        0.801   2.451   7.846  0.00  0.00    -0.550 OA
ENDROOT
BRANCH   9  11
ATOM     11  C   LIG    1        2.450   1.370   8.870  0.00  0.00    +0.080 A 
ATOM     12  C   LIG    1        2.957   2.160   7.910  0.00  0.00    +0.020 A 
ATOM     13  C   LIG    1        3.508   3.343   8.576  0.00  0.00    -0.100 A 
ATOM     14  C   LIG    1        4.152   4.497   8.127  0.00  0.00    +0.050 A 
ATOM     15  C   LIG    1        4.563   5.439   9.029  0.00  0.00    -0.030 A 
ATOM     16  C   LIG    1        4.344   5.257  10.387  0.00  0.00    +0.020 A 
ATOM     17  C   LIG    1        3.711   4.125  10.852  0.00  0.00    -0.020 A 
ATOM     18  C   LIG    1        3.285   3.153   9.952  0.00  0.00    +0.100 A 
ATOM     19  N   LIG    1        2.640   1.945  10.097  0.00  0.00    -0.590 N 
ATOM     20  H   LIG    1        2.362   1.559  10.942  0.00  0.00    +0.410 HD
ENDBRANCH   9  11
BRANCH   1  21
ATOM     21  C   LIG    1       -1.557   3.006   6.656  0.00  0.00    +0.370 C 
BRANCH  21  27
ATOM     22  C   LIG    1       -4.010   2.661   2.440  0.00  0.00    +0.180 C 
ATOM     23  C   LIG    1       -4.031   2.760   3.944  0.00  0.00    +0.320 A 
ATOM     24  N   LIG    1       -5.190   2.776   4.569  0.00  0.00    -0.510 NA
ATOM     25  C   LIG    1       -5.247   2.857   5.889  0.00  0.00    +0.320 A 
ATOM     26  C   LIG    1       -4.067   2.936   6.611  0.00  0.00    -0.070 A 
ATOM     27  C   LIG    1       -2.867   2.922   5.917  0.00  0.00    +0.160 A 
ATOM     28  N   LIG    1       -2.889   2.834   4.597  0.00  0.00    -0.500 NA
ENDBRANCH  21  27
ENDBRANCH   1  21
TORSDOF 3
