REMARK  Name = ZINC5d0000002or5.0
REMARK                            x       y       z     vdW  Elec       q    Type
REMARK                         _______ _______ _______ _____ _____    ______ ____
ROOT
ATOM      1  C   LIG    1       -0.753   1.593  -1.232  0.00  0.00    +0.150 C 
ATOM      2  C   LIG    1        0.031   1.205  -2.487  0.00  0.00    +0.000 C 
ENDROOT
BRANCH   1   4
ATOM      3  C   LIG    1       -0.729   1.579   1.267  0.00  0.00    +0.010 C 
ATOM      4  C   LIG    1       -0.013   1.086   0.008  0.00  0.00    +0.020 C 
ENDBRANCH   1   4
BRANCH   1   5
ATOM      5  O   LIG    1       -2.054   1.005  -1.282  0.00  0.00    -0.570 OA
ATOM      6  H   LIG    1       -2.581   1.282  -2.044  0.00  0.00    +0.380 HD
ENDBRANCH   1   5
TORSDOF 2
