REMARK  Name = ZINCpk000000nr4c.0
REMARK                            x       y       z     vdW  Elec       q    Type
REMARK                         _______ _______ _______ _____ _____    ______ ____
ROOT
ATOM      1  C   LIG    1       -0.729   1.579   1.267  0.00  0.00    +0.170 C 
ENDROOT
BRANCH   1   4
ATOM      2  C   LIG    1        1.330   0.922   4.126  0.00  0.00    +0.200 A 
ATOM      3  N   LIG    1        0.999   1.710   3.131  0.00  0.00    -0.450 NA
ATOM      4  C   LIG    1        0.000   1.080   2.488  0.00  0.00    +0.170 A 
ATOM      5  N   LIG    1       -0.225  -0.035   3.115  0.00  0.00    -0.370 NA
ATOM      6  O   LIG    1        0.532  -0.148   4.056  0.00  0.00    +0.090 OA
BRANCH   2   7
ATOM      7  C   LIG    1        2.405   1.175   5.152  0.00  0.00    -0.040 C 
ATOM      8  C   LIG    1        2.384   2.600   5.736  0.00  0.00    +0.260 C 
ATOM      9  O   LIG    1        3.307   2.925   4.677  0.00  0.00    -0.360 OA
ATOM     10  C   LIG    1        3.765   1.565   4.544  0.00  0.00    +0.260 C 
BRANCH   7  12
ATOM     11  C   LIG    1        1.101  -0.198   6.782  0.00  0.00    +0.040 C 
ATOM     12  C   LIG    1        2.494   0.072   6.209  0.00  0.00    +0.010 C 
ATOM     13  C   LIG    1        3.038  -1.206   5.567  0.00  0.00    +0.040 C 
ENDBRANCH   7  12
ENDBRANCH   2   7
ENDBRANCH   1   4
BRANCH   1  14
ATOM     14  C   LIG    1       -0.013   1.086   0.008  0.00  0.00    +0.340 C 
BRANCH  14  15
ATOM     15  N   LIG    1       -0.721   1.571  -1.179  0.00  0.00    -0.580 N 
ATOM     16  C   LIG    1       -0.458   2.733  -1.790  0.00  0.00    +0.700 C 
ATOM     17  N   LIG    1       -1.253   2.943  -2.859  0.00  0.00    -0.720 N 
ATOM     18  H   LIG    1       -1.242   3.712  -3.450  0.00  0.00    +0.440 HD
ATOM     19  C   LIG    1       -2.134   1.777  -2.949  0.00  0.00    +0.120 C 
ATOM     20  C   LIG    1       -1.953   1.046  -4.285  0.00  0.00    +0.050 C 
ATOM     21  C   LIG    1       -3.374   0.529  -4.625  0.00  0.00    +0.040 C 
ATOM     22  C   LIG    1       -4.287   1.681  -4.136  0.00  0.00    +0.030 C 
ATOM     23  C   LIG    1       -3.607   2.180  -2.842  0.00  0.00    +0.050 C 
ATOM     24  O   LIG    1        0.400   3.511  -1.423  0.00  0.00    -0.530 OA
ATOM     25  C   LIG    1       -1.717   0.900  -1.796  0.00  0.00    +0.530 C 
ATOM     26  O   LIG    1       -2.179  -0.178  -1.487  0.00  0.00    -0.450 OA
ENDBRANCH  14  15
ENDBRANCH   1  14
TORSDOF 5
