REMARK  Name = ZINCkj00000GeR2E.1
REMARK                            x       y       z     vdW  Elec       q    Type
REMARK                         _______ _______ _______ _____ _____    ______ ____
ROOT
ATOM      1  N   LIG    1        1.451   5.316  -1.165  0.00  0.00    -0.380 N 
ATOM      2  C   LIG    1        2.894   5.408  -1.415  0.00  0.00    +0.240 C 
ATOM      3  C   LIG    1        3.338   6.870  -1.332  0.00  0.00    +0.070 C 
ATOM      4  C   LIG    1        2.583   7.688  -2.384  0.00  0.00    +0.060 C 
ATOM      5  C   LIG    1        1.077   7.525  -2.158  0.00  0.00    +0.090 C 
ATOM      6  C   LIG    1        0.718   6.038  -2.212  0.00  0.00    +0.280 C 
ATOM      7  H   LIG    1        1.240   5.724  -0.266  0.00  0.00    +0.430 HD
ENDROOT
BRANCH   5   8
ATOM      8  C   LIG    1        0.324   8.264  -3.234  0.00  0.00    +0.060 A 
ATOM      9  N   LIG    1       -0.817   8.887  -3.083  0.00  0.00    -0.280 NA
ATOM     10  N   LIG    1       -1.178   9.445  -4.316  0.00  0.00    -0.460 N 
ATOM     11  H   LIG    1       -1.977   9.964  -4.495  0.00  0.00    +0.450 HD
ATOM     12  C   LIG    1       -0.220   9.127  -5.212  0.00  0.00    +0.270 A 
ATOM     13  C   LIG    1        0.720   8.397  -4.569  0.00  0.00    -0.120 A 
ENDBRANCH   5   8
BRANCH   1  14
ATOM     14  C   LIG    1        1.043   3.905  -1.168  0.00  0.00    +0.270 C 
BRANCH  14  15
ATOM     15  C   LIG    1        1.708   3.179   0.003  0.00  0.00    +0.350 C 
BRANCH  15  18
ATOM     16  C   LIG    1        1.351  -0.423  -0.013  0.00  0.00    -0.160 A 
ATOM     17  C   LIG    1        2.132   0.714  -0.015  0.00  0.00    +0.330 A 
ATOM     18  N   LIG    1        1.302   1.772  -0.001  0.00  0.00    -0.380 N 
ATOM     19  N   LIG    1       -0.016   1.301   0.009  0.00  0.00    -0.290 NA
ATOM     20  C   LIG    1        0.002  -0.004   0.002  0.00  0.00    +0.330 A 
BRANCH  16  22
ATOM     21  N   LIG    1        2.192  -2.850  -0.033  0.00  0.00    -0.400 NA
ATOM     22  C   LIG    1        1.820  -1.776  -0.024  0.00  0.00    +0.270 C 
ENDBRANCH  16  22
ENDBRANCH  15  18
ENDBRANCH  14  15
ENDBRANCH   1  14
TORSDOF 5
