REMARK  Name = ZINCkj00000GeR2E.0
REMARK                            x       y       z     vdW  Elec       q    Type
REMARK                         _______ _______ _______ _____ _____    ______ ____
ROOT
ATOM      1  N   LIG    1        2.377   5.110   1.446  0.00  0.00    -0.380 N 
ATOM      2  C   LIG    1        3.635   5.249   0.702  0.00  0.00    +0.250 C 
ATOM      3  C   LIG    1        3.411   4.866  -0.762  0.00  0.00    +0.060 C 
ATOM      4  C   LIG    1        2.930   3.414  -0.836  0.00  0.00    +0.060 C 
ATOM      5  C   LIG    1        1.659   3.264   0.004  0.00  0.00    +0.090 C 
ATOM      6  C   LIG    1        1.947   3.707   1.440  0.00  0.00    +0.270 C 
ATOM      7  H   LIG    1        2.515   5.415   2.398  0.00  0.00    +0.430 HD
ENDROOT
BRANCH   5   8
ATOM      8  C   LIG    1        1.220   1.822   0.000  0.00  0.00    +0.060 A 
ATOM      9  N   LIG    1       -0.017   1.397   0.010  0.00  0.00    -0.280 NA
ATOM     10  N   LIG    1        0.002  -0.004   0.002  0.00  0.00    -0.460 N 
ATOM     11  H   LIG    1       -0.774  -0.585   0.007  0.00  0.00    +0.450 HD
ATOM     12  C   LIG    1        1.292  -0.402  -0.012  0.00  0.00    +0.270 A 
ATOM     13  C   LIG    1        2.066   0.708  -0.014  0.00  0.00    -0.120 A 
ENDBRANCH   5   8
BRANCH   1  14
ATOM     14  C   LIG    1        1.342   5.939   0.814  0.00  0.00    +0.250 C 
BRANCH  14  15
ATOM     15  C   LIG    1        1.725   7.415   0.937  0.00  0.00    +0.350 C 
BRANCH  15  18
ATOM     16  C   LIG    1       -0.854   9.762  -0.039  0.00  0.00    -0.160 A 
ATOM     17  C   LIG    1        0.020   9.245   0.896  0.00  0.00    +0.330 A 
ATOM     18  N   LIG    1        0.692   8.242   0.306  0.00  0.00    -0.380 N 
ATOM     19  N   LIG    1        0.235   8.116  -1.011  0.00  0.00    -0.290 NA
ATOM     20  C   LIG    1       -0.685   9.016  -1.226  0.00  0.00    +0.330 A 
BRANCH  16  22
ATOM     21  N   LIG    1       -2.488  11.711   0.317  0.00  0.00    -0.400 NA
ATOM     22  C   LIG    1       -1.765  10.849   0.159  0.00  0.00    +0.270 C 
ENDBRANCH  16  22
ENDBRANCH  15  18
ENDBRANCH  14  15
ENDBRANCH   1  14
TORSDOF 5
