REMARK  Name = ZINCtV00000oB0ay.0
REMARK                            x       y       z     vdW  Elec       q    Type
REMARK                         _______ _______ _______ _____ _____    ______ ____
ROOT
ATOM      1  S   LIG    1        1.124   6.198  -0.034  0.00  0.00    -0.560 S 
ATOM      2  C   LIG    1        2.532   5.229   0.077  0.00  0.00    +0.560 C 
ENDROOT
BRANCH   2   3
ATOM      3  N   LIG    1        3.736   5.808   0.250  0.00  0.00    -0.520 N 
ATOM      4  C   LIG    1        4.963   4.999   0.246  0.00  0.00    +0.270 C 
ATOM      5  C   LIG    1        5.936   5.593  -0.784  0.00  0.00    +0.030 C 
ATOM      6  C   LIG    1        6.161   7.074  -0.471  0.00  0.00    +0.000 C 
ATOM      7  C   LIG    1        4.832   7.827  -0.574  0.00  0.00    +0.030 C 
ATOM      8  C   LIG    1        3.847   7.259   0.453  0.00  0.00    +0.300 C 
BRANCH   6   9
ATOM      9  C   LIG    1        7.158   7.661  -1.471  0.00  0.00    +0.070 C 
BRANCH   9  10
ATOM     10  C   LIG    1        8.502   7.005  -1.286  0.00  0.00    -0.080 A 
ATOM     11  C   LIG    1        9.422   7.549  -0.409  0.00  0.00    +0.000 A 
ATOM     12  C   LIG    1       10.652   6.943  -0.236  0.00  0.00    +0.000 A 
ATOM     13  C   LIG    1       10.967   5.800  -0.946  0.00  0.00    +0.000 A 
ATOM     14  C   LIG    1       10.049   5.259  -1.826  0.00  0.00    +0.000 A 
ATOM     15  C   LIG    1        8.816   5.861  -1.996  0.00  0.00    +0.000 A 
ENDBRANCH   9  10
ENDBRANCH   6   9
ENDBRANCH   2   3
BRANCH   2  16
ATOM     16  N   LIG    1        2.435   3.888  -0.009  0.00  0.00    -0.700 N 
ATOM     17  H   LIG    1        2.150   3.371   0.761  0.00  0.00    +0.430 HD
BRANCH  16  18
ATOM     18  C   LIG    1        2.746   3.238  -1.211  0.00  0.00    +0.190 A 
ATOM     19  C   LIG    1        3.052   3.982  -2.343  0.00  0.00    -0.030 A 
ATOM     20  C   LIG    1        3.360   3.342  -3.527  0.00  0.00    +0.060 A 
ATOM     21  C   LIG    1        3.357   1.956  -3.588  0.00  0.00    +0.050 A 
ATOM     22  C   LIG    1        3.057   1.212  -2.455  0.00  0.00    +0.050 A 
ATOM     23  C   LIG    1        2.750   1.851  -1.271  0.00  0.00    -0.010 A 
BRANCH  21  24
ATOM     24  O   LIG    1        3.654   1.326  -4.755  0.00  0.00    -0.260 OA
BRANCH  24  25
ATOM     25  C   LIG    1        2.632   0.772  -5.459  0.00  0.00    +0.120 A 
ATOM     26  C   LIG    1        1.322   0.944  -5.035  0.00  0.00    -0.060 A 
ATOM     27  C   LIG    1        0.285   0.384  -5.754  0.00  0.00    +0.050 A 
ATOM     28  C   LIG    1        0.551  -0.356  -6.891  0.00  0.00    -0.020 A 
ATOM     29  C   LIG    1        1.856  -0.534  -7.314  0.00  0.00    +0.050 A 
ATOM     30  C   LIG    1        2.897   0.029  -6.601  0.00  0.00    -0.020 A 
ENDBRANCH  24  25
ENDBRANCH  21  24
ENDBRANCH  16  18
ENDBRANCH   2  16
TORSDOF 7
