REMARK  Name = ZINCrH000004uDUL.0
REMARK                            x       y       z     vdW  Elec       q    Type
REMARK                         _______ _______ _______ _____ _____    ______ ____
ROOT
ATOM      1  O   LIG    1        0.002  -0.004   0.002  0.00  0.00    -0.500 OA
ATOM      2  C   LIG    1       -0.014   1.209   0.009  0.00  0.00    +0.520 C 
ATOM      3  N   LIG    1       -1.191   1.867   0.018  0.00  0.00    -0.720 N 
ATOM      4  H   LIG    1       -1.204   2.837   0.023  0.00  0.00    +0.400 HD
ENDROOT
BRANCH   2   5
ATOM      5  C   LIG    1        1.280   1.980   0.001  0.00  0.00    +0.140 C 
ATOM      6  C   LIG    1        1.505   2.671  -1.366  0.00  0.00    +0.090 C 
ATOM      7  C   LIG    1        3.001   2.526  -1.567  0.00  0.00    +0.110 C 
ATOM      8  N   LIG    1        3.437   1.637  -0.738  0.00  0.00    -0.250 NA
ATOM      9  O   LIG    1        2.412   1.089   0.068  0.00  0.00    -0.160 OA
BRANCH   7  10
ATOM     10  C   LIG    1        3.819   3.273  -2.542  0.00  0.00    -0.050 A 
ATOM     11  C   LIG    1        3.221   4.212  -3.385  0.00  0.00    +0.050 A 
ATOM     12  C   LIG    1        3.993   4.907  -4.296  0.00  0.00    +0.090 A 
ATOM     13  C   LIG    1        5.357   4.675  -4.374  0.00  0.00    +0.050 A 
ATOM     14  C   LIG    1        5.955   3.746  -3.542  0.00  0.00    +0.040 A 
ATOM     15  F   LIG    1        3.417   5.816  -5.112  0.00  0.00    -0.130 F 
ATOM     16  C   LIG    1        5.197   3.047  -2.622  0.00  0.00    +0.130 A 
ATOM     17  F   LIG    1        5.784   2.145  -1.806  0.00  0.00    -0.110 F 
ENDBRANCH   7  10
ENDBRANCH   2   5
BRANCH   3  18
ATOM     18  C   LIG    1       -2.449   1.117   0.020  0.00  0.00    +0.330 C 
BRANCH  18  19
ATOM     19  C   LIG    1       -3.608   2.080   0.030  0.00  0.00    -0.110 A 
ATOM     20  C   LIG    1       -4.145   2.529  -1.161  0.00  0.00    +0.070 A 
ATOM     21  C   LIG    1       -5.208   3.413  -1.152  0.00  0.00    +0.020 A 
ATOM     22  C   LIG    1       -5.734   3.848   0.050  0.00  0.00    +0.080 A 
ATOM     23  C   LIG    1       -5.197   3.399   1.243  0.00  0.00    -0.180 A 
ATOM     24  C   LIG    1       -4.137   2.512   1.233  0.00  0.00    +0.090 A 
BRANCH  23  25
ATOM     25  C   LIG    1       -5.771   3.873   2.553  0.00  0.00    +0.510 C 
ATOM     26  F   LIG    1       -4.777   4.532   3.286  0.00  0.00    -0.180 F 
ATOM     27  F   LIG    1       -6.237   2.774   3.282  0.00  0.00    -0.170 F 
ATOM     28  F   LIG    1       -6.830   4.753   2.307  0.00  0.00    -0.180 F 
ENDBRANCH  23  25
ENDBRANCH  18  19
ENDBRANCH   3  18
TORSDOF 5
