REMARK  Name = ZINCrD000000AocT.0
REMARK                            x       y       z     vdW  Elec       q    Type
REMARK                         _______ _______ _______ _____ _____    ______ ____
ROOT
ATOM      1  N   LIG    1       -0.020   1.462  -0.016  0.00  0.00    -0.720 N 
ATOM      2  H   LIG    1       -0.866   1.935  -0.005  0.00  0.00    +0.410 HD
ATOM      3  C   LIG    1        1.138   2.152  -0.034  0.00  0.00    +0.570 C 
ATOM      4  O   LIG    1        2.199   1.559  -0.053  0.00  0.00    -0.530 OA
ENDROOT
BRANCH   3   5
ATOM      5  C   LIG    1        1.117   3.628  -0.032  0.00  0.00    -0.160 A 
ATOM      6  C   LIG    1       -0.102   4.311  -0.017  0.00  0.00    +0.100 A 
ATOM      7  C   LIG    1       -0.117   5.688  -0.010  0.00  0.00    -0.060 A 
ATOM      8  C   LIG    1        1.078   6.398  -0.029  0.00  0.00    +0.140 A 
ATOM      9  C   LIG    1        2.292   5.722  -0.050  0.00  0.00    +0.020 A 
ATOM     10  C   LIG    1        2.316   4.345  -0.051  0.00  0.00    +0.130 A 
BRANCH   8  11
ATOM     11  O   LIG    1        1.059   7.755  -0.028  0.00  0.00    -0.310 OA
BRANCH  11  12
ATOM     12  C   LIG    1       -0.223   8.386  -0.006  0.00  0.00    +0.600 C 
ATOM     13  F   LIG    1       -0.952   8.001  -1.137  0.00  0.00    -0.160 F 
ATOM     14  F   LIG    1       -0.059   9.775  -0.008  0.00  0.00    -0.130 F 
ATOM     15  F   LIG    1       -0.913   7.999   1.148  0.00  0.00    -0.160 F 
ENDBRANCH  11  12
ENDBRANCH   8  11
ENDBRANCH   3   5
BRANCH   1  16
ATOM     16  C   LIG    1        0.001  -0.003  -0.018  0.00  0.00    +0.320 C 
BRANCH  16  18
ATOM     17  O   LIG    1       -2.345   0.250   0.022  0.00  0.00    -0.510 OA
ATOM     18  C   LIG    1       -1.412  -0.526   0.005  0.00  0.00    +0.520 C 
ATOM     19  N   LIG    1       -1.640  -1.854   0.008  0.00  0.00    -0.660 N 
ATOM     20  H   LIG    1       -0.898  -2.473  -0.071  0.00  0.00    +0.420 HD
BRANCH  19  21
ATOM     21  C   LIG    1       -2.949  -2.340   0.123  0.00  0.00    +0.130 A 
ATOM     22  C   LIG    1       -4.002  -1.645  -0.454  0.00  0.00    +0.100 A 
ATOM     23  C   LIG    1       -5.293  -2.125  -0.339  0.00  0.00    +0.050 A 
ATOM     24  C   LIG    1       -5.538  -3.300   0.350  0.00  0.00    +0.090 A 
ATOM     25  C   LIG    1       -4.489  -3.998   0.929  0.00  0.00    +0.050 A 
ATOM     26  F   LIG    1       -4.730  -5.145   1.602  0.00  0.00    -0.110 F 
ATOM     27  F   LIG    1       -6.801  -3.767   0.460  0.00  0.00    -0.120 F 
ATOM     28  C   LIG    1       -3.194  -3.523   0.812  0.00  0.00    +0.070 A 
ATOM     29  F   LIG    1       -2.170  -4.206   1.370  0.00  0.00    -0.110 F 
ENDBRANCH  19  21
ENDBRANCH  16  18
ENDBRANCH   1  16
TORSDOF 6
