REMARK  Name = ZINCnE000001GJzo.0
REMARK                            x       y       z     vdW  Elec       q    Type
REMARK                         _______ _______ _______ _____ _____    ______ ____
ROOT
ATOM      1  C   LIG    1        2.543  -2.639  -0.037  0.00  0.00    +0.500 C 
ATOM      2  O   LIG    1        2.608  -3.855  -0.044  0.00  0.00    -0.620 OA
ENDROOT
BRANCH   1   3
ATOM      3  N   LIG    1        3.663  -1.910  -0.044  0.00  0.00    -0.650 NA
ATOM      4  C   LIG    1        4.850  -2.513  -0.059  0.00  0.00    +0.390 A 
ATOM      5  N   LIG    1        5.075  -3.868  -0.069  0.00  0.00    -0.480 N 
ATOM      6  H   LIG    1        4.398  -4.563  -0.066  0.00  0.00    +0.440 HD
ATOM      7  N   LIG    1        6.463  -4.060  -0.084  0.00  0.00    -0.340 NA
ATOM      8  C   LIG    1        7.064  -2.836  -0.083  0.00  0.00    -0.020 A 
ATOM      9  C   LIG    1        6.110  -1.879  -0.074  0.00  0.00    -0.260 A 
ATOM     10  C   LIG    1        6.351  -0.392  -0.076  0.00  0.00    +0.100 C 
BRANCH   8  11
ATOM     11  C   LIG    1        8.551  -2.590  -0.097  0.00  0.00    +0.550 C 
ATOM     12  F   LIG    1        9.107  -3.159  -1.248  0.00  0.00    -0.180 F 
ATOM     13  F   LIG    1        9.130  -3.171   1.036  0.00  0.00    -0.180 F 
ATOM     14  F   LIG    1        8.796  -1.213  -0.092  0.00  0.00    -0.170 F 
ENDBRANCH   8  11
ENDBRANCH   1   3
BRANCH   1  19
ATOM     15  C   LIG    1        0.002  -0.004   0.002  0.00  0.00    +0.310 A 
ATOM     16  C   LIG    1       -1.199  -0.708   0.015  0.00  0.00    -0.030 A 
ATOM     17  C   LIG    1       -1.173  -2.091   0.002  0.00  0.00    +0.100 A 
ATOM     18  C   LIG    1        0.058  -2.732  -0.013  0.00  0.00    -0.100 A 
ATOM     19  C   LIG    1        1.222  -1.967  -0.020  0.00  0.00    +0.190 A 
ATOM     20 CL   LIG    1        0.147  -4.466  -0.023  0.00  0.00    -0.030 Cl
ATOM     21  N   LIG    1        1.158  -0.640  -0.012  0.00  0.00    -0.470 NA
BRANCH  15  22
ATOM     22  O   LIG    1       -0.016   1.353   0.009  0.00  0.00    -0.310 OA
BRANCH  22  24
ATOM     23  C   LIG    1        1.027   3.533   0.011  0.00  0.00    +0.050 C 
ATOM     24  C   LIG    1        1.248   2.019   0.001  0.00  0.00    +0.200 C 
ENDBRANCH  22  24
ENDBRANCH  15  22
ENDBRANCH   1  19
TORSDOF 5
