REMARK  Name = ZINCfA000001cW1d.0
REMARK                            x       y       z     vdW  Elec       q    Type
REMARK                         _______ _______ _______ _____ _____    ______ ____
ROOT
ATOM      1  C   LIG    1       -3.484   3.961   3.876  0.00  0.00    +0.240 C 
ENDROOT
BRANCH   1   2
ATOM      2  C   LIG    1       -3.026   4.601   5.160  0.00  0.00    -0.200 A 
ATOM      3  C   LIG    1       -3.115   5.974   5.331  0.00  0.00    +0.110 A 
ATOM      4  C   LIG    1       -2.682   6.520   6.530  0.00  0.00    -0.010 A 
ATOM      5  C   LIG    1       -2.180   5.683   7.508  0.00  0.00    +0.300 A 
ATOM      6  N   LIG    1       -2.109   4.381   7.311  0.00  0.00    -0.470 NA
ATOM      7  C   LIG    1       -2.517   3.827   6.186  0.00  0.00    +0.260 A 
ENDBRANCH   1   2
BRANCH   1   8
ATOM      8  N   LIG    1       -4.182   2.704   4.177  0.00  0.00    -0.640 N 
ATOM      9  H   LIG    1       -4.489   2.275   3.317  0.00  0.00    +0.440 HD
ATOM     10  H   LIG    1       -4.982   2.895   4.761  0.00  0.00    +0.440 HD
ATOM     11  H   LIG    1       -3.555   2.078   4.660  0.00  0.00    +0.430 HD
ENDBRANCH   1   8
BRANCH   1  12
ATOM     12  C   LIG    1       -2.271   3.670   2.990  0.00  0.00    +0.060 C 
BRANCH  12  13
ATOM     13  C   LIG    1       -2.744   3.135   1.636  0.00  0.00    +0.010 C 
BRANCH  13  14
ATOM     14  C   LIG    1       -1.531   2.845   0.750  0.00  0.00    -0.020 C 
ATOM     15  C   LIG    1       -0.763   1.597   1.255  0.00  0.00    +0.010 C 
ATOM     16  C   LIG    1       -0.013   1.086   0.008  0.00  0.00    +0.010 C 
ATOM     17  C   LIG    1       -0.784   1.609  -1.216  0.00  0.00    +0.010 C 
ATOM     18  C   LIG    1       -1.978   2.421  -0.670  0.00  0.00    +0.020 C 
ENDBRANCH  13  14
ENDBRANCH  12  13
ENDBRANCH   1  12
TORSDOF 5
