REMARK  Name = ZINCvU00000007qq.0
REMARK                            x       y       z     vdW  Elec       q    Type
REMARK                         _______ _______ _______ _____ _____    ______ ____
ROOT
ATOM      1  C   LIG    1        3.781   2.181   0.828  0.00  0.00    +0.510 C 
ATOM      2  N   LIG    1        3.163   3.275   0.340  0.00  0.00    -0.610 N 
ATOM      3  C   LIG    1        3.844   4.577   0.328  0.00  0.00    +0.270 C 
ATOM      4  C   LIG    1        3.804   5.141  -1.096  0.00  0.00    +0.010 C 
ATOM      5  C   LIG    1        2.354   5.186  -1.582  0.00  0.00    +0.010 C 
ATOM      6  C   LIG    1        1.779   3.768  -1.608  0.00  0.00    +0.050 C 
ATOM      7  C   LIG    1        1.796   3.188  -0.190  0.00  0.00    +0.310 C 
ATOM      8  O   LIG    1        3.241   1.098   0.758  0.00  0.00    -0.500 OA
ENDROOT
BRANCH   7   9
ATOM      9  C   LIG    1        1.359   1.746  -0.229  0.00  0.00    +0.240 A 
ATOM     10  N   LIG    1        1.804   0.843  -1.057  0.00  0.00    -0.450 NA
ATOM     11  C   LIG    1        1.193  -0.332  -0.801  0.00  0.00    +0.050 A 
ATOM     12  C   LIG    1        0.334  -0.134   0.233  0.00  0.00    +0.140 A 
ATOM     13  N   LIG    1        0.445   1.181   0.589  0.00  0.00    -0.560 N 
ATOM     14  H   LIG    1       -0.046   1.627   1.297  0.00  0.00    +0.420 HD
BRANCH  11  15
ATOM     15  C   LIG    1        1.417  -1.610  -1.521  0.00  0.00    +0.040 A 
ATOM     16  C   LIG    1        2.251  -1.647  -2.636  0.00  0.00    +0.020 A 
ATOM     17  C   LIG    1        2.457  -2.838  -3.303  0.00  0.00    +0.040 A 
ATOM     18  C   LIG    1        1.837  -3.994  -2.866  0.00  0.00    -0.030 A 
ATOM     19  C   LIG    1        1.005  -3.964  -1.758  0.00  0.00    +0.100 A 
ATOM     20  F   LIG    1        0.402  -5.097  -1.336  0.00  0.00    -0.140 F 
ATOM     21  C   LIG    1        0.798  -2.778  -1.080  0.00  0.00    -0.020 A 
ENDBRANCH  11  15
ENDBRANCH   7   9
BRANCH   1  22
ATOM     22  C   LIG    1        5.144   2.305   1.460  0.00  0.00    +0.050 C 
BRANCH  22  23
ATOM     23  C   LIG    1        5.578   0.943   2.005  0.00  0.00    +0.050 C 
ATOM     24  C   LIG    1        5.801  -0.025   0.841  0.00  0.00    +0.030 C 
BRANCH  23  28
ATOM     25  C   LIG    1        9.215   1.383   4.205  0.00  0.00    +0.120 A 
ATOM     26  C   LIG    1        8.078   0.896   4.832  0.00  0.00    -0.020 A 
ATOM     27  C   LIG    1        6.904   0.754   4.119  0.00  0.00    +0.050 A 
ATOM     28  C   LIG    1        6.861   1.098   2.781  0.00  0.00    -0.110 A 
ATOM     29  C   LIG    1        7.994   1.579   2.151  0.00  0.00    +0.050 A 
ATOM     30  C   LIG    1        9.170   1.728   2.862  0.00  0.00    -0.080 A 
BRANCH  25  32
ATOM     31  C   LIG    1       11.503   2.032   4.194  0.00  0.00    +0.250 C 
ATOM     32  O   LIG    1       10.372   1.524   4.905  0.00  0.00    -0.320 OA
ENDBRANCH  25  32
ENDBRANCH  23  28
ENDBRANCH  22  23
ENDBRANCH   1  22
TORSDOF 6
