REMARK  Name = ZINCpe00000MJIte.0
REMARK                            x       y       z     vdW  Elec       q    Type
REMARK                         _______ _______ _______ _____ _____    ______ ____
ROOT
ATOM      1  C   LIG    1        5.781   1.871   2.037  0.00  0.00    +0.080 C 
ATOM      2  C   LIG    1        6.489   2.579   3.211  0.00  0.00    +0.040 C 
ATOM      3  C   LIG    1        5.445   2.487   4.355  0.00  0.00    +0.030 C 
ATOM      4  C   LIG    1        4.114   2.641   3.578  0.00  0.00    +0.190 C 
ATOM      5  N   LIG    1        4.332   1.917   2.307  0.00  0.00    -0.500 NA
ENDROOT
BRANCH   1   9
ATOM      6  C   LIG    1        6.122  -1.892   2.655  0.00  0.00    +0.280 C 
ATOM      7  N   LIG    1        5.676  -0.499   2.738  0.00  0.00    -0.720 N 
ATOM      8  H   LIG    1        4.973  -0.252   3.359  0.00  0.00    +0.410 HD
ATOM      9  C   LIG    1        6.241   0.438   1.951  0.00  0.00    +0.530 C 
ATOM     10  O   LIG    1        7.119   0.128   1.174  0.00  0.00    -0.520 OA
ENDBRANCH   1   9
BRANCH   1  11
ATOM     11  C   LIG    1        6.089   2.595   0.725  0.00  0.00    +0.190 C 
BRANCH  11  12
ATOM     12  O   LIG    1        7.504   2.662   0.539  0.00  0.00    -0.370 OA
ATOM     13  C   LIG    1        7.902   3.323  -0.664  0.00  0.00    +0.200 C 
ENDBRANCH  11  12
ENDBRANCH   1  11
BRANCH   5  14
ATOM     14  C   LIG    1        3.611   2.563   1.203  0.00  0.00    +0.210 C 
BRANCH  14  15
ATOM     15  C   LIG    1        2.127   2.392   1.403  0.00  0.00    +0.520 C 
ATOM     16  N   LIG    1        1.262   2.907   0.507  0.00  0.00    -0.610 N 
ATOM     17  C   LIG    1        1.764   3.633  -0.662  0.00  0.00    +0.300 C 
ATOM     18  O   LIG    1        1.712   1.791   2.372  0.00  0.00    -0.500 OA
BRANCH  16  19
ATOM     19  C   LIG    1       -0.180   2.740   0.703  0.00  0.00    +0.280 C 
ATOM     20  C   LIG    1       -0.593   3.384   2.027  0.00  0.00    +0.050 C 
ATOM     21  C   LIG    1       -2.100   3.211   2.231  0.00  0.00    +0.020 C 
ATOM     22  C   LIG    1       -2.851   3.883   1.081  0.00  0.00    +0.020 C 
ATOM     23  C   LIG    1       -2.438   3.239  -0.244  0.00  0.00    +0.020 C 
ATOM     24  C   LIG    1       -0.932   3.413  -0.448  0.00  0.00    +0.050 C 
BRANCH  19  25
ATOM     25  C   LIG    1       -0.509   1.306   0.731  0.00  0.00    +0.200 C 
ATOM     26  N   LIG    1       -0.763   0.199   0.753  0.00  0.00    -0.410 NA
ENDBRANCH  19  25
ENDBRANCH  16  19
ENDBRANCH  14  15
ENDBRANCH   5  14
TORSDOF 7
