REMARK  Name = ZINCrH000004sWSI.0
REMARK                            x       y       z     vdW  Elec       q    Type
REMARK                         _______ _______ _______ _____ _____    ______ ____
ROOT
ATOM      1  C   LIG    1        1.186   3.573   0.010  0.00  0.00    +0.570 C 
ATOM      2  N   LIG    1        2.348   4.247  -0.100  0.00  0.00    -0.550 N 
ATOM      3  C   LIG    1        2.476   5.709  -0.111  0.00  0.00    +0.300 C 
ATOM      4  C   LIG    1        3.977   5.972  -0.247  0.00  0.00    -0.020 C 
ATOM      5  C   LIG    1        4.614   4.610  -0.318  0.00  0.00    -0.160 A 
ATOM      6  C   LIG    1        5.936   4.222  -0.448  0.00  0.00    +0.140 A 
ATOM      7  C   LIG    1        6.266   2.878  -0.486  0.00  0.00    -0.030 A 
ATOM      8  C   LIG    1        5.271   1.923  -0.394  0.00  0.00    +0.080 A 
ATOM      9  C   LIG    1        3.953   2.304  -0.265  0.00  0.00    +0.010 A 
ATOM     10  F   LIG    1        6.907   5.157  -0.538  0.00  0.00    -0.130 F 
ATOM     11  C   LIG    1        4.272   6.785  -1.516  0.00  0.00    +0.040 C 
ATOM     12  C   LIG    1        4.410   8.242  -1.004  0.00  0.00    +0.020 C 
ATOM     13  C   LIG    1        5.128   8.062   0.358  0.00  0.00    +0.020 C 
ATOM     14  C   LIG    1        4.511   6.773   0.944  0.00  0.00    +0.030 C 
ATOM     15  C   LIG    1        3.610   3.656  -0.225  0.00  0.00    +0.180 A 
ATOM     16  O   LIG    1        1.193   2.361   0.105  0.00  0.00    -0.490 OA
ENDROOT
BRANCH   1  22
ATOM     17  C   LIG    1       -4.967   3.634  -0.095  0.00  0.00    +0.360 C 
ATOM     18  N   LIG    1       -3.528   3.361  -0.080  0.00  0.00    -0.550 N 
ATOM     19  C   LIG    1       -2.946   2.146  -0.114  0.00  0.00    +0.630 A 
ATOM     20  O   LIG    1       -1.611   2.290  -0.091  0.00  0.00    -0.210 OA
ATOM     21  C   LIG    1       -1.306   3.607  -0.033  0.00  0.00    +0.100 A 
ATOM     22  C   LIG    1       -0.094   4.306   0.013  0.00  0.00    -0.100 A 
ATOM     23  C   LIG    1       -0.105   5.702   0.062  0.00  0.00    +0.060 A 
ATOM     24  C   LIG    1       -1.303   6.386   0.066  0.00  0.00    +0.050 A 
ATOM     25  C   LIG    1       -2.502   5.697   0.021  0.00  0.00    +0.070 A 
ATOM     26  O   LIG    1       -3.537   1.085  -0.161  0.00  0.00    -0.470 OA
ATOM     27  C   LIG    1       -2.509   4.313  -0.028  0.00  0.00    +0.060 A 
ENDBRANCH   1  22
TORSDOF 1
