REMARK  Name = ZINCtV000002MmXi.0
REMARK                            x       y       z     vdW  Elec       q    Type
REMARK                         _______ _______ _______ _____ _____    ______ ____
ROOT
ATOM      1  C   LIG    1       -1.249  -0.678   0.011  0.00  0.00    +0.200 A 
ATOM      2  C   LIG    1        0.002  -0.004   0.002  0.00  0.00    -0.160 A 
ATOM      3  C   LIG    1        1.350  -0.531  -0.014  0.00  0.00    +0.070 A 
ATOM      4  C   LIG    1        2.308   0.396  -0.018  0.00  0.00    -0.120 A 
ATOM      5  S   LIG    1        1.629   2.012  -0.003  0.00  0.00    +0.200 S 
ATOM      6  C   LIG    1       -0.017   1.395   0.010  0.00  0.00    +0.100 A 
ATOM      7  N   LIG    1       -1.196   2.029   0.029  0.00  0.00    -0.490 NA
ATOM      8  C   LIG    1       -2.326   1.360   0.032  0.00  0.00    +0.540 A 
ATOM      9  N   LIG    1       -2.363   0.040   0.026  0.00  0.00    -0.530 NA
ENDROOT
BRANCH   4  10
ATOM     10  C   LIG    1        3.756   0.099  -0.034  0.00  0.00    -0.030 A 
ATOM     11  C   LIG    1        4.201  -1.224  -0.040  0.00  0.00    +0.030 A 
ATOM     12  C   LIG    1        5.553  -1.494  -0.061  0.00  0.00    +0.020 A 
ATOM     13  C   LIG    1        6.469  -0.457  -0.065  0.00  0.00    +0.020 A 
ATOM     14  C   LIG    1        6.035   0.857  -0.052  0.00  0.00    +0.020 A 
ATOM     15  C   LIG    1        4.685   1.141  -0.037  0.00  0.00    +0.010 A 
ENDBRANCH   4  10
BRANCH   1  16
ATOM     16  S   LIG    1       -1.318  -2.438   0.003  0.00  0.00    +0.040 S 
BRANCH  16  17
ATOM     17  C   LIG    1       -3.111  -2.683   0.019  0.00  0.00    +0.090 C 
BRANCH  17  19
ATOM     18  O   LIG    1       -2.512  -4.965   0.001  0.00  0.00    -0.440 OA
ATOM     19  C   LIG    1       -3.417  -4.158   0.014  0.00  0.00    +0.410 C 
BRANCH  19  20
ATOM     20  C   LIG    1       -4.813  -4.620   0.025  0.00  0.00    -0.170 A 
ATOM     21  C   LIG    1       -5.090  -5.980   0.015  0.00  0.00    +0.120 A 
ATOM     22  C   LIG    1       -6.424  -6.412   0.031  0.00  0.00    -0.070 A 
ATOM     23  C   LIG    1       -6.745  -7.781   0.026  0.00  0.00    +0.040 A 
ATOM     24  C   LIG    1       -8.050  -8.168   0.035  0.00  0.00    +0.010 A 
ATOM     25  C   LIG    1       -9.076  -7.226   0.050  0.00  0.00    +0.030 A 
ATOM     26  C   LIG    1       -8.803  -5.891   0.055  0.00  0.00    +0.010 A 
ATOM     27  C   LIG    1       -7.470  -5.453   0.046  0.00  0.00    -0.030 A 
ATOM     28  C   LIG    1       -7.157  -4.080   0.050  0.00  0.00    +0.030 A 
ATOM     29  C   LIG    1       -5.862  -3.678   0.040  0.00  0.00    +0.050 A 
ENDBRANCH  19  20
ENDBRANCH  17  19
ENDBRANCH  16  17
ENDBRANCH   1  16
TORSDOF 5
