REMARK  Name = ZINCrD00000hQ5Q4.0
REMARK                            x       y       z     vdW  Elec       q    Type
REMARK                         _______ _______ _______ _____ _____    ______ ____
ROOT
ATOM      1  N   LIG    1        0.021  -0.501   1.384  0.00  0.00    -0.540 NA
ATOM      2  C   LIG    1        1.255  -0.086   2.078  0.00  0.00    +0.280 C 
ATOM      3  C   LIG    1        0.934  -0.033   3.562  0.00  0.00    -0.230 A 
ATOM      4  C   LIG    1        0.596  -1.105   4.306  0.00  0.00    +0.130 A 
ATOM      5  N   LIG    1        0.384  -0.685   5.572  0.00  0.00    -0.320 N 
ATOM      6  N   LIG    1        0.602   0.702   5.598  0.00  0.00    -0.290 NA
ATOM      7  C   LIG    1        0.487  -2.520   3.764  0.00  0.00    +0.120 C 
ATOM      8  C   LIG    1       -0.657  -2.515   2.736  0.00  0.00    -0.040 C 
ATOM      9  C   LIG    1       -1.135  -3.950   2.508  0.00  0.00    +0.030 C 
ATOM     10  C   LIG    1       -1.818  -1.679   3.278  0.00  0.00    +0.040 C 
ATOM     11  C   LIG    1        0.932   1.089   4.389  0.00  0.00    +0.270 A 
ATOM     12  C   LIG    1       -0.193  -1.931   1.424  0.00  0.00    +0.170 C 
ENDROOT
BRANCH   5  13
ATOM     13  C   LIG    1        0.014  -1.484   6.659  0.00  0.00    +0.370 A 
ATOM     14  C   LIG    1        0.323  -1.077   7.950  0.00  0.00    -0.010 A 
ATOM     15  C   LIG    1       -0.048  -1.877   9.016  0.00  0.00    +0.090 A 
ATOM     16  C   LIG    1       -0.719  -3.063   8.752  0.00  0.00    -0.040 A 
ATOM     17  C   LIG    1       -0.994  -3.406   7.442  0.00  0.00    +0.300 A 
ATOM     18  N   LIG    1       -0.632  -2.620   6.447  0.00  0.00    -0.500 NA
ENDBRANCH   5  13
BRANCH   1  19
ATOM     19  C   LIG    1        0.002  -0.004   0.002  0.00  0.00    +0.310 C 
BRANCH  19  23
ATOM     20  C   LIG    1       -0.452   3.925   0.026  0.00  0.00    -0.260 A 
ATOM     21  C   LIG    1        0.833   3.559   0.013  0.00  0.00    +0.220 A 
ATOM     22  N   LIG    1        1.030   2.256   0.004  0.00  0.00    -0.470 NA
ATOM     23  C   LIG    1       -0.018   1.503   0.010  0.00  0.00    +0.050 A 
ATOM     24  S   LIG    1       -1.433   2.462   0.021  0.00  0.00    +0.170 S 
BRANCH  20  26
ATOM     25  C   LIG    1       -1.040   5.870  -1.396  0.00  0.00    +0.020 C 
ATOM     26  C   LIG    1       -0.970   5.341   0.038  0.00  0.00    +0.290 C 
BRANCH  26  27
ATOM     27  O   LIG    1       -0.090   6.163   0.807  0.00  0.00    -0.550 OA
ATOM     28  H   LIG    1        0.815   6.194   0.470  0.00  0.00    +0.380 HD
ENDBRANCH  26  27
ENDBRANCH  20  26
ENDBRANCH  19  23
ENDBRANCH   1  19
TORSDOF 5
