REMARK  Name = ZINCnE000001LjXa.0
REMARK                            x       y       z     vdW  Elec       q    Type
REMARK                         _______ _______ _______ _____ _____    ______ ____
ROOT
ATOM      1  C   LIG    1        1.178   2.177   0.086  0.00  0.00    +0.310 C 
ENDROOT
BRANCH   1   5
ATOM      2  C   LIG    1        0.255   6.251  -0.813  0.00  0.00    +0.110 A 
ATOM      3  C   LIG    1        1.441   5.691  -1.266  0.00  0.00    -0.020 A 
ATOM      4  C   LIG    1        1.737   4.374  -0.974  0.00  0.00    +0.060 A 
ATOM      5  C   LIG    1        0.853   3.614  -0.231  0.00  0.00    -0.110 A 
ATOM      6  C   LIG    1       -0.333   4.168   0.217  0.00  0.00    +0.050 A 
ATOM      7  C   LIG    1       -0.631   5.486  -0.068  0.00  0.00    -0.090 A 
BRANCH   2   9
ATOM      8  C   LIG    1       -1.277   8.057  -0.600  0.00  0.00    +0.230 C 
ATOM      9  O   LIG    1       -0.038   7.547  -1.098  0.00  0.00    -0.320 OA
ENDBRANCH   2   9
ENDBRANCH   1   5
BRANCH   1  10
ATOM     10  N   LIG    1       -0.035   1.364  -0.030  0.00  0.00    -0.690 N 
ATOM     11  H   LIG    1       -0.581   1.193   0.754  0.00  0.00    +0.390 HD
ATOM     12  C   LIG    1       -0.397   0.860  -1.226  0.00  0.00    +0.550 C 
ATOM     13  O   LIG    1        0.232   1.153  -2.225  0.00  0.00    -0.510 OA
BRANCH  12  14
ATOM     14  C   LIG    1       -1.557  -0.051  -1.324  0.00  0.00    -0.100 A 
ATOM     15  C   LIG    1       -2.280  -0.390  -0.180  0.00  0.00    +0.050 A 
ATOM     16  C   LIG    1       -3.362  -1.241  -0.279  0.00  0.00    +0.010 A 
ATOM     17  C   LIG    1       -3.731  -1.757  -1.508  0.00  0.00    +0.030 A 
ATOM     18  C   LIG    1       -3.019  -1.426  -2.647  0.00  0.00    +0.040 A 
ATOM     19  C   LIG    1       -1.938  -0.571  -2.564  0.00  0.00    -0.050 A 
ATOM     20 BR   LIG    1       -0.970  -0.112  -4.122  0.00  0.00    -0.010 Br
ENDBRANCH  12  14
ENDBRANCH   1  10
BRANCH   1  21
ATOM     21  C   LIG    1        1.722   2.080   1.513  0.00  0.00    -0.060 C 
BRANCH  21  22
ATOM     22  C   LIG    1        2.176   0.668   1.782  0.00  0.00    +0.490 C 
ATOM     23  O   LIG    1        2.720   0.394   2.839  0.00  0.00    -0.700 OA
ATOM     24  O   LIG    1        1.999  -0.199   0.945  0.00  0.00    -0.680 OA
ENDBRANCH  21  22
ENDBRANCH   1  21
TORSDOF 6
