REMARK  Name = ZINCvU0000000Gve.0
REMARK                            x       y       z     vdW  Elec       q    Type
REMARK                         _______ _______ _______ _____ _____    ______ ____
ROOT
ATOM      1  C   LIG    1        2.847   5.008  -0.489  0.00  0.00    +0.540 C 
ATOM      2  N   LIG    1        2.657   3.675  -0.419  0.00  0.00    -0.660 N 
ATOM      3  H   LIG    1        3.405   3.071  -0.551  0.00  0.00    +0.420 HD
ATOM      4  O   LIG    1        1.930   5.764  -0.250  0.00  0.00    -0.500 OA
ENDROOT
BRANCH   2   5
ATOM      5  C   LIG    1        1.380   3.162  -0.157  0.00  0.00    +0.200 A 
ATOM      6  C   LIG    1        0.461   3.917   0.555  0.00  0.00    +0.020 A 
ATOM      7  C   LIG    1       -0.799   3.409   0.813  0.00  0.00    +0.060 A 
ATOM      8  C   LIG    1       -1.149   2.151   0.358  0.00  0.00    -0.010 A 
ATOM      9  C   LIG    1       -0.237   1.388  -0.348  0.00  0.00    +0.100 A 
ATOM     10  C   LIG    1        1.030   1.890  -0.611  0.00  0.00    -0.180 A 
BRANCH  10  11
ATOM     11  S   LIG    1        2.192   0.924  -1.516  0.00  0.00    +0.010 S 
BRANCH  11  12
ATOM     12  C   LIG    1        2.180   1.678  -3.109  0.00  0.00    -0.100 A 
ATOM     13  C   LIG    1        1.274   2.693  -3.392  0.00  0.00    +0.020 A 
ATOM     14  C   LIG    1        1.271   3.286  -4.639  0.00  0.00    +0.050 A 
ATOM     15  C   LIG    1        2.162   2.863  -5.610  0.00  0.00    -0.040 A 
ATOM     16  C   LIG    1        3.062   1.849  -5.333  0.00  0.00    +0.050 A 
ATOM     17 CL   LIG    1        2.150   3.606  -7.179  0.00  0.00    -0.060 Cl
ATOM     18  C   LIG    1        3.073   1.256  -4.086  0.00  0.00    +0.050 A 
ENDBRANCH  11  12
ENDBRANCH  10  11
ENDBRANCH   2   5
BRANCH   1  19
ATOM     19  C   LIG    1        4.199   5.557  -0.864  0.00  0.00    +0.100 C 
BRANCH  19  20
ATOM     20  S   LIG    1        4.134   7.366  -0.871  0.00  0.00    +0.120 S 
BRANCH  20  22
ATOM     21  N   LIG    1        6.336   8.973  -1.498  0.00  0.00    -0.300 N 
ATOM     22  C   LIG    1        5.796   7.730  -1.328  0.00  0.00    +0.170 A 
ATOM     23  N   LIG    1        6.747   6.856  -1.575  0.00  0.00    -0.290 NA
ATOM     24  N   LIG    1        7.837   7.464  -1.880  0.00  0.00    -0.250 NA
ATOM     25  C   LIG    1        7.651   8.763  -1.846  0.00  0.00    +0.200 A 
BRANCH  25  26
ATOM     26  C   LIG    1        8.661   9.803  -2.135  0.00  0.00    -0.020 A 
ATOM     27  C   LIG    1        8.424  11.130  -1.770  0.00  0.00    -0.010 A 
ATOM     28  C   LIG    1        9.373  12.095  -2.038  0.00  0.00    +0.020 A 
ATOM     29  C   LIG    1       10.552  11.752  -2.675  0.00  0.00    +0.030 A 
ATOM     30  C   LIG    1       10.790  10.440  -3.044  0.00  0.00    +0.030 A 
ATOM     31  C   LIG    1        9.852   9.464  -2.777  0.00  0.00    +0.070 A 
ENDBRANCH  25  26
BRANCH  21  32
ATOM     32  N   LIG    1        5.704  10.175  -1.349  0.00  0.00    -0.590 N 
ATOM     33  H   LIG    1        6.061  10.854  -2.004  0.00  0.00    +0.380 HD
ATOM     34  H   LIG    1        5.783  10.510  -0.401  0.00  0.00    +0.370 HD
ENDBRANCH  21  32
ENDBRANCH  20  22
ENDBRANCH  19  20
ENDBRANCH   1  19
TORSDOF 8
