REMARK  Name = ZINCpe000000YDKW.0
REMARK                            x       y       z     vdW  Elec       q    Type
REMARK                         _______ _______ _______ _____ _____    ______ ____
ROOT
ATOM      1  N   LIG    1       -3.698   1.118   0.026  0.00  0.00    -0.670 N 
ATOM      2  H   LIG    1       -3.889   2.066   0.106  0.00  0.00    +0.420 HD
ATOM      3  C   LIG    1       -2.422   0.686   0.015  0.00  0.00    +0.510 C 
ATOM      4  O   LIG    1       -2.184  -0.503  -0.001  0.00  0.00    -0.510 OA
ENDROOT
BRANCH   1   9
ATOM      5  C   LIG    1       -5.685  -1.965   0.396  0.00  0.00    -0.120 A 
ATOM      6  C   LIG    1       -6.843  -1.611  -0.299  0.00  0.00    +0.030 A 
ATOM      7  C   LIG    1       -6.946  -0.361  -0.876  0.00  0.00    +0.030 A 
ATOM      8  C   LIG    1       -5.908   0.544  -0.765  0.00  0.00    +0.020 A 
ATOM      9  C   LIG    1       -4.749   0.199  -0.080  0.00  0.00    +0.130 A 
ATOM     10  C   LIG    1       -4.635  -1.053   0.503  0.00  0.00    +0.090 A 
BRANCH   5  14
ATOM     11  N   LIG    1       -6.588  -4.182   0.910  0.00  0.00    -0.850 N 
ATOM     12  H   LIG    1       -6.514  -5.060   1.317  0.00  0.00    +0.410 HD
ATOM     13  H   LIG    1       -7.393  -3.938   0.427  0.00  0.00    +0.400 HD
ATOM     14  C   LIG    1       -5.572  -3.303   1.016  0.00  0.00    +0.560 C 
ATOM     15  O   LIG    1       -4.563  -3.609   1.620  0.00  0.00    -0.530 OA
ENDBRANCH   5  14
ENDBRANCH   1   9
BRANCH   3  16
ATOM     16  C   LIG    1       -1.290   1.681   0.024  0.00  0.00    +0.320 C 
BRANCH  16  17
ATOM     17  N   LIG    1       -0.011   0.966   0.010  0.00  0.00    -0.720 N 
ATOM     18  H   LIG    1        0.002  -0.004  -0.003  0.00  0.00    +0.410 HD
ATOM     19  C   LIG    1        1.147   1.656   0.009  0.00  0.00    +0.570 C 
ATOM     20  O   LIG    1        1.130   2.872   0.025  0.00  0.00    -0.530 OA
BRANCH  19  21
ATOM     21  C   LIG    1        2.435   0.936  -0.011  0.00  0.00    -0.130 A 
ATOM     22  C   LIG    1        2.456  -0.461  -0.030  0.00  0.00    +0.070 A 
ATOM     23  C   LIG    1        3.660  -1.131  -0.050  0.00  0.00    +0.040 A 
ATOM     24  C   LIG    1        4.854  -0.424  -0.051  0.00  0.00    +0.060 A 
ATOM     25  O   LIG    1        6.151  -0.845  -0.069  0.00  0.00    -0.300 OA
ATOM     26  C   LIG    1        6.930   0.290   0.353  0.00  0.00    +0.440 C 
ATOM     27  O   LIG    1        6.129   1.420  -0.038  0.00  0.00    -0.300 OA
ATOM     28  C   LIG    1        4.840   0.972  -0.032  0.00  0.00    +0.020 A 
ATOM     29  C   LIG    1        3.637   1.649  -0.018  0.00  0.00    +0.110 A 
ENDBRANCH  19  21
ENDBRANCH  16  17
ENDBRANCH   3  16
TORSDOF 5
