REMARK  Name = ZINCrD000000g6fG.0
REMARK                            x       y       z     vdW  Elec       q    Type
REMARK                         _______ _______ _______ _____ _____    ______ ____
ROOT
ATOM      1  N   LIG    1        2.554   4.229   0.000  0.00  0.00    -0.730 N 
ATOM      2  H   LIG    1        3.401   3.755  -0.010  0.00  0.00    +0.400 HD
ATOM      3  C   LIG    1        1.397   3.539   0.008  0.00  0.00    +0.520 C 
ATOM      4  O   LIG    1        0.338   4.131   0.021  0.00  0.00    -0.540 OA
ENDROOT
BRANCH   1   9
ATOM      5  C   LIG    1        4.325   9.157  -1.285  0.00  0.00    +0.650 C 
ATOM      6  N   LIG    1        3.516   8.249  -0.704  0.00  0.00    -0.600 N 
ATOM      7  C   LIG    1        3.802   7.749   0.648  0.00  0.00    +0.310 C 
ATOM      8  C   LIG    1        3.841   6.218   0.609  0.00  0.00    +0.030 C 
ATOM      9  C   LIG    1        2.535   5.694   0.008  0.00  0.00    +0.230 C 
ATOM     10  C   LIG    1        2.388   6.210  -1.425  0.00  0.00    +0.010 C 
ATOM     11  C   LIG    1        2.332   7.740  -1.409  0.00  0.00    +0.290 C 
ATOM     12  O   LIG    1        5.301   9.570  -0.692  0.00  0.00    -0.570 OA
BRANCH   5  13
ATOM     13  O   LIG    1        4.051   9.607  -2.525  0.00  0.00    -0.360 OA
BRANCH  13  15
ATOM     14  C   LIG    1        6.369   9.980  -3.171  0.00  0.00    +0.040 C 
ATOM     15  C   LIG    1        4.965  10.584  -3.088  0.00  0.00    +0.140 C 
ATOM     16  C   LIG    1        4.996  11.827  -2.197  0.00  0.00    +0.040 C 
ATOM     17  C   LIG    1        4.494  10.973  -4.491  0.00  0.00    +0.080 C 
ENDBRANCH  13  15
ENDBRANCH   5  13
ENDBRANCH   1   9
BRANCH   3  18
ATOM     18  C   LIG    1        1.417   2.032  -0.001  0.00  0.00    +0.070 C 
BRANCH  18  19
ATOM     19  C   LIG    1       -0.018   1.503   0.010  0.00  0.00    +0.070 C 
BRANCH  19  20
ATOM     20  C   LIG    1        0.002  -0.004   0.002  0.00  0.00    +0.400 C 
ATOM     21  O   LIG    1        1.060  -0.596  -0.011  0.00  0.00    -0.450 OA
BRANCH  20  22
ATOM     22  C   LIG    1       -1.261  -0.756   0.010  0.00  0.00    -0.190 A 
ATOM     23  C   LIG    1       -2.484  -0.076   0.031  0.00  0.00    +0.110 A 
ATOM     24  C   LIG    1       -3.664  -0.787   0.035  0.00  0.00    -0.030 A 
ATOM     25  C   LIG    1       -3.641  -2.174   0.027  0.00  0.00    +0.130 A 
ATOM     26  C   LIG    1       -2.433  -2.854   0.010  0.00  0.00    -0.030 A 
ATOM     27  F   LIG    1       -4.802  -2.866   0.035  0.00  0.00    -0.130 F 
ATOM     28  C   LIG    1       -1.246  -2.156   0.002  0.00  0.00    +0.110 A 
ENDBRANCH  20  22
ENDBRANCH  19  20
ENDBRANCH  18  19
ENDBRANCH   3  18
TORSDOF 7
