REMARK  Name = ZINCvU0000000HlF.0
REMARK                            x       y       z     vdW  Elec       q    Type
REMARK                         _______ _______ _______ _____ _____    ______ ____
ROOT
ATOM      1  O   LIG    1        4.004  -1.127  -0.023  0.00  0.00    -0.300 OA
ENDROOT
BRANCH   1   2
ATOM      2  C   LIG    1        5.432  -1.386  -0.039  0.00  0.00    +0.190 C 
ATOM      3  C   LIG    1        5.947  -1.496   1.398  0.00  0.00    +0.070 C 
BRANCH   2   6
ATOM      4  N   LIG    1        6.965  -3.121  -0.909  0.00  0.00    -0.660 N 
ATOM      5  H   LIG    1        7.708  -2.573  -0.612  0.00  0.00    +0.410 HD
ATOM      6  C   LIG    1        5.701  -2.677  -0.769  0.00  0.00    +0.520 C 
ATOM      7  O   LIG    1        4.779  -3.315  -1.231  0.00  0.00    -0.490 OA
BRANCH   4  13
ATOM      8  C   LIG    1        8.422  -4.632  -2.105  0.00  0.00    -0.110 A 
ATOM      9  C   LIG    1        8.659  -5.871  -2.667  0.00  0.00    +0.040 A 
ATOM     10  C   LIG    1        7.684  -6.851  -2.621  0.00  0.00    -0.010 A 
ATOM     11  C   LIG    1        6.471  -6.595  -2.010  0.00  0.00    +0.030 A 
ATOM     12  C   LIG    1        6.229  -5.360  -1.441  0.00  0.00    +0.010 A 
ATOM     13  C   LIG    1        7.207  -4.374  -1.484  0.00  0.00    +0.150 A 
BRANCH   8  14
ATOM     14  C   LIG    1        9.483  -3.563  -2.160  0.00  0.00    +0.020 C 
ATOM     15  C   LIG    1       10.783  -4.104  -1.562  0.00  0.00    +0.030 C 
BRANCH  14  17
ATOM     16  C   LIG    1       10.707  -1.987  -3.663  0.00  0.00    +0.010 C 
ATOM     17  C   LIG    1        9.722  -3.157  -3.616  0.00  0.00    +0.020 C 
ENDBRANCH  14  17
ENDBRANCH   8  14
ENDBRANCH   4  13
ENDBRANCH   2   6
ENDBRANCH   1   2
BRANCH   1  18
ATOM     18  C   LIG    1        3.616   0.164  -0.002  0.00  0.00    +0.550 C 
ATOM     19  O   LIG    1        4.450   1.049   0.002  0.00  0.00    -0.500 OA
BRANCH  18  20
ATOM     20  C   LIG    1        2.186   0.502   0.015  0.00  0.00    +0.070 A 
ATOM     21  C   LIG    1        1.741   1.778   0.037  0.00  0.00    -0.010 A 
ATOM     22  S   LIG    1       -0.020   1.749   0.052  0.00  0.00    +0.100 S 
ATOM     23  C   LIG    1        0.003  -0.011   0.027  0.00  0.00    +0.350 A 
ATOM     24  N   LIG    1        1.228  -0.430   0.010  0.00  0.00    -0.510 NA
BRANCH  23  25
ATOM     25  N   LIG    1       -1.118  -0.824   0.026  0.00  0.00    -0.680 N 
ATOM     26  H   LIG    1       -1.017  -1.789   0.012  0.00  0.00    +0.420 HD
BRANCH  25  27
ATOM     27  C   LIG    1       -2.455  -0.227   0.047  0.00  0.00    +0.320 C 
BRANCH  27  28
ATOM     28  C   LIG    1       -3.493  -1.320   0.042  0.00  0.00    -0.120 A 
ATOM     29  C   LIG    1       -3.985  -1.800  -1.158  0.00  0.00    +0.030 A 
ATOM     30  C   LIG    1       -4.933  -2.806  -1.163  0.00  0.00    +0.010 A 
ATOM     31  C   LIG    1       -5.398  -3.324   0.032  0.00  0.00    +0.020 A 
ATOM     32  C   LIG    1       -4.911  -2.839   1.231  0.00  0.00    +0.010 A 
ATOM     33  C   LIG    1       -3.958  -1.837   1.236  0.00  0.00    +0.030 A 
ENDBRANCH  27  28
ENDBRANCH  25  27
ENDBRANCH  23  25
ENDBRANCH  18  20
ENDBRANCH   1  18
TORSDOF 10
