REMARK  Name = ZINCvU0000000Hm0.0
REMARK                            x       y       z     vdW  Elec       q    Type
REMARK                         _______ _______ _______ _____ _____    ______ ____
ROOT
ATOM      1  C   LIG    1        1.205  -2.335   0.497  0.00  0.00    +0.130 C 
ENDROOT
BRANCH   1   2
ATOM      2  C   LIG    1        1.143  -0.829   0.500  0.00  0.00    +0.540 C 
ATOM      3  N   LIG    1        0.048  -0.201   0.972  0.00  0.00    -0.610 N 
ATOM      4  H   LIG    1       -0.701  -0.718   1.310  0.00  0.00    +0.430 HD
ATOM      5  O   LIG    1        2.078  -0.183   0.078  0.00  0.00    -0.490 OA
BRANCH   3   6
ATOM      6  C   LIG    1       -0.010   1.187   0.975  0.00  0.00    +0.270 A 
ATOM      7  N   LIG    1       -1.010   1.895   1.398  0.00  0.00    -0.490 NA
ATOM      8  C   LIG    1       -0.888   3.213   1.327  0.00  0.00    +0.130 A 
ATOM      9  C   LIG    1        0.272   3.658   0.809  0.00  0.00    -0.110 A 
ATOM     10  S   LIG    1        1.262   2.260   0.397  0.00  0.00    +0.210 S 
BRANCH   8  11
ATOM     11  C   LIG    1       -1.957   4.134   1.782  0.00  0.00    -0.030 A 
ATOM     12  C   LIG    1       -1.780   5.514   1.688  0.00  0.00    +0.030 A 
ATOM     13  C   LIG    1       -2.781   6.366   2.107  0.00  0.00    +0.010 A 
ATOM     14  C   LIG    1       -3.954   5.854   2.632  0.00  0.00    -0.080 A 
ATOM     15  C   LIG    1       -4.133   4.486   2.734  0.00  0.00    +0.010 A 
ATOM     16  C   LIG    1       -5.041   6.790   3.094  0.00  0.00    +0.090 C 
ATOM     17  C   LIG    1       -3.141   3.624   2.312  0.00  0.00    +0.050 A 
ENDBRANCH   8  11
ENDBRANCH   3   6
ENDBRANCH   1   2
BRANCH   1  18
ATOM     18  S   LIG    1        2.790  -2.872  -0.192  0.00  0.00    +0.100 S 
BRANCH  18  20
ATOM     19  N   LIG    1        3.505  -5.562  -0.469  0.00  0.00    -0.450 N 
ATOM     20  C   LIG    1        2.597  -4.620  -0.078  0.00  0.00    +0.140 A 
ATOM     21  N   LIG    1        1.549  -5.259   0.392  0.00  0.00    -0.290 NA
ATOM     22  N   LIG    1        1.742  -6.528   0.328  0.00  0.00    -0.270 NA
ATOM     23  C   LIG    1        2.923  -6.777  -0.187  0.00  0.00    +0.230 A 
BRANCH  23  24
ATOM     24  C   LIG    1        3.515  -8.111  -0.425  0.00  0.00    -0.020 A 
ATOM     25  C   LIG    1        2.698  -9.188  -0.771  0.00  0.00    +0.060 A 
ATOM     26  C   LIG    1        3.257 -10.429  -0.997  0.00  0.00    +0.010 A 
ATOM     27  C   LIG    1        4.623 -10.609  -0.871  0.00  0.00    +0.030 A 
ATOM     28  C   LIG    1        5.438  -9.546  -0.523  0.00  0.00    +0.010 A 
ATOM     29  C   LIG    1        4.892  -8.299  -0.300  0.00  0.00    +0.010 A 
ENDBRANCH  23  24
BRANCH  19  30
ATOM     30  C   LIG    1        4.824  -5.328  -1.062  0.00  0.00    +0.350 C 
BRANCH  30  32
ATOM     31  C   LIG    1        6.933  -5.771   0.085  0.00  0.00    +0.070 C 
ATOM     32  C   LIG    1        5.828  -5.071   0.032  0.00  0.00    -0.070 C 
ENDBRANCH  30  32
ENDBRANCH  19  30
ENDBRANCH  18  20
ENDBRANCH   1  18
TORSDOF 8
