REMARK  Name = ZINCrD00000bYaB4.0
REMARK                            x       y       z     vdW  Elec       q    Type
REMARK                         _______ _______ _______ _____ _____    ______ ____
ROOT
ATOM      1  C   LIG    1        0.181   4.095   3.317  0.00  0.00    +0.520 C 
ATOM      2  N   LIG    1       -0.868   4.603   2.639  0.00  0.00    -0.610 N 
ATOM      3  C   LIG    1       -0.858   6.009   2.229  0.00  0.00    +0.270 C 
ATOM      4  C   LIG    1       -1.356   6.114   0.783  0.00  0.00    +0.010 C 
ATOM      5  C   LIG    1       -0.259   5.608  -0.161  0.00  0.00    +0.270 C 
ATOM      6  N   LIG    1       -0.187   4.147  -0.074  0.00  0.00    -0.590 N 
ATOM      7  C   LIG    1       -1.413   3.346  -0.073  0.00  0.00    +0.290 C 
ATOM      8  C   LIG    1       -1.576   2.683   1.304  0.00  0.00    +0.020 C 
ATOM      9  C   LIG    1        1.013   3.538   0.001  0.00  0.00    +0.570 C 
ATOM     10  O   LIG    1        2.026   4.202   0.092  0.00  0.00    -0.540 OA
ATOM     11  C   LIG    1       -2.011   3.747   2.317  0.00  0.00    +0.270 C 
ATOM     12  O   LIG    1        0.216   2.912   3.581  0.00  0.00    -0.530 OA
ENDROOT
BRANCH   9  13
ATOM     13  C   LIG    1        1.095   2.061  -0.028  0.00  0.00    +0.080 A 
ATOM     14  C   LIG    1        2.324   1.436   0.181  0.00  0.00    +0.050 A 
ATOM     15  C   LIG    1        2.392   0.054   0.153  0.00  0.00    +0.060 A 
ATOM     16  C   LIG    1        1.217  -0.663  -0.087  0.00  0.00    -0.070 A 
ATOM     17  C   LIG    1        0.023   0.034  -0.288  0.00  0.00    +0.260 A 
ATOM     18  N   LIG    1       -0.002   1.346  -0.253  0.00  0.00    -0.440 NA
BRANCH  16  19
ATOM     19  C   LIG    1        1.238  -2.146  -0.127  0.00  0.00    -0.050 A 
ATOM     20  C   LIG    1        2.434  -2.834   0.068  0.00  0.00    +0.030 A 
ATOM     21  C   LIG    1        2.446  -4.214   0.035  0.00  0.00    +0.010 A 
ATOM     22  C   LIG    1        1.276  -4.913  -0.203  0.00  0.00    +0.020 A 
ATOM     23  C   LIG    1        0.087  -4.234  -0.404  0.00  0.00    +0.010 A 
ATOM     24  C   LIG    1        0.062  -2.855  -0.367  0.00  0.00    +0.030 A 
ENDBRANCH  16  19
ENDBRANCH   9  13
BRANCH   1  25
ATOM     25  C   LIG    1        1.309   4.997   3.746  0.00  0.00    +0.080 C 
BRANCH  25  27
ATOM     26  C   LIG    1        3.547   4.176   4.273  0.00  0.00    +0.020 C 
ATOM     27  C   LIG    1        2.278   4.219   4.597  0.00  0.00    -0.030 C 
ENDBRANCH  25  27
ENDBRANCH   1  25
TORSDOF 4
