REMARK  Name = ZINCrD0000073sbY.0
REMARK                            x       y       z     vdW  Elec       q    Type
REMARK                         _______ _______ _______ _____ _____    ______ ____
ROOT
ATOM      1  C   LIG    1        2.488   8.767   1.205  0.00  0.00    +0.290 C 
ENDROOT
BRANCH   1   2
ATOM      2  N   LIG    1        3.365   9.940   1.202  0.00  0.00    -1.110 NA
ATOM      3  H   LIG    1        3.417  10.504   0.415  0.00  0.00    +0.420 HD
BRANCH   2   4
ATOM      4  S   LIG    1        4.266  10.304   2.543  0.00  0.00    +2.700 S 
ATOM      5  O   LIG    1        3.378  10.244   3.652  0.00  0.00    -0.930 OA
ATOM      6  O   LIG    1        5.024  11.460   2.216  0.00  0.00    -0.950 OA
BRANCH   4  11
ATOM      7  C   LIG    1        7.690   8.211   2.809  0.00  0.00    +0.120 A 
ATOM      8  C   LIG    1        7.241   6.934   3.110  0.00  0.00    +0.010 A 
ATOM      9  C   LIG    1        5.887   6.690   3.237  0.00  0.00    +0.070 A 
ATOM     10  C   LIG    1        4.979   7.720   3.064  0.00  0.00    +0.010 A 
ATOM     11  C   LIG    1        5.425   8.995   2.764  0.00  0.00    -0.630 A 
ATOM     12 CL   LIG    1        3.278   7.411   3.223  0.00  0.00    -0.030 Cl
ATOM     13  C   LIG    1        6.777   9.241   2.630  0.00  0.00    +0.120 A 
BRANCH   7  15
ATOM     14  C   LIG    1        9.903   7.345   2.875  0.00  0.00    +0.250 C 
ATOM     15  O   LIG    1        9.022   8.453   2.684  0.00  0.00    -0.310 OA
ENDBRANCH   7  15
ENDBRANCH   4  11
ENDBRANCH   2   4
ENDBRANCH   1   2
BRANCH   1  16
ATOM     16  C   LIG    1        1.509   8.859   0.033  0.00  0.00    +0.150 C 
BRANCH  16  17
ATOM     17  C   LIG    1        0.607   7.651   0.036  0.00  0.00    +0.220 A 
ATOM     18  N   LIG    1        1.004   6.410   0.026  0.00  0.00    -0.470 NA
ATOM     19  C   LIG    1       -0.074   5.599   0.032  0.00  0.00    +0.040 A 
ATOM     20  C   LIG    1       -1.182   6.386   0.041  0.00  0.00    +0.150 A 
ATOM     21  N   LIG    1       -0.744   7.681   0.049  0.00  0.00    -0.560 N 
ATOM     22  H   LIG    1       -1.300   8.475   0.058  0.00  0.00    +0.420 HD
BRANCH  19  23
ATOM     23  C   LIG    1       -0.054   4.116   0.024  0.00  0.00    -0.010 A 
ATOM     24  C   LIG    1        1.161   3.433   0.009  0.00  0.00    +0.070 A 
ATOM     25  C   LIG    1        1.175   2.054   0.002  0.00  0.00    -0.010 A 
ATOM     26  C   LIG    1       -0.016   1.347   0.009  0.00  0.00    +0.100 A 
ATOM     27  C   LIG    1       -1.226   2.021   0.019  0.00  0.00    -0.010 A 
ATOM     28  F   LIG    1        0.002  -0.004   0.002  0.00  0.00    -0.140 F 
ATOM     29  C   LIG    1       -1.250   3.401   0.031  0.00  0.00    +0.050 A 
ENDBRANCH  19  23
ENDBRANCH  16  17
ENDBRANCH   1  16
TORSDOF 7
