REMARK  Name = ZINCpe00000MJLeg.0
REMARK                            x       y       z     vdW  Elec       q    Type
REMARK                         _______ _______ _______ _____ _____    ______ ____
ROOT
ATOM      1  C   LIG    1       -2.524   2.301   2.038  0.00  0.00    +0.250 C 
ATOM      2  C   LIG    1       -2.047   3.297   3.112  0.00  0.00    +0.290 C 
ATOM      3  N   LIG    1       -3.024   2.645   4.006  0.00  0.00    -0.640 N 
ATOM      4  C   LIG    1       -3.698   3.028   5.109  0.00  0.00    +0.570 C 
ATOM      5  O   LIG    1       -4.462   2.254   5.655  0.00  0.00    -0.540 OA
ATOM      6  C   LIG    1       -2.965   1.404   3.209  0.00  0.00    +0.280 C 
ENDROOT
BRANCH   1  10
ATOM      7  C   LIG    1       -0.077   1.281  -0.685  0.00  0.00    +0.000 C 
ATOM      8  C   LIG    1        0.650   0.866   0.615  0.00  0.00    +0.070 C 
ATOM      9  C   LIG    1       -0.220   1.419   1.722  0.00  0.00    +0.520 C 
ATOM     10  N   LIG    1       -1.437   1.733   1.237  0.00  0.00    -0.610 N 
ATOM     11  O   LIG    1        0.128   1.557   2.876  0.00  0.00    -0.520 OA
ATOM     12  C   LIG    1       -1.534   1.434  -0.197  0.00  0.00    +0.300 C 
BRANCH   7  16
ATOM     13  C   LIG    1        1.345  -1.220  -3.211  0.00  0.00    +0.280 C 
ATOM     14  N   LIG    1        1.240  -0.170  -2.194  0.00  0.00    -0.730 N 
ATOM     15  H   LIG    1        2.042   0.257  -1.853  0.00  0.00    +0.400 HD
ATOM     16  C   LIG    1        0.030   0.202  -1.731  0.00  0.00    +0.520 C 
ATOM     17  O   LIG    1       -0.972  -0.332  -2.157  0.00  0.00    -0.530 OA
ENDBRANCH   7  16
ENDBRANCH   1  10
BRANCH   4  18
ATOM     18  C   LIG    1       -3.511   4.376   5.649  0.00  0.00    -0.090 C 
ATOM     19  C   LIG    1       -4.262   4.797   6.686  0.00  0.00    +0.020 C 
ATOM     20  C   LIG    1       -5.204   3.840   7.372  0.00  0.00    +0.130 C 
BRANCH  19  21
ATOM     21  C   LIG    1       -4.163   6.190   7.150  0.00  0.00    -0.070 A 
ATOM     22  C   LIG    1       -2.971   6.662   7.710  0.00  0.00    +0.030 A 
ATOM     23  C   LIG    1       -2.885   7.970   8.137  0.00  0.00    +0.010 A 
ATOM     24  C   LIG    1       -3.976   8.812   8.023  0.00  0.00    +0.010 A 
ATOM     25  C   LIG    1       -5.161   8.352   7.476  0.00  0.00    +0.010 A 
ATOM     26  C   LIG    1       -5.262   7.048   7.039  0.00  0.00    +0.030 A 
ENDBRANCH  19  21
ENDBRANCH   4  18
TORSDOF 4
