REMARK  Name = ZINCrD00000dfbWW.0
REMARK                            x       y       z     vdW  Elec       q    Type
REMARK                         _______ _______ _______ _____ _____    ______ ____
ROOT
ATOM      1  C   LIG    1       -0.368   1.555   0.689  0.00  0.00    +0.510 C 
ATOM      2  N   LIG    1        0.781   2.254   0.617  0.00  0.00    -0.610 N 
ATOM      3  C   LIG    1        0.710   3.691   0.474  0.00  0.00    +0.280 C 
ATOM      4  C   LIG    1        0.669   4.351   1.874  0.00  0.00    +0.000 C 
ATOM      5  C   LIG    1        1.979   4.234   2.533  0.00  0.00    +0.240 C 
ATOM      6  C   LIG    1        2.420   2.799   2.804  0.00  0.00    +0.040 C 
ATOM      7  C   LIG    1        3.093   2.241   1.574  0.00  0.00    -0.070 C 
ATOM      8  C   LIG    1        4.176   1.246   1.996  0.00  0.00    +0.040 C 
ATOM      9  C   LIG    1        3.733   3.384   0.784  0.00  0.00    +0.030 C 
ATOM     10  C   LIG    1        2.061   1.523   0.692  0.00  0.00    +0.280 C 
ATOM     11  O   LIG    1       -0.338   0.348   0.809  0.00  0.00    -0.530 OA
ENDROOT
BRANCH   5  12
ATOM     12  N   LIG    1        1.924   4.950   3.810  0.00  0.00    -0.710 N 
ATOM     13  H   LIG    1        1.721   4.468   4.627  0.00  0.00    +0.400 HD
ATOM     14  C   LIG    1        2.155   6.277   3.849  0.00  0.00    +0.600 C 
ATOM     15  O   LIG    1        2.497   6.865   2.840  0.00  0.00    -0.540 OA
BRANCH  14  16
ATOM     16  C   LIG    1        1.993   7.015   5.112  0.00  0.00    -0.040 A 
ATOM     17  C   LIG    1        1.704   6.481   6.355  0.00  0.00    -0.030 A 
ATOM     18  C   LIG    1        1.653   7.573   7.224  0.00  0.00    +0.020 A 
ATOM     19  N   LIG    1        1.896   8.653   6.527  0.00  0.00    -0.270 NA
ATOM     20  C   LIG    1        1.369   7.517   8.703  0.00  0.00    +0.160 C 
ATOM     21  N   LIG    1        2.105   8.364   5.293  0.00  0.00    -0.250 N 
ATOM     22  C   LIG    1        2.412   9.335   4.239  0.00  0.00    +0.360 C 
ENDBRANCH  14  16
ENDBRANCH   5  12
BRANCH   1  23
ATOM     23  C   LIG    1       -1.692   2.271   0.615  0.00  0.00    +0.040 C 
BRANCH  23  24
ATOM     24  C   LIG    1       -2.829   1.252   0.714  0.00  0.00    +0.000 C 
ATOM     25  C   LIG    1       -2.804   0.591   2.094  0.00  0.00    +0.030 C 
BRANCH  24  26
ATOM     26  C   LIG    1       -4.170   1.963   0.514  0.00  0.00    +0.000 C 
BRANCH  26  28
ATOM     27  C   LIG    1       -6.637   1.639   0.288  0.00  0.00    +0.000 C 
ATOM     28  C   LIG    1       -5.297   0.928   0.488  0.00  0.00    -0.010 C 
ENDBRANCH  26  28
ENDBRANCH  24  26
ENDBRANCH  23  24
ENDBRANCH   1  23
TORSDOF 6
