REMARK  Name = ZINCrH000004q5p2.0
REMARK                            x       y       z     vdW  Elec       q    Type
REMARK                         _______ _______ _______ _____ _____    ______ ____
ROOT
ATOM      1  C   LIG    1       -0.204   4.203   1.360  0.00  0.00    +0.130 C 
ATOM      2  C   LIG    1       -1.454   3.469   0.948  0.00  0.00    -0.280 A 
ATOM      3  C   LIG    1       -1.439   2.116   0.809  0.00  0.00    +0.200 A 
ATOM      4  O   LIG    1       -2.526   1.416   0.449  0.00  0.00    -0.190 OA
ATOM      5  C   LIG    1       -3.711   2.004   0.193  0.00  0.00    +0.200 A 
ATOM      6  C   LIG    1       -4.827   1.243  -0.181  0.00  0.00    -0.160 A 
ATOM      7  C   LIG    1       -6.041   1.880  -0.438  0.00  0.00    +0.110 A 
ATOM      8  C   LIG    1       -6.150   3.253  -0.328  0.00  0.00    -0.010 A 
ATOM      9  C   LIG    1       -5.058   4.015   0.040  0.00  0.00    +0.150 A 
ATOM     10  C   LIG    1       -3.837   3.398   0.301  0.00  0.00    -0.230 A 
ATOM     11  C   LIG    1       -2.649   4.182   0.696  0.00  0.00    +0.430 A 
ATOM     12  O   LIG    1       -2.699   5.396   0.806  0.00  0.00    -0.460 OA
ENDROOT
BRANCH   6  13
ATOM     13  C   LIG    1       -4.719  -0.224  -0.300  0.00  0.00    +0.580 C 
ATOM     14  N   LIG    1       -5.825  -0.967  -0.503  0.00  0.00    -0.620 N 
ATOM     15  C   LIG    1       -5.876  -2.440  -0.539  0.00  0.00    +0.280 C 
ATOM     16  C   LIG    1       -7.342  -2.793  -0.173  0.00  0.00    +0.070 C 
ATOM     17  C   LIG    1       -8.120  -1.657  -0.887  0.00  0.00    +0.130 C 
ATOM     18  C   LIG    1       -7.179  -0.443  -0.733  0.00  0.00    +0.290 C 
ATOM     19  O   LIG    1       -3.632  -0.762  -0.215  0.00  0.00    -0.510 OA
BRANCH  17  20
ATOM     20  C   LIG    1       -9.408  -1.405  -0.220  0.00  0.00    +0.210 C 
ATOM     21  N   LIG    1      -10.402  -1.210   0.294  0.00  0.00    -0.410 NA
ENDBRANCH  17  20
ENDBRANCH   6  13
BRANCH   3  22
ATOM     22  C   LIG    1       -0.181   1.389   1.070  0.00  0.00    -0.070 A 
ATOM     23  C   LIG    1        1.007   1.802   0.463  0.00  0.00    +0.050 A 
ATOM     24  C   LIG    1        2.178   1.114   0.707  0.00  0.00    +0.010 A 
ATOM     25  C   LIG    1        2.177   0.018   1.552  0.00  0.00    +0.040 A 
ATOM     26  C   LIG    1        1.003  -0.397   2.156  0.00  0.00    +0.010 A 
ATOM     27  C   LIG    1       -0.175   0.281   1.921  0.00  0.00    +0.060 A 
ENDBRANCH   3  22
TORSDOF 3
