REMARK  Name = ZINCqH0000036bnL.0
REMARK                            x       y       z     vdW  Elec       q    Type
REMARK                         _______ _______ _______ _____ _____    ______ ____
ROOT
ATOM      1  C   LIG    1       10.448  -5.646  -2.954  0.00  0.00    +0.150 A 
ATOM      2  C   LIG    1       10.820  -5.258  -1.675  0.00  0.00    -0.090 A 
ATOM      3  C   LIG    1       10.376  -4.053  -1.160  0.00  0.00    +0.080 A 
ATOM      4  C   LIG    1        9.563  -3.241  -1.924  0.00  0.00    -0.140 A 
ATOM      5  C   LIG    1        9.114  -1.895  -1.388  0.00  0.00    +0.250 C 
ATOM      6  N   LIG    1        7.665  -1.936  -1.163  0.00  0.00    -0.540 NA
ATOM      7  C   LIG    1        6.901  -1.648  -2.374  0.00  0.00    +0.160 C 
ATOM      8  C   LIG    1        7.002  -2.731  -3.426  0.00  0.00    +0.250 C 
ATOM      9  O   LIG    1        8.343  -2.834  -3.921  0.00  0.00    -0.320 OA
ATOM     10  C   LIG    1        9.173  -3.630  -3.192  0.00  0.00    +0.150 A 
ATOM     11  C   LIG    1        9.623  -4.832  -3.716  0.00  0.00    -0.030 A 
ENDROOT
BRANCH   1  13
ATOM     12  C   LIG    1       11.741  -7.613  -2.623  0.00  0.00    +0.250 C 
ATOM     13  O   LIG    1       10.894  -6.825  -3.461  0.00  0.00    -0.320 OA
ENDBRANCH   1  13
BRANCH   6  14
ATOM     14  C   LIG    1        7.276  -1.036  -0.069  0.00  0.00    +0.270 C 
ATOM     15  C   LIG    1        7.949  -1.489   1.228  0.00  0.00    +0.080 C 
BRANCH  14  16
ATOM     16  C   LIG    1        5.780  -1.071   0.103  0.00  0.00    +0.190 A 
ATOM     17  N   LIG    1        4.991  -0.038   0.264  0.00  0.00    -0.470 NA
ATOM     18  C   LIG    1        3.743  -0.548   0.375  0.00  0.00    +0.210 A 
ATOM     19  N   LIG    1        3.847  -1.848   0.280  0.00  0.00    -0.370 NA
ATOM     20  O   LIG    1        5.008  -2.162   0.119  0.00  0.00    +0.100 OA
BRANCH  18  21
ATOM     21  C   LIG    1        2.491   0.224   0.574  0.00  0.00    -0.030 A 
ATOM     22  C   LIG    1        1.269  -0.440   0.671  0.00  0.00    +0.050 A 
ATOM     23  C   LIG    1        0.108   0.283   0.856  0.00  0.00    +0.010 A 
ATOM     24  C   LIG    1        0.155   1.662   0.945  0.00  0.00    +0.030 A 
ATOM     25  C   LIG    1        1.365   2.326   0.849  0.00  0.00    +0.010 A 
ATOM     26  C   LIG    1        2.532   1.613   0.663  0.00  0.00    +0.050 A 
ENDBRANCH  18  21
ENDBRANCH  14  16
ENDBRANCH   6  14
TORSDOF 4
