REMARK  Name = ZINCrg000000ni58.0
REMARK                            x       y       z     vdW  Elec       q    Type
REMARK                         _______ _______ _______ _____ _____    ______ ____
ROOT
ATOM      1  N   LIG    1        1.202   2.974   0.024  0.00  0.00    -0.540 N 
ATOM      2  C   LIG    1        1.141   1.633  -0.001  0.00  0.00    +0.710 A 
ATOM      3  N   LIG    1       -0.025   0.966  -0.011  0.00  0.00    -0.660 N 
ATOM      4  H   LIG    1       -0.021  -0.004  -0.029  0.00  0.00    +0.440 HD
ATOM      5  C   LIG    1       -1.200   1.627  -0.002  0.00  0.00    +0.580 A 
ATOM      6  C   LIG    1       -1.182   3.095   0.031  0.00  0.00    -0.440 A 
ATOM      7  O   LIG    1       -2.255   1.019  -0.015  0.00  0.00    -0.490 OA
ATOM      8  O   LIG    1        2.178   1.000  -0.015  0.00  0.00    -0.520 OA
ATOM      9  C   LIG    1        0.069   3.736   0.040  0.00  0.00    +0.560 A 
ENDROOT
BRANCH   9  10
ATOM     10  N   LIG    1        0.150   5.094   0.065  0.00  0.00    -0.800 N 
ATOM     11  H   LIG    1       -0.581   5.617   0.430  0.00  0.00    +0.440 HD
ATOM     12  H   LIG    1        0.938   5.540  -0.283  0.00  0.00    +0.410 HD
ENDBRANCH   9  10
BRANCH   6  13
ATOM     13  C   LIG    1       -2.381   3.839   0.047  0.00  0.00    +0.460 C 
ATOM     14  O   LIG    1       -2.346   5.050  -0.037  0.00  0.00    -0.490 OA
BRANCH  13  15
ATOM     15  C   LIG    1       -3.705   3.130   0.170  0.00  0.00    +0.130 C 
BRANCH  15  16
ATOM     16  S   LIG    1       -5.045   4.348   0.163  0.00  0.00    +0.040 S 
BRANCH  16  17
ATOM     17  C   LIG    1       -6.434   3.275   0.314  0.00  0.00    +0.140 A 
ATOM     18  N   LIG    1       -6.406   1.964   0.403  0.00  0.00    -0.290 NA
ATOM     19  N   LIG    1       -7.604   1.506   0.509  0.00  0.00    -0.280 NA
ATOM     20  C   LIG    1       -8.456   2.488   0.498  0.00  0.00    +0.190 A 
ATOM     21  C   LIG    1       -9.956   2.397   0.618  0.00  0.00    +0.150 C 
ATOM     22  C   LIG    1      -10.597   3.277  -0.460  0.00  0.00    +0.030 C 
ATOM     23  C   LIG    1      -10.764   4.697   0.070  0.00  0.00    +0.010 C 
ATOM     24  C   LIG    1       -9.625   5.056   1.021  0.00  0.00    +0.030 C 
ATOM     25  C   LIG    1       -8.289   4.999   0.274  0.00  0.00    +0.290 C 
ATOM     26  N   LIG    1       -7.743   3.646   0.368  0.00  0.00    -0.460 N 
ENDBRANCH  16  17
ENDBRANCH  15  16
ENDBRANCH  13  15
ENDBRANCH   6  13
BRANCH   1  27
ATOM     27  C   LIG    1        2.511   3.632   0.033  0.00  0.00    +0.320 C 
BRANCH  27  29
ATOM     28  C   LIG    1        4.269   4.686  -1.396  0.00  0.00    +0.040 C 
ATOM     29  C   LIG    1        2.963   3.889  -1.406  0.00  0.00    -0.050 C 
ATOM     30  C   LIG    1        3.188   2.552  -2.116  0.00  0.00    +0.030 C 
ENDBRANCH  27  29
ENDBRANCH   1  27
TORSDOF 7
