REMARK  Name = ZINCqH0000005JSA.0
REMARK                            x       y       z     vdW  Elec       q    Type
REMARK                         _______ _______ _______ _____ _____    ______ ____
ROOT
ATOM      1  C   LIG    1       -4.943   1.202   0.032  0.00  0.00    +0.340 C 
ENDROOT
BRANCH   1   2
ATOM      2  C   LIG    1       -6.033   2.060  -0.559  0.00  0.00    -0.100 A 
ATOM      3  C   LIG    1       -6.090   3.408  -0.258  0.00  0.00    +0.050 A 
ATOM      4  C   LIG    1       -7.090   4.195  -0.800  0.00  0.00    +0.030 A 
ATOM      5  C   LIG    1       -8.030   3.634  -1.643  0.00  0.00    +0.090 A 
ATOM      6  C   LIG    1       -7.972   2.286  -1.944  0.00  0.00    -0.180 A 
ATOM      7  C   LIG    1       -6.971   1.500  -1.406  0.00  0.00    +0.100 A 
BRANCH   6   8
ATOM      8  C   LIG    1       -8.998   1.674  -2.864  0.00  0.00    +0.510 C 
ATOM      9  F   LIG    1       -9.692   0.668  -2.184  0.00  0.00    -0.170 F 
ATOM     10  F   LIG    1       -8.356   1.127  -3.979  0.00  0.00    -0.170 F 
ATOM     11  F   LIG    1       -9.897   2.661  -3.281  0.00  0.00    -0.180 F 
ENDBRANCH   6   8
ENDBRANCH   1   2
BRANCH   1  12
ATOM     12  N   LIG    1       -3.681   1.946   0.030  0.00  0.00    -0.710 N 
ATOM     13  H   LIG    1       -3.690   2.916   0.035  0.00  0.00    +0.410 HD
ATOM     14  C   LIG    1       -2.508   1.282   0.021  0.00  0.00    +0.570 C 
ATOM     15  O   LIG    1       -2.498   0.067   0.014  0.00  0.00    -0.510 OA
BRANCH  14  16
ATOM     16  C   LIG    1       -1.236   2.032   0.019  0.00  0.00    -0.170 A 
ATOM     17  C   LIG    1       -1.244   3.428   0.032  0.00  0.00    +0.070 A 
ATOM     18  C   LIG    1       -0.052   4.122   0.025  0.00  0.00    +0.010 A 
ATOM     19  C   LIG    1        1.152   3.439   0.010  0.00  0.00    +0.080 A 
ATOM     20  C   LIG    1        1.170   2.057   0.002  0.00  0.00    -0.130 A 
ATOM     21  C   LIG    1        2.486   1.322  -0.014  0.00  0.00    +0.110 C 
ATOM     22  C   LIG    1       -0.016   1.347   0.009  0.00  0.00    +0.160 A 
ATOM     23  F   LIG    1        0.002  -0.004   0.002  0.00  0.00    -0.110 F 
ENDBRANCH  14  16
ENDBRANCH   1  12
BRANCH   1  24
ATOM     24  C   LIG    1       -5.307   0.833   1.447  0.00  0.00    +0.450 C 
ATOM     25  O   LIG    1       -4.585   1.157   2.360  0.00  0.00    -0.490 OA
BRANCH  24  27
ATOM     26  C   LIG    1       -6.718  -0.178   3.080  0.00  0.00    +0.280 C 
ATOM     27  O   LIG    1       -6.432   0.143   1.693  0.00  0.00    -0.350 OA
ENDBRANCH  24  27
ENDBRANCH   1  24
TORSDOF 6
