REMARK  Name = ZINCrD000000CVRa.0
REMARK                            x       y       z     vdW  Elec       q    Type
REMARK                         _______ _______ _______ _____ _____    ______ ____
ROOT
ATOM      1  O   LIG    1        0.337   4.390   4.580  0.00  0.00    -0.520 OA
ATOM      2  C   LIG    1        0.263   3.962   3.444  0.00  0.00    +0.700 C 
ATOM      3  N   LIG    1       -0.811   3.319   2.953  0.00  0.00    -0.730 N 
ATOM      4  H   LIG    1       -1.620   3.073   3.427  0.00  0.00    +0.440 HD
ATOM      5  C   LIG    1       -0.521   3.042   1.531  0.00  0.00    +0.180 C 
ATOM      6  C   LIG    1        0.896   3.506   1.361  0.00  0.00    +0.540 C 
ATOM      7  O   LIG    1        1.626   3.408   0.398  0.00  0.00    -0.450 OA
ATOM      8  C   LIG    1       -0.690   1.548   1.283  0.00  0.00    +0.060 C 
ATOM      9  C   LIG    1       -0.013   1.090   0.008  0.00  0.00    +0.020 C 
ATOM     10  C   LIG    1       -0.697   1.554  -1.263  0.00  0.00    +0.020 C 
ATOM     11  C   LIG    1       -0.465   3.046  -1.493  0.00  0.00    +0.070 C 
ATOM     12  C   LIG    1       -1.469   3.837  -0.681  0.00  0.00    -0.050 A 
ATOM     13  C   LIG    1       -2.400   4.584  -1.394  0.00  0.00    +0.010 A 
ATOM     14  C   LIG    1       -3.346   5.336  -0.728  0.00  0.00    +0.030 A 
ATOM     15  C   LIG    1       -3.362   5.345   0.654  0.00  0.00    +0.010 A 
ATOM     16  C   LIG    1       -2.438   4.598   1.357  0.00  0.00    +0.030 A 
ATOM     17  C   LIG    1       -1.488   3.836   0.683  0.00  0.00    -0.100 A 
ATOM     18  N   LIG    1        1.241   4.077   2.540  0.00  0.00    -0.580 N 
ENDROOT
BRANCH  18  19
ATOM     19  C   LIG    1        2.530   4.725   2.790  0.00  0.00    +0.350 C 
BRANCH  19  20
ATOM     20  C   LIG    1        2.433   6.209   2.428  0.00  0.00    +0.200 C 
BRANCH  20  21
ATOM     21  O   LIG    1        1.508   6.854   3.305  0.00  0.00    -0.290 OA
BRANCH  21  22
ATOM     22  C   LIG    1        1.304   8.185   3.117  0.00  0.00    +0.100 A 
ATOM     23  C   LIG    1        1.985   8.856   2.113  0.00  0.00    -0.040 A 
ATOM     24  C   LIG    1        1.773  10.209   1.920  0.00  0.00    +0.040 A 
ATOM     25  C   LIG    1        0.891  10.895   2.734  0.00  0.00    +0.010 A 
ATOM     26  C   LIG    1        0.214  10.230   3.740  0.00  0.00    +0.020 A 
ATOM     27  C   LIG    1        0.418   8.876   3.934  0.00  0.00    +0.070 A 
ATOM     28  F   LIG    1       -0.244   8.226   4.916  0.00  0.00    -0.130 F 
ENDBRANCH  21  22
ENDBRANCH  20  21
ENDBRANCH  19  20
ENDBRANCH  18  19
TORSDOF 4
