REMARK  Name = ZINCb80000003VTS.0
REMARK                            x       y       z     vdW  Elec       q    Type
REMARK                         _______ _______ _______ _____ _____    ______ ____
ROOT
ATOM      1  C   LIG    1        1.233   3.542   0.009  0.00  0.00    -0.080 A 
ATOM      2  N   LIG    1        0.227   4.396   0.018  0.00  0.00    -0.140 NA
ATOM      3  N   LIG    1        0.486   5.631   0.028  0.00  0.00    -0.350 NA
ATOM      4  C   LIG    1        1.742   6.038   0.018  0.00  0.00    +0.290 A 
ATOM      5  N   LIG    1        2.207   7.336   0.021  0.00  0.00    -0.780 N 
ATOM      6  H   LIG    1        1.580   8.076   0.031  0.00  0.00    +0.430 HD
ATOM      7  H   LIG    1        3.162   7.509   0.013  0.00  0.00    +0.430 HD
ATOM      8  S   LIG    1        2.672   4.584   0.001  0.00  0.00    +0.170 S 
ENDROOT
BRANCH   1   9
ATOM      9  C   LIG    1        1.176   2.076   0.002  0.00  0.00    +0.570 C 
ATOM     10  O   LIG    1        2.204   1.428  -0.011  0.00  0.00    -0.490 OA
BRANCH   9  11
ATOM     11  O   LIG    1       -0.018   1.448   0.010  0.00  0.00    -0.330 OA
BRANCH  11  13
ATOM     12  C   LIG    1       -1.433  -0.534   0.013  0.00  0.00    +0.070 C 
ATOM     13  C   LIG    1        0.002  -0.004   0.002  0.00  0.00    +0.220 C 
ENDBRANCH  11  13
ENDBRANCH   9  11
ENDBRANCH   1   9
TORSDOF 3
