REMARK  Name = ZINCvU0000000IHj.0
REMARK                            x       y       z     vdW  Elec       q    Type
REMARK                         _______ _______ _______ _____ _____    ______ ____
ROOT
ATOM      1  C   LIG    1       -3.450  -1.544  -0.701  0.00  0.00    -0.150 A 
ATOM      2  C   LIG    1       -3.448  -2.939  -0.757  0.00  0.00    +0.110 A 
ATOM      3  C   LIG    1       -4.626  -3.635  -0.581  0.00  0.00    +0.010 A 
ATOM      4  C   LIG    1       -5.810  -2.953  -0.360  0.00  0.00    +0.160 A 
ATOM      5  C   LIG    1       -5.819  -1.570  -0.308  0.00  0.00    -0.690 A 
ATOM      6  C   LIG    1       -4.648  -0.862  -0.478  0.00  0.00    +0.210 A 
ENDROOT
BRANCH   1   9
ATOM      7  N   LIG    1       -1.036  -1.453  -1.099  0.00  0.00    -0.620 N 
ATOM      8  H   LIG    1       -1.032  -2.423  -1.134  0.00  0.00    +0.420 HD
ATOM      9  C   LIG    1       -2.191  -0.792  -0.883  0.00  0.00    +0.560 C 
ATOM     10  O   LIG    1       -2.196   0.422  -0.839  0.00  0.00    -0.480 OA
BRANCH   7  15
ATOM     11  C   LIG    1        4.107  -2.247  -1.983  0.00  0.00    +0.100 C 
ATOM     12  C   LIG    1        3.705  -0.800  -1.864  0.00  0.00    -0.040 A 
ATOM     13  C   LIG    1        2.355  -0.465  -1.627  0.00  0.00    +0.100 A 
ATOM     14  N   LIG    1        1.296  -1.285  -1.480  0.00  0.00    -0.500 NA
ATOM     15  C   LIG    1        0.143  -0.749  -1.269  0.00  0.00    +0.310 A 
ATOM     16  S   LIG    1        0.281   1.003  -1.229  0.00  0.00    +0.180 S 
ATOM     17  C   LIG    1        2.014   0.887  -1.521  0.00  0.00    -0.210 A 
ATOM     18  C   LIG    1        2.991   1.872  -1.648  0.00  0.00    +0.060 A 
ATOM     19  C   LIG    1        4.303   1.521  -1.879  0.00  0.00    +0.040 A 
ATOM     20  C   LIG    1        4.654   0.183  -1.986  0.00  0.00    +0.030 A 
ENDBRANCH   7  15
ENDBRANCH   1   9
BRANCH   5  21
ATOM     21  S   LIG    1       -7.332  -0.712  -0.026  0.00  0.00    +2.680 S 
ATOM     22  O   LIG    1       -6.980   0.555   0.513  0.00  0.00    -0.930 OA
ATOM     23  O   LIG    1       -8.195  -1.626   0.636  0.00  0.00    -0.940 OA
BRANCH  21  24
ATOM     24  N   LIG    1       -8.012  -0.417  -1.507  0.00  0.00    -0.950 N 
ATOM     25  C   LIG    1       -8.831  -1.445  -2.155  0.00  0.00    +0.320 C 
BRANCH  24  26
ATOM     26  C   LIG    1       -7.805   0.811  -2.139  0.00  0.00    +0.140 A 
ATOM     27  C   LIG    1       -8.221   1.987  -1.528  0.00  0.00    +0.040 A 
ATOM     28  C   LIG    1       -8.010   3.201  -2.153  0.00  0.00    +0.050 A 
ATOM     29  C   LIG    1       -7.395   3.246  -3.390  0.00  0.00    +0.040 A 
ATOM     30  C   LIG    1       -6.984   2.076  -4.005  0.00  0.00    -0.030 A 
ATOM     31 CL   LIG    1       -6.211   2.138  -5.558  0.00  0.00    -0.060 Cl
ATOM     32  C   LIG    1       -7.187   0.859  -3.382  0.00  0.00    +0.030 A 
ENDBRANCH  24  26
ENDBRANCH  21  24
ENDBRANCH   5  21
TORSDOF 5
