REMARK  Name = ZINCnE000001Q2dt.0
REMARK                            x       y       z     vdW  Elec       q    Type
REMARK                         _______ _______ _______ _____ _____    ______ ____
ROOT
ATOM      1  C   LIG    1        2.075   0.695  -0.014  0.00  0.00    +0.110 A 
ATOM      2  N   LIG    1        1.352  -0.386  -0.013  0.00  0.00    -0.260 NA
ATOM      3  N   LIG    1        0.002  -0.004   0.002  0.00  0.00    -0.520 NA
ATOM      4  C   LIG    1       -0.017   1.367   0.010  0.00  0.00    +0.440 A 
ATOM      5  N   LIG    1       -1.077   2.129   0.019  0.00  0.00    -0.670 NA
ATOM      6  O   LIG    1        1.267   1.779  -0.001  0.00  0.00    -0.280 OA
ENDROOT
BRANCH   5   7
ATOM      7  C   LIG    1       -2.412   1.527   0.023  0.00  0.00    +0.180 C 
ATOM      8  C   LIG    1       -3.186   1.979  -1.221  0.00  0.00    +0.010 C 
ATOM      9  C   LIG    1       -4.469   1.155  -1.316  0.00  0.00    +0.060 C 
ATOM     10  C   LIG    1       -5.217   1.188  -0.009  0.00  0.00    -0.070 A 
ATOM     11  C   LIG    1       -6.557   0.823  -0.021  0.00  0.00    +0.000 A 
ATOM     12  C   LIG    1       -7.296   0.827   1.145  0.00  0.00    -0.010 A 
ATOM     13  C   LIG    1       -6.698   1.198   2.334  0.00  0.00    -0.010 A 
ATOM     14  C   LIG    1       -5.368   1.564   2.348  0.00  0.00    +0.000 A 
ATOM     15  C   LIG    1       -4.623   1.563   1.176  0.00  0.00    -0.060 A 
ATOM     16  C   LIG    1       -3.180   1.985   1.261  0.00  0.00    +0.070 C 
ENDBRANCH   5   7
BRANCH   1  22
ATOM     17  C   LIG    1        6.163   3.330  -0.038  0.00  0.00    +0.130 C 
ATOM     18  C   LIG    1        5.497   1.978  -0.039  0.00  0.00    +0.130 A 
ATOM     19  C   LIG    1        6.275   0.835  -0.053  0.00  0.00    -0.060 A 
ATOM     20  C   LIG    1        5.658  -0.409  -0.055  0.00  0.00    +0.070 A 
ATOM     21  C   LIG    1        4.275  -0.461  -0.036  0.00  0.00    -0.010 A 
ATOM     22  C   LIG    1        3.552   0.733  -0.028  0.00  0.00    +0.250 A 
ATOM     23  N   LIG    1        4.182   1.902  -0.027  0.00  0.00    -0.470 NA
ENDBRANCH   1  22
TORSDOF 2
