REMARK  Name = ZINCrD00000F5Lym.0
REMARK                            x       y       z     vdW  Elec       q    Type
REMARK                         _______ _______ _______ _____ _____    ______ ____
ROOT
ATOM      1  C   LIG    1       -0.964   5.641   1.680  0.00  0.00    -0.110 A 
ATOM      2  C   LIG    1       -0.204   5.132   0.617  0.00  0.00    +0.050 A 
ATOM      3  C   LIG    1       -0.064   3.771   0.462  0.00  0.00    -0.040 A 
ATOM      4  C   LIG    1       -0.672   2.900   1.357  0.00  0.00    +0.140 A 
ATOM      5  C   LIG    1       -1.435   3.397   2.414  0.00  0.00    +0.100 A 
ATOM      6  C   LIG    1       -1.577   4.759   2.582  0.00  0.00    +0.020 A 
ENDROOT
BRANCH   1   8
ATOM      7  C   LIG    1       -1.083   7.916   0.746  0.00  0.00    -0.110 C 
ATOM      8  C   LIG    1       -1.116   7.087   1.848  0.00  0.00    +0.260 C 
BRANCH   7   9
ATOM      9  C   LIG    1       -1.086   9.375   0.924  0.00  0.00    +0.520 C 
ATOM     10  O   LIG    1       -1.117   9.851   2.042  0.00  0.00    -0.500 OA
BRANCH   9  11
ATOM     11  O   LIG    1       -1.054  10.185  -0.153  0.00  0.00    -0.340 OA
BRANCH  11  12
ATOM     12  C   LIG    1       -1.059  11.616   0.098  0.00  0.00    +0.240 C 
BRANCH  12  13
ATOM     13  C   LIG    1       -1.019  12.367  -1.234  0.00  0.00    +0.200 C 
BRANCH  13  15
ATOM     14  C   LIG    1       -2.286  12.766  -3.229  0.00  0.00    +0.200 C 
ATOM     15  O   LIG    1       -2.221  12.107  -1.963  0.00  0.00    -0.390 OA
ENDBRANCH  13  15
ENDBRANCH  12  13
ENDBRANCH  11  12
ENDBRANCH   9  11
ENDBRANCH   7   9
BRANCH   7  16
ATOM     16  C   LIG    1       -1.047   7.355  -0.571  0.00  0.00    +0.260 C 
ATOM     17  N   LIG    1       -1.018   6.911  -1.616  0.00  0.00    -0.400 NA
ENDBRANCH   7  16
ENDBRANCH   1   8
BRANCH   4  18
ATOM     18  O   LIG    1       -0.530   1.559   1.198  0.00  0.00    -0.300 OA
ATOM     19  C   LIG    1        0.259   1.117   0.091  0.00  0.00    +0.250 C 
ENDBRANCH   4  18
BRANCH   5  20
ATOM     20  O   LIG    1       -2.034   2.539   3.283  0.00  0.00    -0.290 OA
BRANCH  20  21
ATOM     21  C   LIG    1       -2.799   3.118   4.343  0.00  0.00    +0.240 C 
BRANCH  21  22
ATOM     22  C   LIG    1       -3.382   2.022   5.197  0.00  0.00    -0.100 A 
ATOM     23  C   LIG    1       -4.627   1.501   4.899  0.00  0.00    +0.030 A 
ATOM     24  C   LIG    1       -5.160   0.493   5.681  0.00  0.00    +0.010 A 
ATOM     25  C   LIG    1       -4.452   0.012   6.766  0.00  0.00    +0.010 A 
ATOM     26  C   LIG    1       -3.208   0.536   7.067  0.00  0.00    +0.010 A 
ATOM     27  C   LIG    1       -2.673   1.541   6.283  0.00  0.00    +0.030 A 
ENDBRANCH  21  22
ENDBRANCH  20  21
ENDBRANCH   5  20
TORSDOF 11
