REMARK  Name = ZINCrD000003RZm5.0
REMARK                            x       y       z     vdW  Elec       q    Type
REMARK                         _______ _______ _______ _____ _____    ______ ____
ROOT
ATOM      1  C   LIG    1        0.939   4.144   0.408  0.00  0.00    +0.280 C 
ENDROOT
BRANCH   1   3
ATOM      2  C   LIG    1       -0.757   2.465   0.901  0.00  0.00    +0.530 C 
ATOM      3  N   LIG    1        0.522   2.751   0.586  0.00  0.00    -0.710 N 
ATOM      4  H   LIG    1        1.166   2.034   0.477  0.00  0.00    +0.400 HD
ATOM      5  O   LIG    1       -1.564   3.361   1.032  0.00  0.00    -0.520 OA
BRANCH   2   6
ATOM      6  C   LIG    1       -1.187   1.032   1.084  0.00  0.00    +0.080 C 
BRANCH   6   7
ATOM      7  S   LIG    1       -2.952   0.978   1.498  0.00  0.00    -0.030 S 
BRANCH   7  12
ATOM      8  C   LIG    1       -4.027  -4.932   2.089  0.00  0.00    +0.090 C 
ATOM      9  C   LIG    1       -3.758  -3.457   1.942  0.00  0.00    -0.090 A 
ATOM     10  C   LIG    1       -4.783  -2.547   2.129  0.00  0.00    +0.030 A 
ATOM     11  C   LIG    1       -4.541  -1.194   1.994  0.00  0.00    +0.040 A 
ATOM     12  C   LIG    1       -3.265  -0.747   1.671  0.00  0.00    -0.110 A 
ATOM     13  C   LIG    1       -2.239  -1.664   1.479  0.00  0.00    -0.010 A 
ATOM     14  C   LIG    1       -2.488  -3.015   1.620  0.00  0.00    +0.020 A 
ENDBRANCH   7  12
ENDBRANCH   6   7
ENDBRANCH   2   6
ENDBRANCH   1   3
BRANCH   1  15
ATOM     15  C   LIG    1        2.428   4.190   0.059  0.00  0.00    +0.050 C 
BRANCH  15  16
ATOM     16  C   LIG    1        2.830   5.628  -0.271  0.00  0.00    +0.260 C 
ATOM     17  C   LIG    1        4.353   5.711  -0.424  0.00  0.00    +0.110 C 
ATOM     18  S   LIG    1        4.804   7.410  -0.882  0.00  0.00    -0.240 S 
ATOM     19  C   LIG    1        3.784   7.697  -2.359  0.00  0.00    +0.110 C 
ATOM     20  C   LIG    1        2.319   7.414  -2.010  0.00  0.00    +0.310 C 
ATOM     21  N   LIG    1        2.191   6.040  -1.521  0.00  0.00    -0.600 N 
ATOM     22  C   LIG    1        1.475   5.145  -2.230  0.00  0.00    +0.530 C 
ATOM     23  O   LIG    1        1.306   4.024  -1.797  0.00  0.00    -0.470 OA
BRANCH  22  24
ATOM     24  C   LIG    1        0.885   5.535  -3.561  0.00  0.00    +0.070 C 
ATOM     25  S   LIG    1       -0.214   6.983  -3.368  0.00  0.00    -0.200 S 
ATOM     26  C   LIG    1       -1.520   6.535  -4.567  0.00  0.00    +0.140 C 
ATOM     27  C   LIG    1       -1.803   5.038  -4.308  0.00  0.00    +0.140 C 
ATOM     28  S   LIG    1       -0.189   4.203  -4.193  0.00  0.00    -0.170 S 
ENDBRANCH  22  24
ENDBRANCH  15  16
ENDBRANCH   1  15
TORSDOF 7
