REMARK  Name = ZINCrH000004mR3k.0
REMARK                            x       y       z     vdW  Elec       q    Type
REMARK                         _______ _______ _______ _____ _____    ______ ____
ROOT
ATOM      1  C   LIG    1       -2.458   0.853  -0.533  0.00  0.00    +0.040 A 
ATOM      2  C   LIG    1       -3.700   1.364  -0.225  0.00  0.00    -0.020 A 
ATOM      3  C   LIG    1       -4.663   0.464  -0.711  0.00  0.00    +0.150 A 
ATOM      4  N   LIG    1       -4.038  -0.546  -1.286  0.00  0.00    -0.230 NA
ATOM      5  N   LIG    1       -2.658  -0.330  -1.196  0.00  0.00    -0.280 N 
ENDROOT
BRANCH   5   6
ATOM      6  C   LIG    1       -1.658  -1.173  -1.694  0.00  0.00    +0.130 A 
ATOM      7  C   LIG    1       -0.640  -0.655  -2.484  0.00  0.00    +0.050 A 
ATOM      8  C   LIG    1        0.348  -1.489  -2.969  0.00  0.00    +0.020 A 
ATOM      9  C   LIG    1        0.319  -2.840  -2.677  0.00  0.00    +0.030 A 
ATOM     10  C   LIG    1       -0.696  -3.360  -1.895  0.00  0.00    +0.020 A 
ATOM     11  C   LIG    1       -1.684  -2.531  -1.403  0.00  0.00    +0.030 A 
ENDBRANCH   5   6
BRANCH   3  12
ATOM     12  C   LIG    1       -6.129   0.621  -0.596  0.00  0.00    +0.040 A 
ATOM     13  C   LIG    1       -7.063  -0.245  -1.069  0.00  0.00    +0.000 A 
ATOM     14  C   LIG    1       -8.322   0.295  -0.739  0.00  0.00    -0.060 A 
ATOM     15  C   LIG    1       -8.097   1.457  -0.095  0.00  0.00    +0.190 A 
ATOM     16  O   LIG    1       -6.770   1.650  -0.011  0.00  0.00    -0.170 OA
ENDBRANCH   3  12
BRANCH   1  19
ATOM     17  N   LIG    1       -1.112   2.696   0.335  0.00  0.00    -0.650 N 
ATOM     18  H   LIG    1       -1.934   3.174   0.527  0.00  0.00    +0.420 HD
ATOM     19  C   LIG    1       -1.160   1.466  -0.215  0.00  0.00    +0.580 C 
ATOM     20  O   LIG    1       -0.129   0.864  -0.449  0.00  0.00    -0.500 OA
BRANCH  17  24
ATOM     21  C   LIG    1        2.560   4.347   1.232  0.00  0.00    +0.310 A 
ATOM     22  C   LIG    1        1.540   5.194   0.820  0.00  0.00    -0.020 A 
ATOM     23  C   LIG    1        0.301   4.659   0.514  0.00  0.00    +0.090 A 
ATOM     24  C   LIG    1        0.125   3.282   0.633  0.00  0.00    +0.050 A 
ATOM     25  C   LIG    1        1.189   2.499   1.057  0.00  0.00    +0.320 A 
ATOM     26  N   LIG    1        2.358   3.044   1.334  0.00  0.00    -0.520 NA
BRANCH  21  28
ATOM     27  C   LIG    1        4.787   3.941   1.953  0.00  0.00    +0.260 C 
ATOM     28  O   LIG    1        3.779   4.862   1.534  0.00  0.00    -0.310 OA
ENDBRANCH  21  28
ENDBRANCH  17  24
ENDBRANCH   1  19
TORSDOF 5
