REMARK  Name = ZINCpk00000k0ruA.1
REMARK                            x       y       z     vdW  Elec       q    Type
REMARK                         _______ _______ _______ _____ _____    ______ ____
ROOT
ATOM      1  N   LIG    1        0.231  -2.510  -2.172  0.00  0.00    -0.720 N 
ATOM      2  H   LIG    1        0.801  -1.787  -2.478  0.00  0.00    +0.400 HD
ATOM      3  C   LIG    1       -0.384  -3.309  -3.066  0.00  0.00    +0.590 C 
ATOM      4  O   LIG    1       -1.099  -4.216  -2.682  0.00  0.00    -0.490 OA
ENDROOT
BRANCH   1   8
ATOM      5  C   LIG    1       -2.451  -0.035   0.325  0.00  0.00    +0.310 C 
ATOM      6  N   LIG    1       -1.197  -0.721   0.005  0.00  0.00    -0.550 N 
ATOM      7  C   LIG    1       -1.213  -2.034  -0.283  0.00  0.00    +0.500 C 
ATOM      8  C   LIG    1        0.041  -2.734  -0.737  0.00  0.00    +0.270 C 
ATOM      9  C   LIG    1        1.245  -2.184   0.028  0.00  0.00    +0.110 C 
ATOM     10  C   LIG    1        1.216  -0.678   0.006  0.00  0.00    -0.140 A 
ATOM     11  C   LIG    1        2.400   0.034  -0.005  0.00  0.00    +0.050 A 
ATOM     12  C   LIG    1        2.377   1.417  -0.009  0.00  0.00    -0.010 A 
ATOM     13  C   LIG    1        1.170   2.091   0.002  0.00  0.00    +0.050 A 
ATOM     14  C   LIG    1       -0.017   1.384   0.010  0.00  0.00    -0.020 A 
ATOM     15  O   LIG    1       -2.246  -2.661  -0.176  0.00  0.00    -0.490 OA
ATOM     16  C   LIG    1        0.002  -0.004   0.002  0.00  0.00    +0.170 A 
ENDBRANCH   1   8
BRANCH   3  17
ATOM     17  C   LIG    1       -0.193  -3.085  -4.501  0.00  0.00    -0.030 A 
ATOM     18  C   LIG    1       -0.755  -3.826  -5.549  0.00  0.00    -0.120 A 
ATOM     19  C   LIG    1       -1.610  -4.931  -5.664  0.00  0.00    +0.120 A 
ATOM     20  C   LIG    1       -1.951  -5.390  -6.897  0.00  0.00    -0.030 A 
ATOM     21  C   LIG    1       -1.467  -4.784  -8.063  0.00  0.00    +0.240 A 
ATOM     22  C   LIG    1       -0.638  -3.701  -8.017  0.00  0.00    -0.060 A 
ATOM     23  C   LIG    1       -0.244  -3.181  -6.768  0.00  0.00    +0.100 A 
ATOM     24  N   LIG    1        0.529  -2.189  -6.364  0.00  0.00    -0.280 NA
ATOM     25  N   LIG    1        0.570  -2.119  -5.082  0.00  0.00    -0.330 N 
ATOM     26  H   LIG    1        1.082  -1.459  -4.589  0.00  0.00    +0.440 HD
BRANCH  21  27
ATOM     27  N   LIG    1       -1.849  -5.296  -9.306  0.00  0.00    -0.870 N 
ATOM     28  H   LIG    1       -1.521  -4.886 -10.121  0.00  0.00    +0.400 HD
ATOM     29  H   LIG    1       -2.442  -6.062  -9.353  0.00  0.00    +0.400 HD
ENDBRANCH  21  27
ENDBRANCH   3  17
TORSDOF 3
