REMARK  Name = ZINCpk00000k0ruA.0
REMARK                            x       y       z     vdW  Elec       q    Type
REMARK                         _______ _______ _______ _____ _____    ______ ____
ROOT
ATOM      1  N   LIG    1       -2.439   1.631   0.024  0.00  0.00    -0.710 N 
ATOM      2  H   LIG    1       -2.541   0.666   0.019  0.00  0.00    +0.410 HD
ATOM      3  C   LIG    1       -1.208   2.178   0.020  0.00  0.00    +0.610 C 
ATOM      4  O   LIG    1       -1.080   3.388   0.025  0.00  0.00    -0.510 OA
ENDROOT
BRANCH   1   8
ATOM      5  C   LIG    1       -4.851   2.397   3.655  0.00  0.00    +0.310 C 
ATOM      6  N   LIG    1       -4.651   2.053   2.245  0.00  0.00    -0.550 N 
ATOM      7  C   LIG    1       -3.949   2.880   1.453  0.00  0.00    +0.510 C 
ATOM      8  C   LIG    1       -3.624   2.493   0.034  0.00  0.00    +0.270 C 
ATOM      9  C   LIG    1       -4.805   1.741  -0.580  0.00  0.00    +0.110 C 
ATOM     10  C   LIG    1       -5.270   0.666   0.369  0.00  0.00    -0.130 A 
ATOM     11  C   LIG    1       -5.790  -0.514  -0.127  0.00  0.00    +0.050 A 
ATOM     12  C   LIG    1       -6.254  -1.485   0.742  0.00  0.00    -0.010 A 
ATOM     13  C   LIG    1       -6.202  -1.277   2.107  0.00  0.00    +0.050 A 
ATOM     14  C   LIG    1       -5.676  -0.102   2.609  0.00  0.00    -0.020 A 
ATOM     15  O   LIG    1       -3.572   3.950   1.884  0.00  0.00    -0.500 OA
ATOM     16  C   LIG    1       -5.192   0.867   1.740  0.00  0.00    +0.170 A 
ENDBRANCH   1   8
BRANCH   3  17
ATOM     17  C   LIG    1       -0.016   1.311   0.009  0.00  0.00    +0.010 A 
ATOM     18  N   LIG    1        0.002  -0.004   0.002  0.00  0.00    -0.220 NA
ATOM     19  N   LIG    1        1.199  -0.469  -0.012  0.00  0.00    -0.420 N 
ATOM     20  H   LIG    1        1.420  -1.413  -0.019  0.00  0.00    +0.450 HD
ATOM     21  C   LIG    1        2.124   0.543  -0.015  0.00  0.00    +0.120 A 
ATOM     22  C   LIG    1        3.513   0.595  -0.029  0.00  0.00    -0.090 A 
ATOM     23  C   LIG    1        4.151   1.823  -0.029  0.00  0.00    +0.250 A 
ATOM     24  C   LIG    1        3.412   3.007  -0.015  0.00  0.00    -0.070 A 
ATOM     25  C   LIG    1        2.047   2.971  -0.002  0.00  0.00    +0.140 A 
ATOM     26  C   LIG    1        1.388   1.744  -0.002  0.00  0.00    -0.160 A 
BRANCH  23  27
ATOM     27  N   LIG    1        5.547   1.879  -0.042  0.00  0.00    -0.870 N 
ATOM     28  H   LIG    1        6.064   1.058  -0.051  0.00  0.00    +0.400 HD
ATOM     29  H   LIG    1        5.998   2.737  -0.042  0.00  0.00    +0.400 HD
ENDBRANCH  23  27
ENDBRANCH   3  17
TORSDOF 3
