REMARK  Name = ZINCqH0000035EUw.0
REMARK                            x       y       z     vdW  Elec       q    Type
REMARK                         _______ _______ _______ _____ _____    ______ ____
ROOT
ATOM      1  C   LIG    1        2.453   1.438  -0.013  0.00  0.00    +0.370 C 
ATOM      2  C   LIG    1        2.678   0.575   1.230  0.00  0.00    +0.060 C 
ENDROOT
BRANCH   1   6
ATOM      3  C   LIG    1        1.733  -1.876  -3.684  0.00  0.00    +0.150 A 
ATOM      4  C   LIG    1        2.241  -0.894  -2.836  0.00  0.00    +0.030 A 
ATOM      5  O   LIG    1        1.778  -0.311  -1.711  0.00  0.00    -0.150 OA
ATOM      6  C   LIG    1        2.652   0.601  -1.250  0.00  0.00    +0.020 A 
ATOM      7  C   LIG    1        3.723   0.661  -2.053  0.00  0.00    -0.160 A 
ATOM      8  C   LIG    1        4.925   1.556  -1.893  0.00  0.00    +0.120 C 
ATOM      9  C   LIG    1        3.491  -0.323  -3.118  0.00  0.00    -0.090 A 
ATOM     10  C   LIG    1        4.215  -0.736  -4.236  0.00  0.00    +0.020 A 
ATOM     11  C   LIG    1        3.697  -1.708  -5.064  0.00  0.00    -0.060 A 
ATOM     12  C   LIG    1        4.476  -2.156  -6.273  0.00  0.00    +0.100 C 
ATOM     13  C   LIG    1        2.462  -2.276  -4.789  0.00  0.00    -0.050 A 
BRANCH   3  15
ATOM     14  C   LIG    1        0.066  -3.441  -4.337  0.00  0.00    +0.250 C 
ATOM     15  O   LIG    1        0.524  -2.441  -3.425  0.00  0.00    -0.310 OA
ENDBRANCH   3  15
ENDBRANCH   1   6
BRANCH   1  16
ATOM     16  N   LIG    1        1.087   1.970   0.002  0.00  0.00    -0.580 N 
ATOM     17  C   LIG    1       -0.014   1.211   0.009  0.00  0.00    +0.700 C 
ATOM     18  N   LIG    1       -1.143   1.944   0.018  0.00  0.00    -0.730 N 
ATOM     19  H   LIG    1       -2.052   1.607   0.019  0.00  0.00    +0.440 HD
ATOM     20  C   LIG    1       -0.727   3.357   0.027  0.00  0.00    +0.230 C 
ATOM     21  O   LIG    1        0.002  -0.004   0.002  0.00  0.00    -0.510 OA
ATOM     22  C   LIG    1        0.787   3.284   0.012  0.00  0.00    +0.530 C 
ATOM     23  O   LIG    1        1.565   4.213   0.010  0.00  0.00    -0.460 OA
BRANCH  20  24
ATOM     24  C   LIG    1       -1.244   4.073  -1.222  0.00  0.00    +0.080 C 
BRANCH  24  25
ATOM     25  C   LIG    1       -2.761   4.243  -1.122  0.00  0.00    +0.080 C 
BRANCH  25  26
ATOM     26  S   LIG    1       -3.373   5.092  -2.604  0.00  0.00    -0.250 S 
ATOM     27  C   LIG    1       -5.159   5.199  -2.304  0.00  0.00    +0.140 C 
ENDBRANCH  25  26
ENDBRANCH  24  25
ENDBRANCH  20  24
ENDBRANCH   1  16
TORSDOF 6
