REMARK  Name = ZINCvU00000008HP.0
REMARK                            x       y       z     vdW  Elec       q    Type
REMARK                         _______ _______ _______ _____ _____    ______ ____
ROOT
ATOM      1  C   LIG    1        4.043   7.435   2.324  0.00  0.00    +0.150 A 
ATOM      2  N   LIG    1        4.930   6.601   1.829  0.00  0.00    -0.290 NA
ATOM      3  N   LIG    1        6.105   7.119   1.889  0.00  0.00    -0.240 NA
ATOM      4  C   LIG    1        6.040   8.315   2.427  0.00  0.00    +0.220 A 
ATOM      5  N   LIG    1        4.717   8.556   2.718  0.00  0.00    -0.440 N 
ENDROOT
BRANCH   4   6
ATOM      6  C   LIG    1        7.174   9.232   2.670  0.00  0.00    +0.010 A 
ATOM      7  C   LIG    1        7.095  10.566   2.268  0.00  0.00    +0.030 A 
ATOM      8  C   LIG    1        8.157  11.416   2.498  0.00  0.00    +0.040 A 
ATOM      9  C   LIG    1        9.299  10.950   3.123  0.00  0.00    +0.040 A 
ATOM     10  C   LIG    1        9.385   9.628   3.523  0.00  0.00    +0.050 A 
ATOM     11  C   LIG    1        8.328   8.768   3.306  0.00  0.00    -0.060 A 
ATOM     12 BR   LIG    1        8.444   6.964   3.861  0.00  0.00    -0.020 Br
ENDBRANCH   4   6
BRANCH   1  13
ATOM     13  S   LIG    1        2.307   7.161   2.450  0.00  0.00    +0.080 S 
BRANCH  13  14
ATOM     14  C   LIG    1        2.198   5.503   1.733  0.00  0.00    +0.110 C 
BRANCH  14  17
ATOM     15  N   LIG    1        0.437   3.835   1.246  0.00  0.00    -0.710 N 
ATOM     16  H   LIG    1        1.129   3.255   0.891  0.00  0.00    +0.400 HD
ATOM     17  C   LIG    1        0.761   5.048   1.736  0.00  0.00    +0.530 C 
ATOM     18  O   LIG    1       -0.104   5.773   2.180  0.00  0.00    -0.520 OA
BRANCH  15  25
ATOM     19  C   LIG    1       -0.303   1.332   2.502  0.00  0.00    +0.030 C 
ATOM     20  C   LIG    1       -1.010   1.863   1.253  0.00  0.00    -0.010 C 
ATOM     21  C   LIG    1       -0.308   1.327   0.003  0.00  0.00    +0.010 C 
ATOM     22  C   LIG    1       -1.014   1.858  -1.246  0.00  0.00    +0.000 C 
ATOM     23  C   LIG    1       -0.964   3.387  -1.249  0.00  0.00    +0.000 C 
ATOM     24  C   LIG    1       -1.666   3.923   0.001  0.00  0.00    +0.010 C 
ATOM     25  C   LIG    1       -0.959   3.392   1.250  0.00  0.00    +0.240 C 
ENDBRANCH  15  25
ENDBRANCH  14  17
ENDBRANCH  13  14
ENDBRANCH   1  13
BRANCH   5  26
ATOM     26  C   LIG    1        4.150   9.762   3.325  0.00  0.00    +0.360 C 
BRANCH  26  27
ATOM     27  C   LIG    1        4.245   9.662   4.825  0.00  0.00    -0.120 A 
ATOM     28  C   LIG    1        3.260   9.004   5.538  0.00  0.00    +0.040 A 
ATOM     29  C   LIG    1        3.350   8.908   6.914  0.00  0.00    +0.010 A 
ATOM     30  C   LIG    1        4.419   9.479   7.578  0.00  0.00    +0.030 A 
ATOM     31  C   LIG    1        5.401  10.142   6.866  0.00  0.00    +0.010 A 
ATOM     32  C   LIG    1        5.314  10.234   5.490  0.00  0.00    +0.030 A 
ENDBRANCH  26  27
ENDBRANCH   5  26
TORSDOF 7
