REMARK  Name = ZINCrD00000F5Lov.0
REMARK                            x       y       z     vdW  Elec       q    Type
REMARK                         _______ _______ _______ _____ _____    ______ ____
ROOT
ATOM      1  C   LIG    1        0.488   0.787  -0.154  0.00  0.00    +0.550 C 
ATOM      2  N   LIG    1       -0.572   1.606  -0.304  0.00  0.00    -0.600 N 
ATOM      3  O   LIG    1        0.317  -0.375   0.162  0.00  0.00    -0.520 OA
ENDROOT
BRANCH   1   5
ATOM      4  C   LIG    1        2.899   0.517  -0.134  0.00  0.00    +0.160 C 
ATOM      5  C   LIG    1        1.849   1.296  -0.379  0.00  0.00    -0.100 C 
ENDBRANCH   1   5
BRANCH   2   6
ATOM      6  C   LIG    1       -1.921   1.121  -0.005  0.00  0.00    +0.320 C 
ATOM      7  C   LIG    1       -1.960   0.569   1.421  0.00  0.00    +0.040 C 
BRANCH   6   8
ATOM      8  C   LIG    1       -2.290   0.030  -0.976  0.00  0.00    -0.250 A 
ATOM      9  C   LIG    1       -1.425  -0.702  -1.717  0.00  0.00    +0.260 A 
ATOM     10  N   LIG    1       -2.149  -1.570  -2.455  0.00  0.00    -0.380 N 
ATOM     11  N   LIG    1       -3.502  -1.365  -2.158  0.00  0.00    -0.300 NA
ATOM     12  C   LIG    1       -1.613  -2.554  -3.399  0.00  0.00    +0.350 C 
ATOM     13  C   LIG    1       -3.585  -0.410  -1.267  0.00  0.00    +0.080 A 
ATOM     14  C   LIG    1       -4.857   0.126  -0.662  0.00  0.00    +0.150 C 
ENDBRANCH   6   8
ENDBRANCH   2   6
BRANCH   2  15
ATOM     15  C   LIG    1       -0.373   2.982  -0.767  0.00  0.00    +0.380 C 
BRANCH  15  16
ATOM     16  C   LIG    1       -0.321   3.003  -2.273  0.00  0.00    +0.060 A 
ATOM     17  C   LIG    1       -0.924   2.122  -3.105  0.00  0.00    -0.080 A 
ATOM     18  C   LIG    1       -0.626   2.498  -4.419  0.00  0.00    +0.250 A 
ATOM     19  N   LIG    1        0.128   3.567  -4.379  0.00  0.00    -0.280 NA
ATOM     20  N   LIG    1        0.331   3.909  -3.035  0.00  0.00    -0.320 N 
BRANCH  20  21
ATOM     21  C   LIG    1        1.081   4.997  -2.565  0.00  0.00    +0.140 A 
ATOM     22  C   LIG    1        0.652   5.707  -1.452  0.00  0.00    +0.030 A 
ATOM     23  C   LIG    1        1.393   6.776  -0.987  0.00  0.00    +0.020 A 
ATOM     24  C   LIG    1        2.558   7.146  -1.638  0.00  0.00    +0.100 A 
ATOM     25  C   LIG    1        2.985   6.442  -2.751  0.00  0.00    +0.020 A 
ATOM     26  F   LIG    1        3.280   8.195  -1.185  0.00  0.00    -0.130 F 
ATOM     27  C   LIG    1        2.249   5.370  -3.216  0.00  0.00    +0.060 A 
ENDBRANCH  20  21
ENDBRANCH  15  16
ENDBRANCH   2  15
TORSDOF 6
