REMARK  Name = ZINCpk00000ebjfF.0
REMARK                            x       y       z     vdW  Elec       q    Type
REMARK                         _______ _______ _______ _____ _____    ______ ____
ROOT
ATOM      1  C   LIG    1        1.054  -0.144  -0.569  0.00  0.00    +0.310 C 
ATOM      2  N   LIG    1        1.232  -1.535  -0.172  0.00  0.00    -0.720 N 
ATOM      3  H   LIG    1        1.939  -2.043  -0.600  0.00  0.00    +0.410 HD
ATOM      4  C   LIG    1        0.484  -2.153   0.743  0.00  0.00    +0.520 C 
ATOM      5  C   LIG    1       -0.672  -1.502   1.446  0.00  0.00    +0.080 C 
ATOM      6  C   LIG    1       -0.581   0.019   1.300  0.00  0.00    +0.030 C 
ATOM      7  O   LIG    1        0.751  -3.303   1.022  0.00  0.00    -0.540 OA
ATOM      8  C   LIG    1       -0.339   0.350  -0.177  0.00  0.00    +0.230 C 
ENDROOT
BRANCH   1  14
ATOM      9  C   LIG    1       -0.684  -1.505  -2.745  0.00  0.00    +0.350 C 
ATOM     10  N   LIG    1        0.459  -0.625  -2.998  0.00  0.00    -0.350 N 
ATOM     11  N   LIG    1        0.950  -0.254  -4.257  0.00  0.00    -0.280 NA
ATOM     12  C   LIG    1        1.979   0.534  -4.078  0.00  0.00    +0.240 A 
ATOM     13  C   LIG    1        2.173   0.694  -2.702  0.00  0.00    -0.100 A 
ATOM     14  C   LIG    1        1.224  -0.026  -2.062  0.00  0.00    +0.050 A 
ENDBRANCH   1  14
BRANCH   8  15
ATOM     15  N   LIG    1       -0.420   1.799  -0.376  0.00  0.00    -0.710 N 
ATOM     16  H   LIG    1        0.388   2.337  -0.364  0.00  0.00    +0.410 HD
ATOM     17  C   LIG    1       -1.616   2.386  -0.581  0.00  0.00    +0.570 C 
ATOM     18  O   LIG    1       -2.627   1.712  -0.601  0.00  0.00    -0.520 OA
BRANCH  17  19
ATOM     19  C   LIG    1       -1.698   3.851  -0.781  0.00  0.00    -0.090 A 
ATOM     20  C   LIG    1       -0.547   4.644  -0.762  0.00  0.00    -0.010 A 
ATOM     21  C   LIG    1       -0.670   6.007  -0.954  0.00  0.00    +0.280 A 
ATOM     22  N   LIG    1       -1.850   6.559  -1.153  0.00  0.00    -0.460 NA
ATOM     23  C   LIG    1       -2.959   5.848  -1.179  0.00  0.00    +0.160 A 
ATOM     24  C   LIG    1       -2.928   4.479  -1.001  0.00  0.00    +0.040 A 
BRANCH  23  25
ATOM     25  C   LIG    1       -4.279   6.538  -1.411  0.00  0.00    +0.020 C 
ATOM     26  C   LIG    1       -5.471   5.666  -1.810  0.00  0.00    +0.040 C 
ATOM     27  C   LIG    1       -4.811   6.580  -2.845  0.00  0.00    +0.040 C 
ENDBRANCH  23  25
ENDBRANCH  17  19
ENDBRANCH   8  15
TORSDOF 4
