REMARK  Name = ZINCkj000005fWB7.0
REMARK                            x       y       z     vdW  Elec       q    Type
REMARK                         _______ _______ _______ _____ _____    ______ ____
ROOT
ATOM      1  C   LIG    1        1.637   2.595  -5.472  0.00  0.00    -0.010 C 
ATOM      2  C   LIG    1        1.843   3.195  -4.079  0.00  0.00    +0.020 C 
ATOM      3  C   LIG    1        3.214   2.772  -3.543  0.00  0.00    +0.300 C 
ATOM      4  N   LIG    1        3.308   1.306  -3.589  0.00  0.00    -1.010 NA
ATOM      5  C   LIG    1        3.045   0.621  -4.862  0.00  0.00    +0.300 C 
ATOM      6  C   LIG    1        1.670   1.068  -5.382  0.00  0.00    +0.040 C 
ENDROOT
BRANCH   4   7
ATOM      7  S   LIG    1        3.710   0.444  -2.234  0.00  0.00    +2.790 S 
ATOM      8  O   LIG    1        4.247  -0.791  -2.688  0.00  0.00    -0.960 OA
ATOM      9  O   LIG    1        4.420   1.336  -1.386  0.00  0.00    -0.960 OA
BRANCH   7  10
ATOM     10  N   LIG    1        2.298   0.078  -1.449  0.00  0.00    -1.020 NA
ATOM     11  C   LIG    1        1.649   0.907  -0.417  0.00  0.00    +0.270 C 
ATOM     12  C   LIG    1        0.155   0.499  -0.462  0.00  0.00    +0.030 C 
ATOM     13  C   LIG    1        0.257  -1.025  -0.737  0.00  0.00    +0.030 C 
ATOM     14  C   LIG    1        1.485  -1.128  -1.665  0.00  0.00    +0.250 C 
ENDBRANCH   7  10
ENDBRANCH   4   7
BRANCH   1  15
ATOM     15  C   LIG    1        0.283   3.044  -6.026  0.00  0.00    +0.250 C 
BRANCH  15  16
ATOM     16  N   LIG    1        0.297   4.499  -6.233  0.00  0.00    -0.390 N 
ATOM     17  H   LIG    1        0.570   4.958  -5.378  0.00  0.00    +0.420 HD
BRANCH  16  19
ATOM     18  C   LIG    1        0.781   4.228  -8.619  0.00  0.00    +0.080 C 
ATOM     19  C   LIG    1        1.255   4.832  -7.296  0.00  0.00    +0.240 C 
ENDBRANCH  16  19
BRANCH  16  20
ATOM     20  C   LIG    1       -1.045   4.950  -6.625  0.00  0.00    +0.240 C 
ATOM     21  C   LIG    1       -1.061   6.477  -6.722  0.00  0.00    +0.080 C 
ENDBRANCH  16  20
ENDBRANCH  15  16
ENDBRANCH   1  15
TORSDOF 6
