REMARK  Name = ZINCrD00000hQ4Dz.0
REMARK                            x       y       z     vdW  Elec       q    Type
REMARK                         _______ _______ _______ _____ _____    ______ ____
ROOT
ATOM      1  C   LIG    1        5.782   4.736  -1.392  0.00  0.00    +0.030 C 
ATOM      2  C   LIG    1        4.994   5.573  -0.382  0.00  0.00    +0.010 C 
ATOM      3  C   LIG    1        4.831   4.807   0.958  0.00  0.00    +0.040 C 
ATOM      4  C   LIG    1        3.608   3.908   0.657  0.00  0.00    +0.240 C 
ATOM      5  N   LIG    1        2.724   4.737  -0.183  0.00  0.00    -0.610 N 
ATOM      6  C   LIG    1        1.392   4.582  -0.313  0.00  0.00    +0.540 C 
ATOM      7  O   LIG    1        0.762   5.329  -1.031  0.00  0.00    -0.520 OA
ATOM      8  C   LIG    1        3.537   5.765  -0.850  0.00  0.00    +0.270 C 
ENDROOT
BRANCH   8   9
ATOM      9  C   LIG    1        3.452   5.595  -2.345  0.00  0.00    -0.050 A 
ATOM     10  C   LIG    1        3.391   6.706  -3.165  0.00  0.00    +0.010 A 
ATOM     11  C   LIG    1        3.314   6.552  -4.537  0.00  0.00    +0.040 A 
ATOM     12  C   LIG    1        3.297   5.285  -5.090  0.00  0.00    -0.020 A 
ATOM     13  C   LIG    1        3.358   4.171  -4.270  0.00  0.00    +0.100 A 
ATOM     14  F   LIG    1        3.342   2.933  -4.809  0.00  0.00    -0.140 F 
ATOM     15  C   LIG    1        3.441   4.327  -2.897  0.00  0.00    -0.010 A 
ENDBRANCH   8   9
BRANCH   6  16
ATOM     16  C   LIG    1        0.685   3.479   0.433  0.00  0.00    +0.000 C 
ATOM     17  C   LIG    1        1.214   2.092   0.002  0.00  0.00    +0.080 C 
ATOM     18  C   LIG    1       -0.014   1.209   0.009  0.00  0.00    +0.520 C 
ATOM     19  N   LIG    1       -1.127   1.963   0.018  0.00  0.00    -0.620 N 
ATOM     20  O   LIG    1        0.002  -0.004   0.002  0.00  0.00    -0.510 OA
ATOM     21  C   LIG    1       -0.800   3.394   0.017  0.00  0.00    +0.310 C 
BRANCH  19  22
ATOM     22  C   LIG    1       -2.490   1.427   0.029  0.00  0.00    +0.430 C 
BRANCH  22  23
ATOM     23  C   LIG    1       -2.945   1.244   1.454  0.00  0.00    -0.040 A 
ATOM     24  C   LIG    1       -3.578   2.166   2.202  0.00  0.00    -0.040 A 
ATOM     25  C   LIG    1       -3.818   1.576   3.464  0.00  0.00    -0.070 A 
ATOM     26  C   LIG    1       -3.311   0.331   3.414  0.00  0.00    +0.170 A 
ATOM     27  O   LIG    1       -2.783   0.136   2.195  0.00  0.00    -0.170 OA
ENDBRANCH  22  23
ENDBRANCH  19  22
ENDBRANCH   6  16
TORSDOF 4
