REMARK  Name = ZINCbw0000001gW4.0
REMARK                            x       y       z     vdW  Elec       q    Type
REMARK                         _______ _______ _______ _____ _____    ______ ____
ROOT
ATOM      1  F   LIG    1        0.002  -0.004   0.002  0.00  0.00    -0.120 F 
ATOM      2  C   LIG    1       -0.016   1.347   0.009  0.00  0.00    +0.130 A 
ATOM      3  C   LIG    1       -1.224   2.023   0.019  0.00  0.00    +0.020 A 
ATOM      4  C   LIG    1       -1.241   3.405   0.032  0.00  0.00    -0.040 A 
ATOM      5  C   LIG    1       -0.054   4.113   0.024  0.00  0.00    +0.040 A 
ATOM      6  C   LIG    1        1.153   3.439   0.010  0.00  0.00    +0.090 A 
ATOM      7  C   LIG    1        1.174   2.057   0.002  0.00  0.00    -0.130 A 
ATOM      8 BR   LIG    1        2.825   1.135  -0.018  0.00  0.00    -0.020 Br
ENDROOT
BRANCH   4   9
ATOM      9  C   LIG    1       -2.556   4.141   0.047  0.00  0.00    +0.170 C 
ATOM     10  C   LIG    1       -3.335   4.239  -1.266  0.00  0.00    +0.210 C 
ATOM     11  O   LIG    1       -3.745   3.386  -0.195  0.00  0.00    -0.340 OA
ENDBRANCH   4   9
TORSDOF 1
