REMARK  Name = ZINCrH000004k0DE.0
REMARK                            x       y       z     vdW  Elec       q    Type
REMARK                         _______ _______ _______ _____ _____    ______ ____
ROOT
ATOM      1  C   LIG    1       -0.729   1.579   1.267  0.00  0.00    +0.260 C 
ENDROOT
BRANCH   1   4
ATOM      2  C   LIG    1       -0.622  -1.231   1.620  0.00  0.00    +0.300 C 
ATOM      3  N   LIG    1       -0.031  -0.358   2.638  0.00  0.00    -0.610 N 
ATOM      4  C   LIG    1       -0.074   0.981   2.485  0.00  0.00    +0.510 C 
ATOM      5  O   LIG    1        0.415   1.703   3.327  0.00  0.00    -0.520 OA
BRANCH   3   6
ATOM      6  C   LIG    1        0.606  -0.940   3.822  0.00  0.00    +0.390 C 
BRANCH   6   7
ATOM      7  C   LIG    1       -0.419  -1.100   4.915  0.00  0.00    -0.210 A 
ATOM      8  C   LIG    1       -1.175  -2.182   5.108  0.00  0.00    +0.020 A 
ATOM      9  C   LIG    1       -2.048  -2.100   6.179  0.00  0.00    +0.000 A 
ATOM     10  C   LIG    1       -2.000  -0.953   6.857  0.00  0.00    -0.060 A 
ATOM     11  S   LIG    1       -0.794   0.107   6.138  0.00  0.00    +0.130 S 
ENDBRANCH   6   7
ENDBRANCH   3   6
ENDBRANCH   1   4
BRANCH   1  12
ATOM     12  N   LIG    1       -0.645   3.040   1.336  0.00  0.00    -0.710 N 
ATOM     13  H   LIG    1        0.060   3.462   1.852  0.00  0.00    +0.410 HD
ATOM     14  C   LIG    1       -1.547   3.799   0.682  0.00  0.00    +0.560 C 
ATOM     15  O   LIG    1       -2.430   3.271   0.035  0.00  0.00    -0.510 OA
BRANCH  14  16
ATOM     16  C   LIG    1       -1.462   5.273   0.751  0.00  0.00    -0.130 A 
ATOM     17  C   LIG    1       -0.452   5.883   1.498  0.00  0.00    +0.040 A 
ATOM     18  C   LIG    1       -0.376   7.259   1.555  0.00  0.00    +0.000 A 
ATOM     19  C   LIG    1       -1.304   8.035   0.882  0.00  0.00    +0.040 A 
ATOM     20  C   LIG    1       -2.310   7.437   0.144  0.00  0.00    +0.000 A 
ATOM     21  C   LIG    1       -2.394   6.061   0.075  0.00  0.00    +0.080 A 
ENDBRANCH  14  16
ENDBRANCH   1  12
BRANCH   1  22
ATOM     22  C   LIG    1       -0.013   1.086   0.008  0.00  0.00    +0.080 C 
BRANCH  22  23
ATOM     23  C   LIG    1       -0.742   1.585  -1.213  0.00  0.00    -0.070 A 
ATOM     24  C   LIG    1       -1.750   0.825  -1.775  0.00  0.00    +0.000 A 
ATOM     25  C   LIG    1       -2.422   1.285  -2.892  0.00  0.00    +0.010 A 
ATOM     26  C   LIG    1       -2.078   2.501  -3.453  0.00  0.00    +0.000 A 
ATOM     27  C   LIG    1       -1.066   3.259  -2.894  0.00  0.00    +0.000 A 
ATOM     28  C   LIG    1       -0.398   2.801  -1.774  0.00  0.00    +0.000 A 
ENDBRANCH  22  23
ENDBRANCH   1  22
TORSDOF 7
