REMARK  Name = ZINCvU00000005Oz.0
REMARK                            x       y       z     vdW  Elec       q    Type
REMARK                         _______ _______ _______ _____ _____    ______ ____
ROOT
ATOM      1  C   LIG    1        0.083   0.572   0.370  0.00  0.00    +0.560 C 
ATOM      2  N   LIG    1        1.327   1.083   0.466  0.00  0.00    -0.670 N 
ATOM      3  H   LIG    1        1.461   2.043   0.432  0.00  0.00    +0.410 HD
ATOM      4  O   LIG    1       -0.078  -0.632   0.328  0.00  0.00    -0.510 OA
ENDROOT
BRANCH   2   5
ATOM      5  C   LIG    1        2.425   0.227   0.613  0.00  0.00    +0.160 A 
ATOM      6  C   LIG    1        3.508   0.616   1.390  0.00  0.00    +0.010 A 
ATOM      7  C   LIG    1        4.592  -0.230   1.541  0.00  0.00    +0.060 A 
ATOM      8  C   LIG    1        4.604  -1.460   0.910  0.00  0.00    +0.020 A 
ATOM      9  O   LIG    1        5.535  -2.468   0.889  0.00  0.00    -0.290 OA
ATOM     10  C   LIG    1        4.777  -3.625   0.510  0.00  0.00    +0.250 C 
ATOM     11  O   LIG    1        3.781  -3.099  -0.380  0.00  0.00    -0.290 OA
ATOM     12  C   LIG    1        5.658  -4.664  -0.192  0.00  0.00    +0.080 C 
ATOM     13  C   LIG    1        5.977  -5.696   0.922  0.00  0.00    +0.040 C 
ATOM     14  C   LIG    1        4.654  -5.758   1.725  0.00  0.00    +0.030 C 
ATOM     15  C   LIG    1        4.141  -4.300   1.725  0.00  0.00    +0.020 C 
ATOM     16  C   LIG    1        3.519  -1.852   0.124  0.00  0.00    +0.050 A 
ATOM     17  C   LIG    1        2.434  -1.008  -0.022  0.00  0.00    +0.050 A 
ENDBRANCH   2   5
BRANCH   1  22
ATOM     18  C   LIG    1       -4.456   4.109   0.136  0.00  0.00    +0.110 C 
ATOM     19  C   LIG    1       -3.270   3.182   0.198  0.00  0.00    -0.080 A 
ATOM     20  C   LIG    1       -1.994   3.702   0.302  0.00  0.00    +0.030 A 
ATOM     21  C   LIG    1       -0.902   2.860   0.358  0.00  0.00    +0.040 A 
ATOM     22  C   LIG    1       -1.085   1.477   0.310  0.00  0.00    -0.130 A 
ATOM     23  C   LIG    1       -2.372   0.951   0.200  0.00  0.00    +0.110 A 
ATOM     24  C   LIG    1       -3.462   1.806   0.149  0.00  0.00    +0.130 A 
BRANCH  24  25
ATOM     25  N   LIG    1       -4.756   1.284   0.044  0.00  0.00    -0.660 N 
ATOM     26  H   LIG    1       -5.429   1.757  -0.470  0.00  0.00    +0.420 HD
ATOM     27  C   LIG    1       -5.066   0.124   0.655  0.00  0.00    +0.610 C 
ATOM     28  O   LIG    1       -4.202  -0.512   1.230  0.00  0.00    -0.490 OA
BRANCH  27  29
ATOM     29  C   LIG    1       -6.446  -0.372   0.629  0.00  0.00    -0.090 A 
ATOM     30  C   LIG    1       -6.894  -1.526   1.205  0.00  0.00    +0.050 A 
ATOM     31  C   LIG    1       -8.269  -1.605   0.934  0.00  0.00    -0.060 A 
ATOM     32  C   LIG    1       -8.595  -0.509   0.214  0.00  0.00    +0.210 A 
ATOM     33  O   LIG    1       -7.495   0.234   0.036  0.00  0.00    -0.170 OA
ENDBRANCH  27  29
ENDBRANCH  24  25
ENDBRANCH   1  22
TORSDOF 4
