REMARK  Name = ZINCqH0000002UbN.0
REMARK                            x       y       z     vdW  Elec       q    Type
REMARK                         _______ _______ _______ _____ _____    ______ ____
ROOT
ATOM      1  C   LIG    1        1.413   3.151   2.849  0.00  0.00    +0.580 C 
ATOM      2  N   LIG    1        0.794   3.877   1.897  0.00  0.00    -0.720 N 
ATOM      3  H   LIG    1       -0.007   3.536   1.471  0.00  0.00    +0.400 HD
ATOM      4  O   LIG    1        2.364   3.617   3.448  0.00  0.00    -0.530 OA
ENDROOT
BRANCH   1   6
ATOM      5  N   LIG    1        1.422   0.993   4.179  0.00  0.00    -0.450 N 
ATOM      6  C   LIG    1        0.940   1.794   3.163  0.00  0.00    +0.020 A 
ATOM      7  C   LIG    1       -0.043   1.130   2.500  0.00  0.00    +0.010 A 
ATOM      8  C   LIG    1       -0.195  -0.138   3.111  0.00  0.00    -0.120 A 
ATOM      9  C   LIG    1       -1.035  -1.231   2.864  0.00  0.00    +0.060 A 
ATOM     10  C   LIG    1       -0.936  -2.352   3.636  0.00  0.00    -0.030 A 
ATOM     11  C   LIG    1       -0.015  -2.416   4.675  0.00  0.00    +0.040 A 
ATOM     12  C   LIG    1        0.819  -1.353   4.940  0.00  0.00    -0.010 A 
ATOM     13  C   LIG    1        0.742  -0.202   4.162  0.00  0.00    +0.110 A 
BRANCH   5  14
ATOM     14  C   LIG    1        2.488   1.354   5.117  0.00  0.00    +0.300 C 
BRANCH  14  16
ATOM     15  C   LIG    1        3.007   2.522   7.263  0.00  0.00    +0.030 C 
ATOM     16  C   LIG    1        1.894   2.145   6.284  0.00  0.00    +0.000 C 
ENDBRANCH  14  16
ENDBRANCH   5  14
ENDBRANCH   1   6
BRANCH   2  17
ATOM     17  C   LIG    1        1.333   5.182   1.506  0.00  0.00    +0.280 C 
BRANCH  17  18
ATOM     18  C   LIG    1        0.450   5.792   0.416  0.00  0.00    +0.080 C 
BRANCH  18  19
ATOM     19  C   LIG    1        1.003   7.135   0.013  0.00  0.00    -0.070 A 
ATOM     20  C   LIG    1        0.512   8.288   0.596  0.00  0.00    -0.010 A 
ATOM     21  C   LIG    1        1.018   9.521   0.230  0.00  0.00    +0.050 A 
ATOM     22  C   LIG    1        2.019   9.607  -0.721  0.00  0.00    -0.070 A 
ATOM     23  C   LIG    1        2.515   8.455  -1.309  0.00  0.00    +0.110 A 
ATOM     24  C   LIG    1        2.009   7.213  -0.936  0.00  0.00    +0.080 A 
BRANCH  23  25
ATOM     25  O   LIG    1        3.499   8.537  -2.244  0.00  0.00    -0.310 OA
ATOM     26  C   LIG    1        3.975   9.844  -2.572  0.00  0.00    +0.240 C 
ENDBRANCH  23  25
BRANCH  24  27
ATOM     27  O   LIG    1        2.498   6.079  -1.507  0.00  0.00    -0.480 OA
ATOM     28  H   LIG    1        2.031   5.811  -2.310  0.00  0.00    +0.390 HD
ENDBRANCH  24  27
ENDBRANCH  18  19
ENDBRANCH  17  18
ENDBRANCH   2  17
TORSDOF 8
