REMARK  Name = ZINCpe000000TxgQ.0
REMARK                            x       y       z     vdW  Elec       q    Type
REMARK                         _______ _______ _______ _____ _____    ______ ____
ROOT
ATOM      1  C   LIG    1       -5.579   4.081  -0.720  0.00  0.00    +0.010 C 
ATOM      2  C   LIG    1       -5.765   2.567  -0.836  0.00  0.00    +0.020 C 
ATOM      3  C   LIG    1       -4.934   1.869   0.246  0.00  0.00    +0.270 C 
ATOM      4  N   LIG    1       -3.539   2.316   0.131  0.00  0.00    -0.610 N 
ATOM      5  C   LIG    1       -3.255   3.758   0.145  0.00  0.00    +0.270 C 
ATOM      6  C   LIG    1       -2.538   1.420   0.020  0.00  0.00    +0.600 C 
ATOM      7  O   LIG    1       -2.791   0.237  -0.102  0.00  0.00    -0.550 OA
ATOM      8  C   LIG    1       -4.106   4.434  -0.940  0.00  0.00    +0.020 C 
ENDROOT
BRANCH   6   9
ATOM      9  C   LIG    1       -1.135   1.875   0.048  0.00  0.00    -0.290 A 
ATOM     10  C   LIG    1       -0.065   1.267  -0.576  0.00  0.00    +0.320 A 
ATOM     11  N   LIG    1        1.027   2.000  -0.306  0.00  0.00    -0.360 N 
ATOM     12  N   LIG    1        0.649   3.079   0.500  0.00  0.00    -0.290 NA
ATOM     13  C   LIG    1        2.386   1.717  -0.776  0.00  0.00    +0.360 C 
ATOM     14  C   LIG    1       -0.635   3.013   0.719  0.00  0.00    +0.270 A 
ENDBRANCH   6   9
BRANCH   1  15
ATOM     15  C   LIG    1       -6.434   4.783  -1.776  0.00  0.00    +0.040 C 
BRANCH  15  21
ATOM     16  N   LIG    1       -9.114   8.665  -3.382  0.00  0.00    -0.540 NA
ATOM     17  C   LIG    1       -8.380   9.116  -2.192  0.00  0.00    +0.170 C 
ATOM     18  C   LIG    1       -6.952   8.560  -2.236  0.00  0.00    +0.300 C 
ATOM     19  N   LIG    1       -7.024   7.101  -2.406  0.00  0.00    -0.620 N 
ATOM     20  C   LIG    1       -7.849   6.568  -3.500  0.00  0.00    +0.280 C 
ATOM     21  C   LIG    1       -6.347   6.275  -1.584  0.00  0.00    +0.520 C 
ATOM     22  O   LIG    1       -5.667   6.732  -0.690  0.00  0.00    -0.540 OA
ATOM     23  C   LIG    1       -9.246   7.202  -3.403  0.00  0.00    +0.170 C 
BRANCH  16  25
ATOM     24  C   LIG    1      -11.057   9.017  -4.830  0.00  0.00    +0.020 C 
ATOM     25  C   LIG    1      -10.429   9.313  -3.466  0.00  0.00    +0.160 C 
ENDBRANCH  16  25
ENDBRANCH  15  21
ENDBRANCH   1  15
TORSDOF 4
