REMARK  Name = ZINCrH000004qTUe.0
REMARK                            x       y       z     vdW  Elec       q    Type
REMARK                         _______ _______ _______ _____ _____    ______ ____
ROOT
ATOM      1  S   LIG    1       -1.442  -0.819  -0.036  0.00  0.00    +2.700 S 
ATOM      2  O   LIG    1       -2.427   0.204   0.015  0.00  0.00    -0.940 OA
ATOM      3  O   LIG    1       -1.329  -1.838   0.948  0.00  0.00    -0.940 OA
ENDROOT
BRANCH   1   9
ATOM      4  C   LIG    1        1.784   2.794  -2.000  0.00  0.00    +0.130 C 
ATOM      5  C   LIG    1        1.555   1.668  -1.025  0.00  0.00    -0.100 A 
ATOM      6  C   LIG    1        2.569   1.275  -0.173  0.00  0.00    +0.160 A 
ATOM      7  C   LIG    1        2.360   0.240   0.720  0.00  0.00    -0.060 A 
ATOM      8  C   LIG    1        1.135  -0.399   0.762  0.00  0.00    +0.210 A 
ATOM      9  C   LIG    1        0.120  -0.004  -0.089  0.00  0.00    -0.680 A 
ATOM     10  C   LIG    1        0.330   1.029  -0.983  0.00  0.00    +0.070 A 
ATOM     11  C   LIG    1       -0.776   1.458  -1.913  0.00  0.00    +0.130 C 
BRANCH   7  12
ATOM     12  N   LIG    1        3.446  -0.182   1.632  0.00  0.00    +0.030 N 
ATOM     13  O   LIG    1        4.526   0.381   1.595  0.00  0.00    -0.150 OA
ATOM     14  O   LIG    1        3.261  -1.092   2.420  0.00  0.00    -0.150 OA
ENDBRANCH   7  12
ENDBRANCH   1   9
BRANCH   1  15
ATOM     15  N   LIG    1       -1.642  -1.590  -1.487  0.00  0.00    -1.110 NA
ATOM     16  H   LIG    1       -2.352  -1.316  -2.088  0.00  0.00    +0.420 HD
BRANCH  15  17
ATOM     17  C   LIG    1       -0.747  -2.687  -1.864  0.00  0.00    +0.240 C 
ATOM     18  C   LIG    1        0.375  -2.148  -2.753  0.00  0.00    +0.030 C 
BRANCH  17  19
ATOM     19  C   LIG    1       -1.538  -3.751  -2.628  0.00  0.00    +0.050 C 
BRANCH  19  20
ATOM     20  C   LIG    1       -2.579  -4.379  -1.699  0.00  0.00    +0.080 C 
BRANCH  20  21
ATOM     21  C   LIG    1       -3.357  -5.426  -2.452  0.00  0.00    -0.060 A 
ATOM     22  C   LIG    1       -2.918  -6.737  -2.466  0.00  0.00    +0.040 A 
ATOM     23  C   LIG    1       -3.631  -7.700  -3.155  0.00  0.00    +0.030 A 
ATOM     24  C   LIG    1       -4.786  -7.352  -3.833  0.00  0.00    +0.060 A 
ATOM     25  C   LIG    1       -5.227  -6.037  -3.820  0.00  0.00    +0.070 A 
ATOM     26  F   LIG    1       -6.355  -5.696  -4.481  0.00  0.00    -0.130 F 
ATOM     27  F   LIG    1       -5.483  -8.293  -4.508  0.00  0.00    -0.130 F 
ATOM     28  C   LIG    1       -4.514  -5.077  -3.124  0.00  0.00    +0.020 A 
ENDBRANCH  20  21
ENDBRANCH  19  20
ENDBRANCH  17  19
ENDBRANCH  15  17
ENDBRANCH   1  15
TORSDOF 7
