REMARK  Name = ZINCrD000000AD6C.0
REMARK                            x       y       z     vdW  Elec       q    Type
REMARK                         _______ _______ _______ _____ _____    ______ ____
ROOT
ATOM      1  C   LIG    1        6.986   1.569   1.788  0.00  0.00    -0.200 A 
ATOM      2  C   LIG    1        7.446   0.979   2.913  0.00  0.00    +0.160 A 
ATOM      3  N   LIG    1        8.171   1.753   3.701  0.00  0.00    -0.450 NA
ATOM      4  C   LIG    1        8.354   2.982   3.318  0.00  0.00    +0.130 A 
ATOM      5  S   LIG    1        7.536   3.243   1.780  0.00  0.00    +0.130 S 
ENDROOT
BRANCH   4   6
ATOM      6  C   LIG    1        9.127   4.002   4.059  0.00  0.00    -0.030 A 
ATOM      7  C   LIG    1        9.258   5.292   3.544  0.00  0.00    +0.020 A 
ATOM      8  C   LIG    1        9.976   6.241   4.243  0.00  0.00    +0.010 A 
ATOM      9  C   LIG    1       10.574   5.912   5.447  0.00  0.00    +0.030 A 
ATOM     10  C   LIG    1       10.452   4.633   5.960  0.00  0.00    +0.010 A 
ATOM     11  C   LIG    1        9.732   3.677   5.274  0.00  0.00    +0.070 A 
ENDBRANCH   4   6
BRANCH   2  12
ATOM     12  C   LIG    1        7.160  -0.435   3.238  0.00  0.00    -0.130 A 
ATOM     13  C   LIG    1        8.005  -1.275   3.866  0.00  0.00    +0.050 A 
ATOM     14  C   LIG    1        7.513  -2.551   4.059  0.00  0.00    +0.020 A 
ATOM     15  C   LIG    1        6.278  -2.756   3.596  0.00  0.00    -0.040 A 
ATOM     16  S   LIG    1        5.660  -1.278   2.871  0.00  0.00    +0.130 S 
ENDBRANCH   2  12
BRANCH   1  17
ATOM     17  C   LIG    1        6.143   0.911   0.726  0.00  0.00    +0.170 C 
BRANCH  17  19
ATOM     18  O   LIG    1        4.362   1.680   2.069  0.00  0.00    -0.510 OA
ATOM     19  C   LIG    1        4.685   1.083   1.065  0.00  0.00    +0.520 C 
ATOM     20  N   LIG    1        3.739   0.572   0.251  0.00  0.00    -0.720 N 
ATOM     21  H   LIG    1        3.998   0.094  -0.552  0.00  0.00    +0.410 HD
BRANCH  20  22
ATOM     22  C   LIG    1        2.322   0.738   0.580  0.00  0.00    +0.270 C 
ATOM     23  C   LIG    1        1.494  -0.385  -0.069  0.00  0.00    +0.070 C 
ATOM     24  C   LIG    1        0.002  -0.004   0.002  0.00  0.00    -0.300 C 
ATOM     25  S   LIG    1       -0.023   1.825   0.012  0.00  0.00    +2.390 S 
ATOM     26  O   LIG    1       -0.550   2.282   1.250  0.00  0.00    -0.930 OA
ATOM     27  O   LIG    1       -0.573   2.295  -1.211  0.00  0.00    -0.930 OA
ATOM     28  C   LIG    1        1.793   2.074  -0.004  0.00  0.00    -0.330 C 
ENDBRANCH  20  22
ENDBRANCH  17  19
ENDBRANCH   1  17
TORSDOF 5
