REMARK  Name = ZINCqH0000005bZQ.2
REMARK                            x       y       z     vdW  Elec       q    Type
REMARK                         _______ _______ _______ _____ _____    ______ ____
ROOT
ATOM      1  C   LIG    1        0.002  -0.004   0.002  0.00  0.00    +0.210 A 
ATOM      2  N   LIG    1       -0.016   1.306   0.009  0.00  0.00    -0.470 NA
ATOM      3  C   LIG    1        1.282   1.686  -0.001  0.00  0.00    +0.200 A 
ATOM      4  N   LIG    1        2.004   0.596  -0.014  0.00  0.00    -0.360 NA
ATOM      5  O   LIG    1        1.285  -0.380  -0.012  0.00  0.00    +0.100 OA
ENDROOT
BRANCH   3   6
ATOM      6  C   LIG    1        1.791   3.081   0.001  0.00  0.00    +0.030 A 
ATOM      7  C   LIG    1        0.898   4.151   0.009  0.00  0.00    +0.080 A 
ATOM      8  C   LIG    1        1.377   5.445   0.017  0.00  0.00    +0.110 A 
ATOM      9  C   LIG    1        2.740   5.681   0.005  0.00  0.00    -0.030 A 
ATOM     10  C   LIG    1        3.630   4.623  -0.009  0.00  0.00    +0.110 A 
ATOM     11  C   LIG    1        3.163   3.324  -0.011  0.00  0.00    +0.080 A 
BRANCH   9  12
ATOM     12  N   LIG    1        3.248   7.072   0.008  0.00  0.00    +0.020 N 
ATOM     13  O   LIG    1        2.466   8.005   0.020  0.00  0.00    -0.150 OA
ATOM     14  O   LIG    1        4.447   7.282  -0.002  0.00  0.00    -0.150 OA
ENDBRANCH   9  12
ENDBRANCH   3   6
BRANCH   1  15
ATOM     15  C   LIG    1       -1.198  -0.916   0.009  0.00  0.00    +0.350 C 
BRANCH  15  17
ATOM     16  C   LIG    1       -2.087   0.009  -2.045  0.00  0.00    +0.210 C 
ATOM     17  N   LIG    1       -1.601  -1.204  -1.374  0.00  0.00    -0.540 NA
BRANCH  17  18
ATOM     18  C   LIG    1       -2.611  -2.270  -1.416  0.00  0.00    +0.180 C 
BRANCH  18  19
ATOM     19  C   LIG    1       -2.823  -2.715  -2.865  0.00  0.00    +0.040 C 
BRANCH  19  20
ATOM     20  C   LIG    1       -3.875  -3.825  -2.909  0.00  0.00    +0.060 C 
BRANCH  20  21
ATOM     21  C   LIG    1       -4.083  -4.263  -4.335  0.00  0.00    -0.080 A 
ATOM     22  C   LIG    1       -5.044  -3.647  -5.115  0.00  0.00    +0.000 A 
ATOM     23  C   LIG    1       -5.232  -4.045  -6.425  0.00  0.00    +0.000 A 
ATOM     24  C   LIG    1       -4.466  -5.068  -6.953  0.00  0.00    +0.000 A 
ATOM     25  C   LIG    1       -3.509  -5.688  -6.172  0.00  0.00    +0.000 A 
ATOM     26  C   LIG    1       -3.318  -5.286  -4.863  0.00  0.00    +0.000 A 
ENDBRANCH  20  21
ENDBRANCH  19  20
ENDBRANCH  18  19
ENDBRANCH  17  18
ENDBRANCH  15  17
ENDBRANCH   1  15
TORSDOF 8
