REMARK  Name = ZINCqH0000007ish.0
REMARK                            x       y       z     vdW  Elec       q    Type
REMARK                         _______ _______ _______ _____ _____    ______ ____
ROOT
ATOM      1  N   LIG    1        0.962   3.546  -0.346  0.00  0.00    -0.520 NA
ATOM      2  C   LIG    1        0.394   3.796  -1.677  0.00  0.00    +0.200 C 
ENDROOT
BRANCH   1   3
ATOM      3  C   LIG    1        1.260   2.119  -0.161  0.00  0.00    +0.220 C 
BRANCH   3   6
ATOM      4  N   LIG    1        0.002  -0.004   0.002  0.00  0.00    -0.670 N 
ATOM      5  H   LIG    1        0.852  -0.470   0.037  0.00  0.00    +0.410 HD
ATOM      6  C   LIG    1       -0.026   1.334  -0.155  0.00  0.00    +0.510 C 
ATOM      7  O   LIG    1       -1.087   1.906  -0.297  0.00  0.00    -0.500 OA
BRANCH   4  11
ATOM      8  C   LIG    1       -3.564  -2.139   0.339  0.00  0.00    +0.110 A 
ATOM      9  C   LIG    1       -2.465  -2.718  -0.280  0.00  0.00    +0.010 A 
ATOM     10  C   LIG    1       -1.284  -2.011  -0.392  0.00  0.00    +0.030 A 
ATOM     11  C   LIG    1       -1.196  -0.722   0.115  0.00  0.00    +0.110 A 
ATOM     12  C   LIG    1       -2.294  -0.146   0.740  0.00  0.00    +0.060 A 
ATOM     13  C   LIG    1       -3.476  -0.851   0.846  0.00  0.00    -0.060 A 
BRANCH   8  15
ATOM     14  C   LIG    1       -5.817  -2.179   1.099  0.00  0.00    +0.250 C 
ATOM     15  O   LIG    1       -4.726  -2.836   0.450  0.00  0.00    -0.320 OA
ENDBRANCH   8  15
ENDBRANCH   4  11
ENDBRANCH   3   6
ENDBRANCH   1   3
BRANCH   1  16
ATOM     16  C   LIG    1        2.159   4.367  -0.122  0.00  0.00    +0.300 C 
BRANCH  16  17
ATOM     17  C   LIG    1        1.769   5.822  -0.077  0.00  0.00    +0.010 A 
ATOM     18  C   LIG    1        1.720   6.661  -1.127  0.00  0.00    -0.030 A 
ATOM     19  O   LIG    1        1.323   7.864  -0.662  0.00  0.00    -0.190 OA
ATOM     20  C   LIG    1        1.144   7.750   0.667  0.00  0.00    +0.260 A 
ATOM     21  C   LIG    1        2.045   6.320  -2.558  0.00  0.00    +0.190 C 
ATOM     22  N   LIG    1        1.414   6.512   1.019  0.00  0.00    -0.450 NA
BRANCH  20  23
ATOM     23  C   LIG    1        0.717   8.826   1.572  0.00  0.00    -0.140 A 
ATOM     24  C   LIG    1        0.439  10.106   1.198  0.00  0.00    +0.050 A 
ATOM     25  C   LIG    1        0.057  10.932   2.232  0.00  0.00    +0.010 A 
ATOM     26  C   LIG    1        0.017  10.354   3.437  0.00  0.00    -0.040 A 
ATOM     27  S   LIG    1        0.477   8.662   3.307  0.00  0.00    +0.210 S 
ENDBRANCH  20  23
ENDBRANCH  16  17
ENDBRANCH   1  16
TORSDOF 7
