REMARK  Name = ZINCpe000000YT7I.0
REMARK                            x       y       z     vdW  Elec       q    Type
REMARK                         _______ _______ _______ _____ _____    ______ ____
ROOT
ATOM      1  N   LIG    1       -0.709   0.530  -3.232  0.00  0.00    -0.560 N 
ATOM      2  C   LIG    1       -1.869   0.233  -2.634  0.00  0.00    +0.710 C 
ATOM      3  N   LIG    1       -1.992   0.823  -1.429  0.00  0.00    -0.710 N 
ATOM      4  H   LIG    1       -2.744   0.751  -0.821  0.00  0.00    +0.440 HD
ATOM      5  C   LIG    1       -0.762   1.597  -1.219  0.00  0.00    +0.180 C 
ATOM      6  C   LIG    1       -0.013   1.086   0.008  0.00  0.00    +0.050 C 
ATOM      7  C   LIG    1       -0.742   1.586   1.262  0.00  0.00    +0.260 C 
ATOM      8  O   LIG    1       -0.681   3.013   1.283  0.00  0.00    -0.310 OA
ATOM      9  C   LIG    1       -1.028   3.686   0.156  0.00  0.00    +0.160 A 
ATOM     10  C   LIG    1       -1.331   5.040   0.254  0.00  0.00    -0.010 A 
ATOM     11  C   LIG    1       -1.676   5.758  -0.873  0.00  0.00    +0.070 A 
ATOM     12  C   LIG    1       -1.720   5.131  -2.104  0.00  0.00    -0.020 A 
ATOM     13  C   LIG    1       -1.422   3.786  -2.205  0.00  0.00    +0.070 A 
ATOM     14  C   LIG    1       -1.077   3.059  -1.079  0.00  0.00    -0.180 A 
ATOM     15  O   LIG    1       -2.716  -0.488  -3.123  0.00  0.00    -0.530 OA
ATOM     16  C   LIG    1        0.047   1.349  -2.471  0.00  0.00    +0.540 C 
ATOM     17  O   LIG    1        1.143   1.793  -2.737  0.00  0.00    -0.440 OA
ENDROOT
BRANCH   1  18
ATOM     18  C   LIG    1       -0.309   0.028  -4.549  0.00  0.00    +0.370 C 
BRANCH  18  20
ATOM     19  O   LIG    1       -1.386   1.987  -5.305  0.00  0.00    -0.520 OA
ATOM     20  C   LIG    1       -0.778   0.984  -5.615  0.00  0.00    +0.510 C 
ATOM     21  N   LIG    1       -0.521   0.726  -6.912  0.00  0.00    -0.730 N 
ATOM     22  H   LIG    1       -0.035  -0.076  -7.160  0.00  0.00    +0.410 HD
BRANCH  21  23
ATOM     23  C   LIG    1       -0.977   1.655  -7.949  0.00  0.00    +0.320 C 
BRANCH  23  24
ATOM     24  C   LIG    1       -0.559   1.131  -9.324  0.00  0.00    +0.450 C 
ATOM     25  F   LIG    1        0.834   1.019  -9.377  0.00  0.00    -0.180 F 
ATOM     26  F   LIG    1       -0.994   2.018 -10.314  0.00  0.00    -0.170 F 
ATOM     27  F   LIG    1       -1.136  -0.126  -9.539  0.00  0.00    -0.180 F 
ENDBRANCH  23  24
ENDBRANCH  21  23
ENDBRANCH  18  20
ENDBRANCH   1  18
TORSDOF 4
