REMARK  Name = ZINCpk00000xLQRj.0
REMARK                            x       y       z     vdW  Elec       q    Type
REMARK                         _______ _______ _______ _____ _____    ______ ____
ROOT
ATOM      1  N   LIG    1        2.678   1.037  -0.477  0.00  0.00    -0.450 N 
ATOM      2  C   LIG    1        2.947   0.144   0.658  0.00  0.00    +0.200 C 
ATOM      3  C   LIG    1        4.436  -0.217   0.678  0.00  0.00    +0.300 C 
ATOM      4  N   LIG    1        5.218   1.028   0.667  0.00  0.00    -0.610 N 
ATOM      5  C   LIG    1        4.911   2.034  -0.361  0.00  0.00    +0.300 C 
ATOM      6  C   LIG    1        6.191   1.242   1.575  0.00  0.00    +0.520 C 
ATOM      7  O   LIG    1        6.887   2.233   1.496  0.00  0.00    -0.520 OA
ATOM      8  C   LIG    1        3.403   2.307  -0.341  0.00  0.00    +0.200 C 
ENDROOT
BRANCH   6   9
ATOM      9  C   LIG    1        6.415   0.250   2.687  0.00  0.00    +0.060 C 
ATOM     10  C   LIG    1        7.303  -0.888   2.183  0.00  0.00    +0.100 C 
ATOM     11  C   LIG    1        8.712  -0.395   1.995  0.00  0.00    +0.520 C 
ATOM     12  N   LIG    1        9.237   0.524   2.827  0.00  0.00    -0.660 N 
ATOM     13  H   LIG    1       10.150   0.823   2.699  0.00  0.00    +0.410 HD
ATOM     14  C   LIG    1        8.473   1.051   3.873  0.00  0.00    +0.180 A 
ATOM     15  C   LIG    1        9.094   1.685   4.940  0.00  0.00    -0.020 A 
ATOM     16  C   LIG    1        8.334   2.202   5.971  0.00  0.00    +0.050 A 
ATOM     17  C   LIG    1        6.956   2.089   5.940  0.00  0.00    -0.010 A 
ATOM     18  C   LIG    1        6.334   1.458   4.878  0.00  0.00    +0.060 A 
ATOM     19  O   LIG    1        9.383  -0.831   1.084  0.00  0.00    -0.520 OA
ATOM     20  C   LIG    1        7.089   0.939   3.845  0.00  0.00    -0.110 A 
ENDBRANCH   6   9
BRANCH   1  24
ATOM     21  C   LIG    1       -2.210   0.208  -1.091  0.00  0.00    +0.140 C 
ATOM     22  C   LIG    1       -0.877   0.885  -0.900  0.00  0.00    +0.100 A 
ATOM     23  C   LIG    1        0.320   0.267  -0.782  0.00  0.00    -0.120 A 
ATOM     24  C   LIG    1        1.303   1.258  -0.627  0.00  0.00    +0.260 A 
ATOM     25  N   LIG    1        0.708   2.427  -0.647  0.00  0.00    -0.320 NA
ATOM     26  N   LIG    1       -0.666   2.215  -0.815  0.00  0.00    -0.470 N 
ATOM     27  H   LIG    1       -1.347   2.905  -0.865  0.00  0.00    +0.440 HD
ENDBRANCH   1  24
TORSDOF 2
