REMARK  Name = ZINCb800000011el.0
REMARK                            x       y       z     vdW  Elec       q    Type
REMARK                         _______ _______ _______ _____ _____    ______ ____
ROOT
ATOM      1  C   LIG    1       -1.433  -0.534  -0.021  0.00  0.00    +0.030 C 
ATOM      2  C   LIG    1        0.002  -0.004   0.002  0.00  0.00    -0.040 C 
ATOM      3  C   LIG    1       -0.019   1.526   0.010  0.00  0.00    +0.020 C 
ATOM      4  C   LIG    1        1.417   2.058  -0.000  0.00  0.00    +0.010 C 
ATOM      5  C   LIG    1        2.144   1.577   1.259  0.00  0.00    +0.250 C 
ATOM      6  N   LIG    1        2.043   0.113   1.334  0.00  0.00    -0.610 N 
ATOM      7  C   LIG    1        3.149  -0.646   1.466  0.00  0.00    +0.510 C 
ATOM      8  O   LIG    1        3.053  -1.853   1.526  0.00  0.00    -0.520 OA
ATOM      9  C   LIG    1        0.714  -0.508   1.262  0.00  0.00    +0.280 C 
ENDROOT
BRANCH   7  10
ATOM     10  C   LIG    1        4.506   0.006   1.539  0.00  0.00    +0.220 C 
BRANCH  10  11
ATOM     11  O   LIG    1        5.511  -1.000   1.677  0.00  0.00    -0.550 OA
ATOM     12  H   LIG    1        6.412  -0.651   1.730  0.00  0.00    +0.390 HD
ENDBRANCH  10  11
ENDBRANCH   7  10
TORSDOF 2
