REMARK  Name = ZINCtV000002Hoqd.0
REMARK                            x       y       z     vdW  Elec       q    Type
REMARK                         _______ _______ _______ _____ _____    ______ ____
ROOT
ATOM      1  C   LIG    1       -1.246   1.882  -0.044  0.00  0.00    +0.030 C 
ENDROOT
BRANCH   1   2
ATOM      2  C   LIG    1       -1.558   2.337   1.359  0.00  0.00    -0.080 A 
ATOM      3  C   LIG    1       -1.575   1.421   2.394  0.00  0.00    +0.030 A 
ATOM      4  C   LIG    1       -1.858   1.839   3.682  0.00  0.00    +0.020 A 
ATOM      5  C   LIG    1       -2.131   3.171   3.932  0.00  0.00    +0.020 A 
ATOM      6  C   LIG    1       -2.119   4.085   2.895  0.00  0.00    +0.010 A 
ATOM      7  C   LIG    1       -1.833   3.668   1.609  0.00  0.00    +0.030 A 
ENDBRANCH   1   2
BRANCH   1  10
ATOM      8  N   LIG    1        1.227   1.877  -0.073  0.00  0.00    -0.660 N 
ATOM      9  H   LIG    1        1.199   2.844  -0.155  0.00  0.00    +0.410 HD
ATOM     10  C   LIG    1        0.081   1.168  -0.057  0.00  0.00    +0.520 C 
ATOM     11  O   LIG    1        0.118  -0.044  -0.058  0.00  0.00    -0.480 OA
BRANCH   8  17
ATOM     12  C   LIG    1        3.834  -2.025   1.392  0.00  0.00    +0.090 C 
ATOM     13  C   LIG    1        3.751  -0.673   0.733  0.00  0.00    -0.070 A 
ATOM     14  C   LIG    1        4.893  -0.080   0.226  0.00  0.00    -0.010 A 
ATOM     15  C   LIG    1        4.821   1.161  -0.380  0.00  0.00    +0.030 A 
ATOM     16  C   LIG    1        3.607   1.812  -0.481  0.00  0.00    -0.120 A 
ATOM     17  C   LIG    1        2.458   1.220   0.027  0.00  0.00    +0.150 A 
ATOM     18  C   LIG    1        3.530   3.165  -1.141  0.00  0.00    +0.090 C 
ATOM     19  C   LIG    1        2.535  -0.024   0.640  0.00  0.00    +0.010 A 
ENDBRANCH   8  17
ENDBRANCH   1  10
BRANCH   1  20
ATOM     20  S   LIG    1       -2.545   0.753  -0.616  0.00  0.00    +0.030 S 
BRANCH  20  21
ATOM     21  C   LIG    1       -2.186   0.573  -2.332  0.00  0.00    -0.070 A 
ATOM     22  C   LIG    1       -1.060   1.158  -2.871  0.00  0.00    +0.000 A 
ATOM     23  C   LIG    1       -0.762   1.018  -4.223  0.00  0.00    +0.040 A 
ATOM     24  C   LIG    1       -1.579   0.310  -5.052  0.00  0.00    +0.030 A 
ATOM     25  C   LIG    1       -2.738  -0.297  -4.542  0.00  0.00    -0.080 A 
ATOM     26  C   LIG    1       -3.602  -1.036  -5.372  0.00  0.00    +0.080 A 
ATOM     27  C   LIG    1       -4.712  -1.599  -4.809  0.00  0.00    -0.030 A 
ATOM     28  C   LIG    1       -4.961  -1.433  -3.449  0.00  0.00    +0.290 A 
ATOM     29  N   LIG    1       -4.154  -0.744  -2.679  0.00  0.00    -0.470 NA
ATOM     30  C   LIG    1       -3.052  -0.169  -3.167  0.00  0.00    +0.140 A 
ENDBRANCH  20  21
ENDBRANCH   1  20
TORSDOF 5
