REMARK  Name = ZINCpk00001AZj1D.0
REMARK                            x       y       z     vdW  Elec       q    Type
REMARK                         _______ _______ _______ _____ _____    ______ ____
ROOT
ATOM      1  C   LIG    1       -0.164   1.193   2.388  0.00  0.00    +0.520 C 
ATOM      2  O   LIG    1        0.837   0.505   2.423  0.00  0.00    -0.490 OA
ENDROOT
BRANCH   1   5
ATOM      3  C   LIG    1       -0.858   1.673   6.054  0.00  0.00    -0.040 A 
ATOM      4  C   LIG    1       -0.258   1.253   4.872  0.00  0.00    +0.080 A 
ATOM      5  C   LIG    1       -0.801   1.632   3.644  0.00  0.00    -0.090 A 
ATOM      6  C   LIG    1       -1.954   2.423   3.604  0.00  0.00    +0.000 A 
ATOM      7  C   LIG    1       -2.553   2.836   4.779  0.00  0.00    +0.100 A 
ATOM      8  C   LIG    1       -2.012   2.466   6.007  0.00  0.00    +0.110 A 
BRANCH   3  11
ATOM      9  C   LIG    1        1.396   0.129   8.729  0.00  0.00    +0.080 C 
ATOM     10  C   LIG    1        0.810   0.530   7.401  0.00  0.00    -0.010 C 
ATOM     11  C   LIG    1       -0.283   1.280   7.357  0.00  0.00    +0.000 C 
ENDBRANCH   3  11
BRANCH   7  12
ATOM     12  O   LIG    1       -3.674   3.606   4.735  0.00  0.00    -0.300 OA
ATOM     13  C   LIG    1       -4.175   3.949   3.442  0.00  0.00    +0.250 C 
ENDBRANCH   7  12
BRANCH   8  14
ATOM     14  O   LIG    1       -2.604   2.873   7.159  0.00  0.00    -0.320 OA
ATOM     15  C   LIG    1       -3.607   2.018   7.711  0.00  0.00    +0.230 C 
ENDBRANCH   8  14
ENDBRANCH   1   5
BRANCH   1  16
ATOM     16  O   LIG    1       -0.692   1.554   1.203  0.00  0.00    -0.340 OA
BRANCH  16  17
ATOM     17  C   LIG    1       -0.013   1.086   0.008  0.00  0.00    +0.360 C 
BRANCH  17  18
ATOM     18  C   LIG    1       -0.742   1.585  -1.213  0.00  0.00    +0.430 A 
ATOM     19  N   LIG    1       -1.705   0.857  -1.749  0.00  0.00    -0.620 NA
ATOM     20  C   LIG    1       -2.354   1.296  -2.825  0.00  0.00    +0.630 A 
ATOM     21  N   LIG    1       -2.026   2.465  -3.365  0.00  0.00    -0.650 NA
ATOM     22  C   LIG    1       -1.053   3.192  -2.826  0.00  0.00    +0.630 A 
ATOM     23  N   LIG    1       -0.412   2.748  -1.748  0.00  0.00    -0.620 NA
BRANCH  22  24
ATOM     24  N   LIG    1       -0.708   4.406  -3.384  0.00  0.00    -0.800 N 
ATOM     25  H   LIG    1       -1.176   4.729  -4.170  0.00  0.00    +0.420 HD
ATOM     26  H   LIG    1        0.002   4.936  -2.990  0.00  0.00    +0.420 HD
ENDBRANCH  22  24
BRANCH  20  27
ATOM     27  N   LIG    1       -3.364   0.538  -3.380  0.00  0.00    -0.800 N 
ATOM     28  H   LIG    1       -3.604  -0.315  -2.985  0.00  0.00    +0.420 HD
ATOM     29  H   LIG    1       -3.835   0.857  -4.166  0.00  0.00    +0.420 HD
ENDBRANCH  20  27
ENDBRANCH  17  18
ENDBRANCH  16  17
ENDBRANCH   1  16
TORSDOF 9
