REMARK  Name = ZINCrg000000sCHT.0
REMARK                            x       y       z     vdW  Elec       q    Type
REMARK                         _______ _______ _______ _____ _____    ______ ____
ROOT
ATOM      1  C   LIG    1       -0.118  -0.027  -0.317  0.00  0.00    +0.600 C 
ATOM      2  N   LIG    1       -1.297  -0.668  -0.448  0.00  0.00    -0.610 N 
ATOM      3  C   LIG    1       -2.556   0.088  -0.510  0.00  0.00    +0.270 C 
ATOM      4  C   LIG    1       -3.298  -0.311  -1.796  0.00  0.00    +0.270 C 
ATOM      5  N   LIG    1       -3.348  -1.778  -1.874  0.00  0.00    -0.610 N 
ATOM      6  C   LIG    1       -2.089  -2.533  -1.806  0.00  0.00    +0.290 C 
ATOM      7  C   LIG    1       -4.526  -2.418  -2.003  0.00  0.00    +0.580 C 
ATOM      8  O   LIG    1       -4.564  -3.634  -1.975  0.00  0.00    -0.520 OA
ATOM      9  C   LIG    1       -1.346  -2.135  -0.525  0.00  0.00    +0.280 C 
ATOM     10  O   LIG    1        0.922  -0.656  -0.342  0.00  0.00    -0.520 OA
ENDROOT
BRANCH   7  11
ATOM     11  C   LIG    1       -5.770  -1.646  -2.180  0.00  0.00    -0.240 A 
ATOM     12  C   LIG    1       -6.055  -1.057  -3.395  0.00  0.00    +0.350 A 
ATOM     13  N   LIG    1       -7.192  -0.356  -3.563  0.00  0.00    -0.600 N 
ATOM     14  H   LIG    1       -7.381   0.049  -4.424  0.00  0.00    +0.420 HD
ATOM     15  C   LIG    1       -8.068  -0.203  -2.553  0.00  0.00    +0.510 A 
ATOM     16  C   LIG    1       -7.816  -0.781  -1.295  0.00  0.00    -0.070 A 
ATOM     17  O   LIG    1       -9.088   0.442  -2.729  0.00  0.00    -0.540 OA
ATOM     18  C   LIG    1       -6.677  -1.498  -1.103  0.00  0.00    +0.150 A 
ENDBRANCH   7  11
BRANCH   1  22
ATOM     19  C   LIG    1       -0.860   4.566   1.505  0.00  0.00    +0.360 C 
ATOM     20  N   LIG    1       -0.420   3.452   0.661  0.00  0.00    -0.360 N 
ATOM     21  C   LIG    1       -0.688   2.154   0.873  0.00  0.00    +0.270 A 
ATOM     22  C   LIG    1       -0.090   1.437  -0.144  0.00  0.00    -0.280 A 
ATOM     23  C   LIG    1        0.548   2.370  -0.992  0.00  0.00    +0.140 A 
ATOM     24  N   LIG    1        0.346   3.563  -0.505  0.00  0.00    -0.290 NA
BRANCH  23  25
ATOM     25  C   LIG    1        1.325   2.043  -2.241  0.00  0.00    +0.010 C 
ATOM     26  C   LIG    1        2.565   1.227  -1.872  0.00  0.00    +0.050 C 
ATOM     27  C   LIG    1        1.756   3.341  -2.928  0.00  0.00    +0.040 C 
ATOM     28  C   LIG    1        0.445   1.231  -3.193  0.00  0.00    +0.050 C 
ENDBRANCH  23  25
ENDBRANCH   1  22
TORSDOF 3
