REMARK  Name = ZINCpe000000Tjeo.0
REMARK                            x       y       z     vdW  Elec       q    Type
REMARK                         _______ _______ _______ _____ _____    ______ ____
ROOT
ATOM      1  C   LIG    1        4.193  -1.080  -0.045  0.00  0.00    +0.010 C 
ATOM      2  C   LIG    1        3.705  -1.704   1.264  0.00  0.00    +0.100 C 
ENDROOT
BRANCH   1   3
ATOM      3  C   LIG    1        5.677  -1.302  -0.185  0.00  0.00    +0.540 C 
ATOM      4  N   LIG    1        6.139  -2.453  -0.712  0.00  0.00    -0.590 N 
ATOM      5  O   LIG    1        6.455  -0.445   0.177  0.00  0.00    -0.510 OA
BRANCH   4   6
ATOM      6  C   LIG    1        7.582  -2.669  -0.848  0.00  0.00    +0.280 C 
ATOM      7  C   LIG    1        8.197  -1.575  -1.738  0.00  0.00    +0.070 C 
ATOM      8  C   LIG    1        9.730  -1.620  -1.589  0.00  0.00    -0.310 C 
ATOM      9  S   LIG    1       10.026  -2.285   0.089  0.00  0.00    +2.390 S 
ATOM     10  O   LIG    1       10.575  -1.263   0.911  0.00  0.00    -0.930 OA
ATOM     11  O   LIG    1       10.683  -3.541  -0.011  0.00  0.00    -0.930 OA
ATOM     12  C   LIG    1        8.269  -2.553   0.538  0.00  0.00    -0.310 C 
ENDBRANCH   4   6
BRANCH   4  13
ATOM     13  C   LIG    1        5.199  -3.488  -1.148  0.00  0.00    +0.270 C 
ATOM     14  C   LIG    1        4.836  -3.261  -2.617  0.00  0.00    +0.020 C 
ENDBRANCH   4  13
ENDBRANCH   1   3
BRANCH   1  15
ATOM     15  S   LIG    1        3.847   0.697  -0.032  0.00  0.00    +0.100 S 
BRANCH  15  22
ATOM     16  N   LIG    1        1.263   1.769  -0.001  0.00  0.00    -0.530 N 
ATOM     17  C   LIG    1       -0.016   1.345   0.009  0.00  0.00    +0.650 A 
ATOM     18  N   LIG    1        0.002  -0.004   0.002  0.00  0.00    -0.540 N 
ATOM     19  H   LIG    1       -0.772  -0.589   0.006  0.00  0.00    +0.460 HD
ATOM     20  N   LIG    1        1.345  -0.405  -0.013  0.00  0.00    -0.280 NA
ATOM     21  O   LIG    1       -1.009   2.051   0.018  0.00  0.00    -0.550 OA
ATOM     22  C   LIG    1        2.086   0.665  -0.014  0.00  0.00    +0.240 A 
BRANCH  16  23
ATOM     23  C   LIG    1        1.703   3.167   0.002  0.00  0.00    +0.320 C 
BRANCH  23  24
ATOM     24  C   LIG    1        1.870   3.646   1.446  0.00  0.00    +0.000 C 
BRANCH  24  26
ATOM     25  C   LIG    1        2.497   5.584   2.892  0.00  0.00    +0.020 C 
ATOM     26  C   LIG    1        2.330   5.105   1.449  0.00  0.00    +0.020 C 
ENDBRANCH  24  26
ENDBRANCH  23  24
ENDBRANCH  16  23
ENDBRANCH  15  22
ENDBRANCH   1  15
TORSDOF 8
