REMARK  Name = ZINCqH0000003sES.0
REMARK                            x       y       z     vdW  Elec       q    Type
REMARK                         _______ _______ _______ _____ _____    ______ ____
ROOT
ATOM      1  N   LIG    1       -0.839   0.778  -4.788  0.00  0.00    -0.630 N 
ATOM      2  H   LIG    1       -0.060   0.216  -4.925  0.00  0.00    +0.430 HD
ATOM      3  C   LIG    1       -1.114   1.262  -3.560  0.00  0.00    +0.510 C 
ATOM      4  O   LIG    1       -2.089   1.963  -3.389  0.00  0.00    -0.480 OA
ENDROOT
BRANCH   1   6
ATOM      5  C   LIG    1       -1.478   0.647  -7.142  0.00  0.00    -0.230 A 
ATOM      6  C   LIG    1       -1.670   1.082  -5.855  0.00  0.00    +0.090 A 
ATOM      7  S   LIG    1       -3.066   2.055  -5.750  0.00  0.00    +0.310 S 
ATOM      8  C   LIG    1       -3.414   1.876  -7.460  0.00  0.00    -0.120 A 
ATOM      9  C   LIG    1       -2.503   1.116  -8.050  0.00  0.00    +0.090 A 
BRANCH   5  10
ATOM     10  C   LIG    1       -0.359  -0.203  -7.552  0.00  0.00    +0.540 C 
ATOM     11  O   LIG    1        0.465  -0.561  -6.731  0.00  0.00    -0.530 OA
BRANCH  10  12
ATOM     12  O   LIG    1       -0.241  -0.588  -8.839  0.00  0.00    -0.350 OA
BRANCH  12  14
ATOM     13  C   LIG    1        0.859  -1.762 -10.667  0.00  0.00    +0.070 C 
ATOM     14  C   LIG    1        0.894  -1.430  -9.174  0.00  0.00    +0.200 C 
ENDBRANCH  12  14
ENDBRANCH  10  12
ENDBRANCH   5  10
ENDBRANCH   1   6
BRANCH   3  15
ATOM     15  C   LIG    1       -0.211   0.930  -2.400  0.00  0.00    +0.240 C 
BRANCH  15  16
ATOM     16  N   LIG    1       -0.723   1.572  -1.182  0.00  0.00    -0.510 NA
ATOM     17  C   LIG    1       -0.640   3.036  -1.283  0.00  0.00    +0.190 C 
BRANCH  16  18
ATOM     18  C   LIG    1       -0.013   1.086   0.008  0.00  0.00    +0.250 C 
BRANCH  18  19
ATOM     19  C   LIG    1       -0.718   1.572   1.248  0.00  0.00    -0.110 A 
ATOM     20  C   LIG    1       -0.231   2.665   1.937  0.00  0.00    +0.100 A 
ATOM     21  C   LIG    1       -0.881   3.115   3.072  0.00  0.00    -0.130 A 
ATOM     22  C   LIG    1       -2.014   2.465   3.526  0.00  0.00    +0.090 A 
ATOM     23  C   LIG    1       -2.502   1.367   2.843  0.00  0.00    -0.070 A 
ATOM     24 BR   LIG    1       -0.216   4.618   4.008  0.00  0.00    -0.050 Br
ATOM     25  C   LIG    1       -1.854   0.918   1.702  0.00  0.00    +0.170 A 
BRANCH  25  26
ATOM     26  O   LIG    1       -2.332  -0.162   1.029  0.00  0.00    -0.300 OA
ATOM     27  C   LIG    1       -3.506  -0.786   1.553  0.00  0.00    +0.240 C 
ENDBRANCH  25  26
ENDBRANCH  18  19
ENDBRANCH  16  18
ENDBRANCH  15  16
ENDBRANCH   3  15
TORSDOF 9
