REMARK  Name = ZINCvU0000000Fg0.0
REMARK                            x       y       z     vdW  Elec       q    Type
REMARK                         _______ _______ _______ _____ _____    ______ ____
ROOT
ATOM      1  C   LIG    1       -0.136   5.833   0.035  0.00  0.00    +0.380 A 
ATOM      2  N   LIG    1       -0.982   4.830   0.037  0.00  0.00    -0.510 NA
ATOM      3  C   LIG    1       -0.560   3.550   0.026  0.00  0.00    +0.090 A 
ATOM      4  C   LIG    1        0.804   3.275   0.012  0.00  0.00    -0.220 A 
ATOM      5  C   LIG    1        1.076   1.843   0.002  0.00  0.00    +0.010 A 
ATOM      6  C   LIG    1       -0.013   1.076   0.008  0.00  0.00    -0.040 A 
ATOM      7  C   LIG    1        1.709   4.376   0.009  0.00  0.00    +0.570 A 
ATOM      8  O   LIG    1        2.914   4.187  -0.003  0.00  0.00    -0.500 OA
ATOM      9  S   LIG    1       -1.472   2.046   0.019  0.00  0.00    +0.220 S 
ATOM     10  N   LIG    1        1.213   5.628   0.021  0.00  0.00    -0.510 N 
ENDROOT
BRANCH   5  11
ATOM     11  C   LIG    1        2.450   1.287  -0.014  0.00  0.00    -0.040 A 
ATOM     12  C   LIG    1        3.379   1.744  -0.948  0.00  0.00    +0.060 A 
ATOM     13  C   LIG    1        4.658   1.226  -0.954  0.00  0.00    +0.000 A 
ATOM     14  C   LIG    1        5.016   0.247  -0.044  0.00  0.00    +0.010 A 
ATOM     15  C   LIG    1        4.096  -0.214   0.881  0.00  0.00    -0.010 A 
ATOM     16  C   LIG    1        2.816   0.300   0.901  0.00  0.00    +0.020 A 
ENDBRANCH   5  11
BRANCH   1  17
ATOM     17  S   LIG    1       -0.757   7.482   0.050  0.00  0.00    +0.050 S 
BRANCH  17  18
ATOM     18  C   LIG    1       -2.536   7.148   0.065  0.00  0.00    +0.270 C 
BRANCH  18  23
ATOM     19  C   LIG    1       -4.938  11.307   1.576  0.00  0.00    +0.250 C 
ATOM     20  C   LIG    1       -4.318  10.229   0.725  0.00  0.00    +0.180 A 
ATOM     21  N   LIG    1       -4.302  10.188  -0.577  0.00  0.00    -0.290 NA
ATOM     22  N   LIG    1       -3.688   9.125  -0.963  0.00  0.00    -0.250 NA
ATOM     23  C   LIG    1       -3.291   8.452   0.080  0.00  0.00    +0.160 A 
ATOM     24  O   LIG    1       -3.684   9.131   1.171  0.00  0.00    -0.220 OA
ENDBRANCH  18  23
ENDBRANCH  17  18
ENDBRANCH   1  17
BRANCH  10  25
ATOM     25  C   LIG    1        2.125   6.775   0.018  0.00  0.00    +0.360 C 
BRANCH  25  26
ATOM     26  C   LIG    1        2.423   7.176  -1.404  0.00  0.00    -0.130 A 
ATOM     27  C   LIG    1        3.501   6.618  -2.067  0.00  0.00    +0.040 A 
ATOM     28  C   LIG    1        3.772   6.982  -3.373  0.00  0.00    +0.010 A 
ATOM     29  C   LIG    1        2.972   7.911  -4.012  0.00  0.00    +0.030 A 
ATOM     30  C   LIG    1        1.897   8.472  -3.347  0.00  0.00    +0.010 A 
ATOM     31  C   LIG    1        1.623   8.104  -2.043  0.00  0.00    +0.030 A 
ENDBRANCH  25  26
ENDBRANCH  10  25
TORSDOF 6
