REMARK  Name = ZINCrg00000J0ae8.0
REMARK                            x       y       z     vdW  Elec       q    Type
REMARK                         _______ _______ _______ _____ _____    ______ ____
ROOT
ATOM      1  C   LIG    1       -0.511  -2.111  -1.176  0.00  0.00    -0.110 A 
ATOM      2  C   LIG    1       -1.700  -2.569  -1.746  0.00  0.00    +0.030 A 
ATOM      3  C   LIG    1       -2.677  -1.667  -2.115  0.00  0.00    +0.020 A 
ATOM      4  C   LIG    1       -2.482  -0.312  -1.915  0.00  0.00    +0.030 A 
ATOM      5  C   LIG    1       -1.309   0.148  -1.344  0.00  0.00    +0.030 A 
ATOM      6  C   LIG    1       -0.324  -0.743  -0.971  0.00  0.00    -0.080 A 
ENDROOT
BRANCH   1   8
ATOM      7  O   LIG    1        0.986  -3.058   0.347  0.00  0.00    -0.520 OA
ATOM      8  C   LIG    1        0.543  -3.071  -0.784  0.00  0.00    +0.570 C 
ATOM      9  N   LIG    1        1.012  -3.960  -1.682  0.00  0.00    -0.600 N 
ATOM     10  C   LIG    1        0.424  -4.057  -3.027  0.00  0.00    +0.280 C 
ATOM     11  C   LIG    1        1.562  -3.980  -4.057  0.00  0.00    +0.170 C 
ATOM     12  N   LIG    1        2.568  -5.003  -3.745  0.00  0.00    -0.520 NA
ATOM     13  C   LIG    1        3.188  -4.759  -2.436  0.00  0.00    +0.190 C 
ATOM     14  C   LIG    1        2.121  -4.863  -1.341  0.00  0.00    +0.300 C 
BRANCH  12  15
ATOM     15  C   LIG    1        3.584  -5.082  -4.802  0.00  0.00    +0.260 C 
BRANCH  15  16
ATOM     16  C   LIG    1        4.229  -3.708  -4.993  0.00  0.00    +0.410 C 
ATOM     17  F   LIG    1        3.272  -2.805  -5.470  0.00  0.00    -0.180 F 
ATOM     18  F   LIG    1        5.276  -3.808  -5.916  0.00  0.00    -0.180 F 
ATOM     19  F   LIG    1        4.730  -3.253  -3.768  0.00  0.00    -0.180 F 
ENDBRANCH  15  16
ENDBRANCH  12  15
ENDBRANCH   1   8
BRANCH   6  20
ATOM     20  C   LIG    1        0.953  -0.240  -0.350  0.00  0.00    +0.370 C 
BRANCH  20  21
ATOM     21  N   LIG    1        1.974  -0.084  -1.390  0.00  0.00    -0.570 N 
ATOM     22  C   LIG    1        2.094   1.003  -2.176  0.00  0.00    +0.520 C 
ATOM     23  C   LIG    1        3.272   0.722  -3.088  0.00  0.00    +0.300 C 
ATOM     24  N   LIG    1        3.720  -0.618  -2.670  0.00  0.00    -0.730 N 
ATOM     25  H   LIG    1        4.461  -1.123  -3.041  0.00  0.00    +0.440 HD
ATOM     26  O   LIG    1        1.401   1.998  -2.161  0.00  0.00    -0.460 OA
ATOM     27  C   LIG    1        2.902  -1.005  -1.675  0.00  0.00    +0.690 C 
ATOM     28  O   LIG    1        2.996  -2.071  -1.099  0.00  0.00    -0.510 OA
ENDBRANCH  20  21
ENDBRANCH   6  20
TORSDOF 5
