REMARK  Name = ZINCqH0000000xrA.0
REMARK                            x       y       z     vdW  Elec       q    Type
REMARK                         _______ _______ _______ _____ _____    ______ ____
ROOT
ATOM      1  C   LIG    1        3.452   2.165   0.003  0.00  0.00    +0.550 C 
ATOM      2  O   LIG    1        3.327   3.374   0.022  0.00  0.00    -0.490 OA
ENDROOT
BRANCH   1   3
ATOM      3  C   LIG    1        4.792   1.566  -0.109  0.00  0.00    -0.270 A 
ATOM      4  C   LIG    1        5.991   2.247  -0.201  0.00  0.00    +0.350 A 
ATOM      5  N   LIG    1        6.969   1.329  -0.287  0.00  0.00    -0.310 N 
ATOM      6  N   LIG    1        6.388   0.056  -0.248  0.00  0.00    -0.290 NA
ATOM      7  C   LIG    1        5.094   0.185  -0.137  0.00  0.00    +0.330 A 
BRANCH   5   8
ATOM      8  C   LIG    1        8.341   1.600  -0.395  0.00  0.00    +0.110 A 
ATOM      9  C   LIG    1        9.252   0.556  -0.476  0.00  0.00    +0.110 A 
ATOM     10  C   LIG    1       10.602   0.825  -0.584  0.00  0.00    +0.020 A 
ATOM     11  C   LIG    1       11.049   2.135  -0.611  0.00  0.00    +0.130 A 
ATOM     12  C   LIG    1       10.144   3.180  -0.530  0.00  0.00    +0.000 A 
ATOM     13  F   LIG    1       12.371   2.395  -0.716  0.00  0.00    -0.120 F 
ATOM     14  C   LIG    1        8.790   2.916  -0.428  0.00  0.00    +0.120 A 
ATOM     15  F   LIG    1        7.906   3.934  -0.355  0.00  0.00    -0.120 F 
ENDBRANCH   5   8
ENDBRANCH   1   3
BRANCH   1  16
ATOM     16  O   LIG    1        2.364   1.374   0.086  0.00  0.00    -0.280 OA
BRANCH  16  20
ATOM     17  C   LIG    1       -1.321   3.240   0.055  0.00  0.00    -0.140 A 
ATOM     18  C   LIG    1       -0.749   2.833   1.266  0.00  0.00    +0.090 A 
ATOM     19  C   LIG    1        0.480   2.211   1.270  0.00  0.00    +0.050 A 
ATOM     20  C   LIG    1        1.153   1.987   0.075  0.00  0.00    +0.090 A 
ATOM     21  C   LIG    1        0.590   2.391  -1.133  0.00  0.00    +0.090 A 
ATOM     22  F   LIG    1        1.249   2.171  -2.291  0.00  0.00    -0.120 F 
ATOM     23  C   LIG    1       -0.636   3.019  -1.147  0.00  0.00    +0.060 A 
BRANCH  17  25
ATOM     24  C   LIG    1       -3.302   4.227  -1.265  0.00  0.00    +0.080 C 
ATOM     25  C   LIG    1       -2.631   3.904   0.045  0.00  0.00    +0.400 C 
ATOM     26  O   LIG    1       -3.173   4.192   1.091  0.00  0.00    -0.450 OA
ENDBRANCH  17  25
ENDBRANCH  16  20
ENDBRANCH   1  16
TORSDOF 5
