REMARK  Name = ZINCb800000010Hd.0
REMARK                            x       y       z     vdW  Elec       q    Type
REMARK                         _______ _______ _______ _____ _____    ______ ____
ROOT
ATOM      1  C   LIG    1        1.188  -1.827   3.163  0.00  0.00    +0.100 C 
ATOM      2  C   LIG    1        0.332  -1.357   2.016  0.00  0.00    +0.510 C 
ATOM      3  N   LIG    1        0.824  -0.472   1.126  0.00  0.00    -0.620 N 
ATOM      4  C   LIG    1        2.194   0.042   1.262  0.00  0.00    +0.260 C 
ATOM      5  C   LIG    1        2.149   1.573   1.256  0.00  0.00    +0.020 C 
ATOM      6  C   LIG    1        1.419   2.053  -0.001  0.00  0.00    +0.020 C 
ATOM      7  C   LIG    1       -0.019   1.528   0.010  0.00  0.00    -0.020 C 
ATOM      8  C   LIG    1        0.002  -0.004   0.002  0.00  0.00    +0.280 C 
ATOM      9  O   LIG    1       -0.800  -1.774   1.893  0.00  0.00    -0.540 OA
ENDROOT
BRANCH   7  10
ATOM     10  C   LIG    1       -0.757   2.035  -1.230  0.00  0.00    +0.180 C 
BRANCH  10  11
ATOM     11  O   LIG    1       -2.129   1.639  -1.163  0.00  0.00    -0.570 OA
ATOM     12  H   LIG    1       -2.659   1.927  -1.918  0.00  0.00    +0.380 HD
ENDBRANCH  10  11
ENDBRANCH   7  10
TORSDOF 2
