REMARK  Name = ZINCrD00000753fh.0
REMARK                            x       y       z     vdW  Elec       q    Type
REMARK                         _______ _______ _______ _____ _____    ______ ____
ROOT
ATOM      1  C   LIG    1        6.512   2.358  -1.470  0.00  0.00    +0.470 C 
ATOM      2  O   LIG    1        5.809   1.995  -2.383  0.00  0.00    -0.490 OA
ENDROOT
BRANCH   1   3
ATOM      3  C   LIG    1        6.083   2.114  -0.046  0.00  0.00    +0.180 C 
BRANCH   3  15
ATOM      4  C   LIG    1        5.993  -0.765  -0.061  0.00  0.00    +0.120 C 
ATOM      5  C   LIG    1        4.703   0.014  -0.044  0.00  0.00    +0.180 A 
ATOM      6  N   LIG    1        3.565  -0.636  -0.036  0.00  0.00    -0.480 NA
ATOM      7  C   LIG    1        2.395   0.011  -0.021  0.00  0.00    +0.140 A 
ATOM      8  C   LIG    1        1.177  -0.691  -0.013  0.00  0.00    +0.040 A 
ATOM      9  C   LIG    1        0.002  -0.004   0.002  0.00  0.00    +0.030 A 
ATOM     10  C   LIG    1       -0.017   1.389   0.010  0.00  0.00    +0.010 A 
ATOM     11  C   LIG    1        1.142   2.103   0.002  0.00  0.00    +0.040 A 
ATOM     12  C   LIG    1        2.373   1.428  -0.013  0.00  0.00    -0.110 A 
ATOM     13  C   LIG    1        3.594   2.130  -0.021  0.00  0.00    +0.000 A 
ATOM     14  C   LIG    1        3.621   3.636  -0.013  0.00  0.00    +0.110 C 
ATOM     15  C   LIG    1        4.752   1.407  -0.036  0.00  0.00    -0.140 A 
ENDBRANCH   3  15
ENDBRANCH   1   3
BRANCH   1  16
ATOM     16  O   LIG    1        7.675   2.979  -1.723  0.00  0.00    -0.330 OA
BRANCH  16  17
ATOM     17  C   LIG    1        8.024   3.181  -3.118  0.00  0.00    +0.250 C 
BRANCH  17  18
ATOM     18  C   LIG    1        9.352   3.888  -3.206  0.00  0.00    +0.520 C 
ATOM     19  N   LIG    1        9.880   4.182  -4.411  0.00  0.00    -0.730 N 
ATOM     20  H   LIG    1        9.405   3.938  -5.221  0.00  0.00    +0.400 HD
ATOM     21  O   LIG    1        9.945   4.192  -2.193  0.00  0.00    -0.510 OA
BRANCH  19  22
ATOM     22  C   LIG    1       11.171   4.869  -4.497  0.00  0.00    +0.280 C 
BRANCH  22  23
ATOM     23  C   LIG    1       11.539   5.081  -5.967  0.00  0.00    +0.110 C 
BRANCH  23  24
ATOM     24  C   LIG    1       12.867   5.788  -6.055  0.00  0.00    -0.180 A 
ATOM     25  C   LIG    1       14.056   5.187  -6.111  0.00  0.00    +0.010 A 
ATOM     26  C   LIG    1       15.140   6.044  -6.189  0.00  0.00    +0.000 A 
ATOM     27  C   LIG    1       14.832   7.342  -6.196  0.00  0.00    -0.040 A 
ATOM     28  S   LIG    1       13.085   7.533  -6.108  0.00  0.00    +0.100 S 
ENDBRANCH  23  24
ENDBRANCH  22  23
ENDBRANCH  19  22
ENDBRANCH  17  18
ENDBRANCH  16  17
ENDBRANCH   1  16
TORSDOF 8
