REMARK  Name = ZINCpk00000xI7RA.0
REMARK                            x       y       z     vdW  Elec       q    Type
REMARK                         _______ _______ _______ _____ _____    ______ ____
ROOT
ATOM      1  C   LIG    1       -4.521   4.651  -0.054  0.00  0.00    +0.540 C 
ATOM      2  N   LIG    1       -5.753   4.294  -0.465  0.00  0.00    -0.680 N 
ATOM      3  H   LIG    1       -5.940   3.370  -0.692  0.00  0.00    +0.410 HD
ATOM      4  C   LIG    1       -6.727   5.221  -0.561  0.00  0.00    +0.700 C 
ATOM      5  N   LIG    1       -7.959   4.864  -0.973  0.00  0.00    -0.730 N 
ATOM      6  H   LIG    1       -8.146   3.939  -1.199  0.00  0.00    +0.400 HD
ATOM      7  O   LIG    1       -6.493   6.380  -0.277  0.00  0.00    -0.520 OA
ATOM      8  O   LIG    1       -4.287   5.807   0.230  0.00  0.00    -0.450 OA
ENDROOT
BRANCH   1  10
ATOM      9  C   LIG    1       -3.599   2.833   1.359  0.00  0.00    +0.100 C 
ATOM     10  C   LIG    1       -3.432   3.615   0.054  0.00  0.00    +0.010 C 
BRANCH  10  11
ATOM     11  S   LIG    1       -1.817   4.432   0.043  0.00  0.00    +0.110 S 
BRANCH  11  12
ATOM     12  C   LIG    1       -0.761   3.022   0.026  0.00  0.00    +0.250 A 
ATOM     13  N   LIG    1       -1.152   1.780   0.017  0.00  0.00    -0.280 NA
ATOM     14  N   LIG    1       -0.011   0.966   0.007  0.00  0.00    -0.540 N 
ATOM     15  H   LIG    1        0.002  -0.004   0.002  0.00  0.00    +0.460 HD
ATOM     16  C   LIG    1        1.065   1.779   0.001  0.00  0.00    +0.650 A 
ATOM     17  O   LIG    1        2.232   1.429  -0.012  0.00  0.00    -0.540 OA
ATOM     18  N   LIG    1        0.615   3.050   0.013  0.00  0.00    -0.500 N 
BRANCH  18  19
ATOM     19  C   LIG    1        1.449   4.255   0.010  0.00  0.00    +0.210 C 
ATOM     20  C   LIG    1        2.952   4.074  -0.212  0.00  0.00    +0.070 C 
ATOM     21  C   LIG    1        2.422   4.443   1.176  0.00  0.00    +0.040 C 
ENDBRANCH  18  19
ENDBRANCH  11  12
ENDBRANCH  10  11
ENDBRANCH   1  10
BRANCH   5  22
ATOM     22  C   LIG    1       -9.017   5.872  -1.078  0.00  0.00    +0.340 C 
BRANCH  22  23
ATOM     23  C   LIG    1      -10.288   5.218  -1.556  0.00  0.00    -0.110 A 
ATOM     24  C   LIG    1      -10.557   5.138  -2.909  0.00  0.00    +0.030 A 
ATOM     25  C   LIG    1      -11.721   4.534  -3.348  0.00  0.00    +0.010 A 
ATOM     26  C   LIG    1      -12.620   4.020  -2.433  0.00  0.00    +0.010 A 
ATOM     27  C   LIG    1      -12.354   4.105  -1.079  0.00  0.00    +0.010 A 
ATOM     28  C   LIG    1      -11.188   4.704  -0.640  0.00  0.00    +0.030 A 
ENDBRANCH  22  23
ENDBRANCH   5  22
TORSDOF 6
