REMARK  Name = ZINCbw0000000HiH.0
REMARK                            x       y       z     vdW  Elec       q    Type
REMARK                         _______ _______ _______ _____ _____    ______ ____
ROOT
ATOM      1  C   LIG    1        0.002  -0.004   0.002  0.00  0.00    +0.130 C 
ATOM      2  C   LIG    1       -0.018   1.503   0.010  0.00  0.00    +0.100 A 
ATOM      3  C   LIG    1        1.171   2.229   0.003  0.00  0.00    -0.160 A 
ATOM      4  C   LIG    1        2.543   1.891  -0.012  0.00  0.00    -0.090 A 
ATOM      5  C   LIG    1        3.226   3.067  -0.012  0.00  0.00    +0.220 A 
ATOM      6  N   LIG    1        2.368   4.089   0.001  0.00  0.00    -0.530 NA
ATOM      7  C   LIG    1        1.120   3.651   0.011  0.00  0.00    +0.240 A 
ATOM      8  N   LIG    1       -0.102   4.274   0.026  0.00  0.00    -0.490 N 
ATOM      9  H   LIG    1       -0.146   5.243   0.032  0.00  0.00    +0.430 HD
ATOM     10  C   LIG    1       -1.237   3.557   0.032  0.00  0.00    +0.380 A 
ATOM     11  C   LIG    1       -1.225   2.195   0.020  0.00  0.00    -0.210 A 
ATOM     12 BR   LIG    1       -2.857   1.240   0.021  0.00  0.00    -0.010 Br
ENDROOT
TORSDOF 0
