REMARK  Name = ZINCbw0000000HiH.1
REMARK                            x       y       z     vdW  Elec       q    Type
REMARK                         _______ _______ _______ _____ _____    ______ ____
ROOT
ATOM      1  C   LIG    1       -2.560   3.873   0.047  0.00  0.00    +0.120 C 
ATOM      2  C   LIG    1       -1.255   3.119   0.030  0.00  0.00    +0.040 A 
ATOM      3  C   LIG    1       -0.034   3.796   0.023  0.00  0.00    -0.150 A 
ATOM      4  C   LIG    1        0.353   5.208   0.028  0.00  0.00    -0.040 A 
ATOM      5  C   LIG    1        1.695   5.244   0.015  0.00  0.00    +0.240 A 
ATOM      6  N   LIG    1        2.196   3.970   0.003  0.00  0.00    -0.580 N 
ATOM      7  H   LIG    1        3.139   3.743  -0.007  0.00  0.00    +0.420 HD
ATOM      8  C   LIG    1        1.166   3.059   0.007  0.00  0.00    +0.300 A 
ATOM      9  N   LIG    1        1.127   1.734   0.001  0.00  0.00    -0.490 NA
ATOM     10  C   LIG    1       -0.013   1.076   0.008  0.00  0.00    +0.340 A 
ATOM     11  C   LIG    1       -1.232   1.736   0.017  0.00  0.00    -0.180 A 
ATOM     12 BR   LIG    1       -2.849   0.755   0.019  0.00  0.00    -0.030 Br
ENDROOT
TORSDOF 0
