REMARK  Name = ZINCvU0000000JWH.0
REMARK                            x       y       z     vdW  Elec       q    Type
REMARK                         _______ _______ _______ _____ _____    ______ ____
ROOT
ATOM      1  C   LIG    1       -3.683  -4.888   0.009  0.00  0.00    -0.150 A 
ATOM      2  C   LIG    1       -4.948  -4.372   0.024  0.00  0.00    +0.100 A 
ATOM      3  N   LIG    1       -5.830  -5.408   0.026  0.00  0.00    -0.410 N 
ATOM      4  C   LIG    1       -5.156  -6.596   0.014  0.00  0.00    +0.030 A 
ATOM      5  C   LIG    1       -5.790  -7.963   0.012  0.00  0.00    +0.130 C 
ATOM      6  C   LIG    1       -5.305  -2.908   0.035  0.00  0.00    +0.160 C 
ATOM      7  C   LIG    1       -3.834  -6.346  -0.003  0.00  0.00    -0.010 A 
ENDROOT
BRANCH   3   8
ATOM      8  C   LIG    1       -7.226  -5.276   0.041  0.00  0.00    +0.120 A 
ATOM      9  C   LIG    1       -7.880  -4.699  -1.039  0.00  0.00    +0.060 A 
ATOM     10  C   LIG    1       -9.256  -4.569  -1.022  0.00  0.00    +0.050 A 
ATOM     11  C   LIG    1       -9.980  -5.015   0.069  0.00  0.00    +0.090 A 
ATOM     12  C   LIG    1       -9.330  -5.591   1.145  0.00  0.00    -0.170 A 
ATOM     13  C   LIG    1       -7.956  -5.727   1.132  0.00  0.00    +0.080 A 
BRANCH  12  14
ATOM     14  C   LIG    1      -10.123  -6.075   2.332  0.00  0.00    +0.510 C 
ATOM     15  F   LIG    1       -9.709  -5.392   3.480  0.00  0.00    -0.170 F 
ATOM     16  F   LIG    1       -9.914  -7.448   2.504  0.00  0.00    -0.170 F 
ATOM     17  F   LIG    1      -11.484  -5.835   2.112  0.00  0.00    -0.170 F 
ENDBRANCH  12  14
ENDBRANCH   3   8
BRANCH   1  19
ATOM     18  N   LIG    1       -2.441  -2.831   0.009  0.00  0.00    -0.250 NA
ATOM     19  C   LIG    1       -2.420  -4.129   0.002  0.00  0.00    +0.280 C 
BRANCH  18  21
ATOM     20  C   LIG    1       -1.263  -0.763   0.009  0.00  0.00    +0.580 C 
ATOM     21  N   LIG    1       -1.240  -2.111   0.002  0.00  0.00    -0.580 N 
ATOM     22  H   LIG    1       -0.392  -2.581  -0.008  0.00  0.00    +0.380 HD
ATOM     23  O   LIG    1       -2.326  -0.173   0.022  0.00  0.00    -0.480 OA
BRANCH  20  30
ATOM     24  C   LIG    1       -0.017   1.398   0.010  0.00  0.00    +0.200 A 
ATOM     25  C   LIG    1        1.177   2.101   0.002  0.00  0.00    -0.060 A 
ATOM     26  C   LIG    1        2.381   1.423  -0.013  0.00  0.00    +0.100 A 
ATOM     27  C   LIG    1        2.405   0.038  -0.021  0.00  0.00    -0.080 A 
ATOM     28  C   LIG    1        1.226  -0.678  -0.013  0.00  0.00    +0.100 A 
ATOM     29 CL   LIG    1        3.925  -0.800  -0.040  0.00  0.00    -0.060 Cl
ATOM     30  C   LIG    1        0.002  -0.004   0.002  0.00  0.00    -0.160 A 
BRANCH  24  32
ATOM     31  C   LIG    1       -1.141   3.491   0.026  0.00  0.00    +0.250 C 
ATOM     32  O   LIG    1       -1.200   2.063   0.019  0.00  0.00    -0.280 OA
ENDBRANCH  24  32
ENDBRANCH  20  30
ENDBRANCH  18  21
ENDBRANCH   1  19
TORSDOF 6
