REMARK  Name = ZINCrD0000075qn0.0
REMARK                            x       y       z     vdW  Elec       q    Type
REMARK                         _______ _______ _______ _____ _____    ______ ____
ROOT
ATOM      1  O   LIG    1        1.558  -1.260  -2.547  0.00  0.00    -0.500 OA
ATOM      2  C   LIG    1        1.480  -2.247  -1.847  0.00  0.00    +0.500 C 
ATOM      3  N   LIG    1        1.577  -3.473  -2.398  0.00  0.00    -0.660 N 
ATOM      4  H   LIG    1        1.596  -4.260  -1.831  0.00  0.00    +0.420 HD
ENDROOT
BRANCH   3   5
ATOM      5  C   LIG    1        1.653  -3.611  -3.791  0.00  0.00    +0.150 A 
ATOM      6  C   LIG    1        1.129  -2.628  -4.616  0.00  0.00    +0.060 A 
ATOM      7  C   LIG    1        1.204  -2.767  -5.991  0.00  0.00    -0.040 A 
ATOM      8  C   LIG    1        1.802  -3.884  -6.545  0.00  0.00    +0.040 A 
ATOM      9  C   LIG    1        2.327  -4.869  -5.729  0.00  0.00    +0.010 A 
ATOM     10 CL   LIG    1        0.548  -1.534  -7.022  0.00  0.00    -0.060 Cl
ATOM     11  C   LIG    1        2.260  -4.735  -4.350  0.00  0.00    +0.080 A 
BRANCH  11  12
ATOM     12  N   LIG    1        2.796  -5.729  -3.522  0.00  0.00    -0.470 N 
ATOM     13  C   LIG    1        3.538  -6.741  -4.317  0.00  0.00    +0.180 C 
ATOM     14  C   LIG    1        4.463  -7.407  -3.267  0.00  0.00    +0.040 C 
ATOM     15  C   LIG    1        4.873  -6.221  -2.365  0.00  0.00    +0.020 C 
ATOM     16  C   LIG    1        3.780  -5.157  -2.578  0.00  0.00    +0.180 C 
ENDBRANCH  11  12
ENDBRANCH   3   5
BRANCH   2  17
ATOM     17  C   LIG    1        1.273  -2.103  -0.361  0.00  0.00    +0.340 C 
BRANCH  17  18
ATOM     18  N   LIG    1        1.199  -0.682  -0.013  0.00  0.00    -0.530 N 
ATOM     19  C   LIG    1        2.318   0.004   0.307  0.00  0.00    +0.500 C 
ATOM     20  C   LIG    1        2.218   1.457   0.698  0.00  0.00    +0.310 C 
ATOM     21  O   LIG    1        1.123   2.066   0.009  0.00  0.00    -0.300 OA
ATOM     22  C   LIG    1       -0.052   1.381   0.002  0.00  0.00    +0.080 A 
ATOM     23  C   LIG    1       -1.261   2.053   0.010  0.00  0.00    +0.030 A 
ATOM     24  C   LIG    1       -2.446   1.340   0.001  0.00  0.00    +0.030 A 
ATOM     25  C   LIG    1       -2.428  -0.042  -0.009  0.00  0.00    +0.020 A 
ATOM     26  C   LIG    1       -1.223  -0.722  -0.014  0.00  0.00    +0.000 A 
ATOM     27  O   LIG    1        3.398  -0.546   0.280  0.00  0.00    -0.500 OA
ATOM     28  C   LIG    1       -0.033  -0.013  -0.009  0.00  0.00    +0.100 A 
ENDBRANCH  17  18
ENDBRANCH   2  17
TORSDOF 4
