REMARK  Name = ZINCrH00000tj1p8.0
REMARK                            x       y       z     vdW  Elec       q    Type
REMARK                         _______ _______ _______ _____ _____    ______ ____
ROOT
ATOM      1  N   LIG    1       -2.490  -1.438   3.916  0.00  0.00    -0.130 N 
ATOM      2  N   LIG    1       -3.178  -2.519   3.801  0.00  0.00    -0.050 NA
ATOM      3  N   LIG    1       -4.343  -2.332   4.324  0.00  0.00    -0.270 NA
ATOM      4  C   LIG    1       -4.375  -1.074   4.784  0.00  0.00    +0.220 A 
ATOM      5  N   LIG    1       -3.198  -0.544   4.517  0.00  0.00    -0.290 NA
ENDROOT
BRANCH   4   6
ATOM      6  C   LIG    1       -5.513  -0.408   5.467  0.00  0.00    -0.020 A 
ATOM      7  C   LIG    1       -5.394   0.912   5.897  0.00  0.00    +0.050 A 
ATOM      8  C   LIG    1       -6.457   1.528   6.527  0.00  0.00    +0.010 A 
ATOM      9  C   LIG    1       -7.633   0.833   6.742  0.00  0.00    -0.060 A 
ATOM     10  C   LIG    1       -7.754  -0.479   6.322  0.00  0.00    +0.010 A 
ATOM     11  C   LIG    1       -6.700  -1.103   5.686  0.00  0.00    +0.070 A 
BRANCH   9  12
ATOM     12  C   LIG    1       -8.788   1.508   7.436  0.00  0.00    +0.020 C 
ATOM     13  C   LIG    1       -9.222   2.734   6.629  0.00  0.00    +0.030 C 
ATOM     14  C   LIG    1       -8.355   1.947   8.836  0.00  0.00    +0.030 C 
ENDBRANCH   9  12
ENDBRANCH   4   6
BRANCH   1  15
ATOM     15  C   LIG    1       -1.116  -1.254   3.444  0.00  0.00    +0.410 C 
BRANCH  15  17
ATOM     16  N   LIG    1        0.022  -0.500   1.381  0.00  0.00    -0.600 N 
ATOM     17  C   LIG    1       -1.136  -0.744   2.026  0.00  0.00    +0.510 C 
ATOM     18  O   LIG    1       -2.194  -0.553   1.465  0.00  0.00    -0.500 OA
BRANCH  16  19
ATOM     19  C   LIG    1        1.300  -0.730   2.058  0.00  0.00    +0.320 C 
BRANCH  19  21
ATOM     20  C   LIG    1        1.993   0.495   4.053  0.00  0.00    +0.030 C 
ATOM     21  C   LIG    1        1.725   0.527   2.771  0.00  0.00    -0.070 C 
ENDBRANCH  19  21
ENDBRANCH  16  19
BRANCH  16  22
ATOM     22  C   LIG    1        0.002  -0.004   0.002  0.00  0.00    +0.390 C 
BRANCH  22  23
ATOM     23  C   LIG    1       -0.018   1.503   0.010  0.00  0.00    -0.210 A 
ATOM     24  C   LIG    1        1.061   2.287   0.004  0.00  0.00    +0.020 A 
ATOM     25  C   LIG    1        0.795   3.645   0.014  0.00  0.00    +0.000 A 
ATOM     26  C   LIG    1       -0.499   3.965   0.027  0.00  0.00    -0.050 A 
ATOM     27  S   LIG    1       -1.469   2.497   0.022  0.00  0.00    +0.140 S 
ENDBRANCH  22  23
ENDBRANCH  16  22
ENDBRANCH  15  17
ENDBRANCH   1  15
TORSDOF 8
