REMARK  Name = ZINCpk000000n6t5.0
REMARK                            x       y       z     vdW  Elec       q    Type
REMARK                         _______ _______ _______ _____ _____    ______ ____
ROOT
ATOM      1  N   LIG    1       -0.764   4.417   0.159  0.00  0.00    -0.600 N 
ATOM      2  C   LIG    1       -0.846   3.937   1.543  0.00  0.00    +0.270 C 
ATOM      3  C   LIG    1       -1.553   2.566   1.462  0.00  0.00    +0.090 C 
ATOM      4  C   LIG    1       -1.216   2.122   0.020  0.00  0.00    +0.260 C 
ATOM      5  C   LIG    1       -0.963   3.416  -0.721  0.00  0.00    +0.520 C 
ATOM      6  O   LIG    1       -0.944   3.534  -1.928  0.00  0.00    -0.490 OA
ENDROOT
BRANCH   4   7
ATOM      7  N   LIG    1       -0.015   1.282   0.009  0.00  0.00    -0.280 N 
ATOM      8  C   LIG    1        1.260   1.729  -0.001  0.00  0.00    +0.180 A 
ATOM      9  C   LIG    1        2.050   0.615  -0.014  0.00  0.00    +0.010 A 
ATOM     10  N   LIG    1        1.213  -0.438  -0.012  0.00  0.00    -0.240 NA
ATOM     11  N   LIG    1        0.002  -0.004   0.002  0.00  0.00    -0.070 NA
BRANCH   9  12
ATOM     12  C   LIG    1        3.533   0.575  -0.029  0.00  0.00    +0.040 A 
ATOM     13  C   LIG    1        4.283   1.754  -0.036  0.00  0.00    -0.020 A 
ATOM     14  C   LIG    1        5.660   1.671  -0.045  0.00  0.00    +0.260 A 
ATOM     15  N   LIG    1        6.268   0.500  -0.057  0.00  0.00    -0.480 NA
ATOM     16  C   LIG    1        5.597  -0.636  -0.056  0.00  0.00    +0.260 A 
ATOM     17  C   LIG    1        4.218  -0.644  -0.042  0.00  0.00    -0.010 A 
ENDBRANCH   9  12
ENDBRANCH   4   7
BRANCH   1  18
ATOM     18  C   LIG    1       -0.499   5.808  -0.219  0.00  0.00    +0.390 C 
BRANCH  18  19
ATOM     19  C   LIG    1        0.987   6.017  -0.359  0.00  0.00    +0.450 C 
ATOM     20  O   LIG    1        1.747   5.098  -0.164  0.00  0.00    -0.500 OA
BRANCH  19  21
ATOM     21  O   LIG    1        1.465   7.223  -0.702  0.00  0.00    -0.350 OA
BRANCH  21  23
ATOM     22  C   LIG    1        3.420   6.386  -1.889  0.00  0.00    +0.030 C 
ATOM     23  C   LIG    1        2.907   7.351  -0.818  0.00  0.00    +0.120 C 
ATOM     24  C   LIG    1        3.559   7.016   0.525  0.00  0.00    +0.030 C 
ATOM     25  C   LIG    1        3.261   8.786  -1.213  0.00  0.00    +0.080 C 
ENDBRANCH  21  23
ENDBRANCH  19  21
ENDBRANCH  18  19
ENDBRANCH   1  18
TORSDOF 6
