REMARK  Name = ZINCqH0000037Kxu.0
REMARK                            x       y       z     vdW  Elec       q    Type
REMARK                         _______ _______ _______ _____ _____    ______ ____
ROOT
ATOM      1  C   LIG    1        1.655   4.902  -2.900  0.00  0.00    +0.520 C 
ATOM      2  N   LIG    1        1.634   3.925  -1.971  0.00  0.00    -0.670 N 
ATOM      3  H   LIG    1        1.397   3.019  -2.225  0.00  0.00    +0.410 HD
ATOM      4  O   LIG    1        2.047   6.011  -2.604  0.00  0.00    -0.490 OA
ENDROOT
BRANCH   2   5
ATOM      5  C   LIG    1        1.953   4.218  -0.639  0.00  0.00    +0.160 A 
ATOM      6  C   LIG    1        1.791   5.506  -0.152  0.00  0.00    +0.020 A 
ATOM      7  C   LIG    1        2.113   5.794   1.161  0.00  0.00    +0.040 A 
ATOM      8  C   LIG    1        2.591   4.799   1.994  0.00  0.00    +0.000 A 
ATOM      9  C   LIG    1        2.749   3.511   1.519  0.00  0.00    +0.040 A 
ATOM     10  C   LIG    1        2.430   3.213   0.203  0.00  0.00    +0.110 A 
BRANCH  10  11
ATOM     11  N   LIG    1        2.591   1.909  -0.281  0.00  0.00    -0.580 N 
ATOM     12  C   LIG    1        1.552   0.873  -0.232  0.00  0.00    +0.260 C 
ATOM     13  C   LIG    1        2.292  -0.464  -0.456  0.00  0.00    +0.060 C 
ATOM     14  C   LIG    1        3.540  -0.006  -1.245  0.00  0.00    +0.070 C 
ATOM     15  C   LIG    1        3.716   1.444  -0.850  0.00  0.00    +0.520 C 
ATOM     16  O   LIG    1        4.727   2.093  -1.022  0.00  0.00    -0.510 OA
ENDBRANCH  10  11
ENDBRANCH   2   5
BRANCH   1  17
ATOM     17  C   LIG    1        1.192   4.616  -4.305  0.00  0.00    +0.230 C 
BRANCH  17  18
ATOM     18  O   LIG    1        1.309   5.800  -5.096  0.00  0.00    -0.300 OA
BRANCH  18  23
ATOM     19  C   LIG    1       -0.263   5.439 -10.492  0.00  0.00    +0.090 C 
ATOM     20  C   LIG    1        0.158   5.535  -9.048  0.00  0.00    -0.080 A 
ATOM     21  C   LIG    1       -0.765   5.893  -8.083  0.00  0.00    +0.010 A 
ATOM     22  C   LIG    1       -0.382   5.983  -6.759  0.00  0.00    -0.090 A 
ATOM     23  C   LIG    1        0.930   5.713  -6.398  0.00  0.00    +0.080 A 
ATOM     24  C   LIG    1        1.855   5.360  -7.369  0.00  0.00    -0.090 A 
ATOM     25  C   LIG    1        3.283   5.072  -6.981  0.00  0.00    +0.100 C 
ATOM     26  C   LIG    1       -1.389   6.372  -5.707  0.00  0.00    +0.100 C 
ATOM     27  C   LIG    1        1.466   5.266  -8.691  0.00  0.00    +0.010 A 
ENDBRANCH  18  23
ENDBRANCH  17  18
ENDBRANCH   1  17
TORSDOF 5
