REMARK  Name = ZINCrH00000No4Et.0
REMARK                            x       y       z     vdW  Elec       q    Type
REMARK                         _______ _______ _______ _____ _____    ______ ____
ROOT
ATOM      1  N   LIG    1       -3.123   3.036   1.592  0.00  0.00    -0.600 N 
ATOM      2  C   LIG    1       -4.247   2.337   1.342  0.00  0.00    +0.560 C 
ATOM      3  O   LIG    1       -4.177   1.162   1.039  0.00  0.00    -0.510 OA
ATOM      4  C   LIG    1       -3.199   4.475   1.860  0.00  0.00    +0.300 C 
ENDROOT
BRANCH   2   5
ATOM      5  C   LIG    1       -5.566   2.999   1.435  0.00  0.00    -0.120 A 
ATOM      6  C   LIG    1       -6.652   2.338   2.011  0.00  0.00    +0.340 A 
ATOM      7  N   LIG    1       -7.827   2.927   2.095  0.00  0.00    -0.410 NA
ATOM      8  C   LIG    1       -8.028   4.150   1.645  0.00  0.00    +0.030 A 
ATOM      9  C   LIG    1       -7.001   4.874   1.060  0.00  0.00    +0.100 A 
ATOM     10  F   LIG    1       -7.222   6.127   0.604  0.00  0.00    -0.100 F 
ATOM     11  C   LIG    1       -5.744   4.301   0.953  0.00  0.00    +0.090 A 
BRANCH   8  12
ATOM     12  C   LIG    1       -9.395   4.771   1.770  0.00  0.00    +0.520 C 
ATOM     13  F   LIG    1       -9.928   4.985   0.494  0.00  0.00    -0.160 F 
ATOM     14  F   LIG    1       -9.294   5.993   2.444  0.00  0.00    -0.160 F 
ATOM     15  F   LIG    1      -10.234   3.911   2.487  0.00  0.00    -0.150 F 
ENDBRANCH   8  12
ENDBRANCH   2   5
BRANCH   1  16
ATOM     16  C   LIG    1       -1.824   2.359   1.596  0.00  0.00    +0.300 C 
BRANCH  16  17
ATOM     17  C   LIG    1       -1.226   2.393   0.188  0.00  0.00    +0.120 C 
BRANCH  17  20
ATOM     18  C   LIG    1        2.331   1.637   0.313  0.00  0.00    +0.050 A 
ATOM     19  N   LIG    1        1.250   2.341   0.330  0.00  0.00    -0.460 NA
ATOM     20  C   LIG    1        0.110   1.696   0.192  0.00  0.00    +0.070 A 
ATOM     21  C   LIG    1        0.235   0.373   0.051  0.00  0.00    -0.070 A 
ATOM     22  S   LIG    1        1.952  -0.018   0.105  0.00  0.00    +0.130 S 
BRANCH  18  23
ATOM     23  C   LIG    1        3.725   2.191   0.455  0.00  0.00    +0.100 C 
ATOM     24  C   LIG    1        4.539   1.852  -0.796  0.00  0.00    +0.060 C 
BRANCH  23  25
ATOM     25  C   LIG    1        4.397   1.575   1.683  0.00  0.00    +0.170 C 
BRANCH  25  27
ATOM     26  C   LIG    1        6.388   1.679   3.014  0.00  0.00    +0.200 C 
ATOM     27  O   LIG    1        5.673   2.185   1.885  0.00  0.00    -0.390 OA
ENDBRANCH  25  27
ENDBRANCH  23  25
ENDBRANCH  18  23
ENDBRANCH  17  20
ENDBRANCH  16  17
ENDBRANCH   1  16
TORSDOF 8
