REMARK  Name = ZINCqH0000003Y6c.0
REMARK                            x       y       z     vdW  Elec       q    Type
REMARK                         _______ _______ _______ _____ _____    ______ ____
ROOT
ATOM      1  C   LIG    1       -1.848   1.031   6.261  0.00  0.00    +0.170 A 
ATOM      2  N   LIG    1       -2.536   2.145   6.147  0.00  0.00    -0.490 NA
ATOM      3  C   LIG    1       -3.106   2.444   7.321  0.00  0.00    +0.180 A 
ATOM      4  C   LIG    1       -2.765   1.480   8.216  0.00  0.00    +0.040 A 
ATOM      5  N   LIG    1       -1.966   0.575   7.539  0.00  0.00    -0.430 N 
ENDROOT
BRANCH   4   6
ATOM      6  C   LIG    1       -3.171   1.410   9.635  0.00  0.00    +0.010 A 
ATOM      7  C   LIG    1       -3.381   0.171  10.244  0.00  0.00    +0.010 A 
ATOM      8  C   LIG    1       -3.755   0.112  11.570  0.00  0.00    +0.000 A 
ATOM      9  C   LIG    1       -3.933   1.277  12.294  0.00  0.00    +0.000 A 
ATOM     10  C   LIG    1       -3.733   2.509  11.696  0.00  0.00    +0.020 A 
ATOM     11  C   LIG    1       -3.354   2.582  10.372  0.00  0.00    +0.030 A 
ENDBRANCH   4   6
BRANCH   1  12
ATOM     12  S   LIG    1       -0.931   0.253   4.974  0.00  0.00    +0.050 S 
BRANCH  12  13
ATOM     13  C   LIG    1       -1.249   1.409   3.618  0.00  0.00    +0.120 C 
BRANCH  13  16
ATOM     14  N   LIG    1       -0.637   1.642   1.233  0.00  0.00    -0.720 N 
ATOM     15  H   LIG    1       -1.161   2.458   1.210  0.00  0.00    +0.400 HD
ATOM     16  C   LIG    1       -0.542   0.933   2.375  0.00  0.00    +0.530 C 
ATOM     17  O   LIG    1        0.112  -0.087   2.403  0.00  0.00    -0.520 OA
BRANCH  14  18
ATOM     18  C   LIG    1        0.050   1.179   0.024  0.00  0.00    +0.230 C 
ATOM     19  C   LIG    1        1.497   1.675   0.039  0.00  0.00    +0.020 C 
BRANCH  18  21
ATOM     20  C   LIG    1       -2.073   1.134  -1.293  0.00  0.00    +0.020 C 
ATOM     21  C   LIG    1       -0.666   1.729  -1.211  0.00  0.00    +0.020 C 
ENDBRANCH  18  21
ENDBRANCH  14  18
ENDBRANCH  13  16
ENDBRANCH  12  13
ENDBRANCH   1  12
BRANCH   5  22
ATOM     22  C   LIG    1       -1.362  -0.641   8.091  0.00  0.00    +0.300 C 
BRANCH  22  23
ATOM     23  C   LIG    1       -0.027  -0.292   8.751  0.00  0.00    +0.160 C 
ATOM     24  C   LIG    1        0.674  -1.582   9.229  0.00  0.00    +0.020 C 
ATOM     25  C   LIG    1        1.283  -1.140  10.588  0.00  0.00    +0.020 C 
ATOM     26  C   LIG    1        0.207  -0.141  11.084  0.00  0.00    +0.200 C 
ATOM     27  O   LIG    1       -0.253   0.531   9.900  0.00  0.00    -0.360 OA
ENDBRANCH  22  23
ENDBRANCH   5  22
TORSDOF 8
