REMARK  Name = ZINCkj00000xAWN4.2
REMARK                            x       y       z     vdW  Elec       q    Type
REMARK                         _______ _______ _______ _____ _____    ______ ____
ROOT
ATOM      1  C   LIG    1        0.224   1.234   0.210  0.00  0.00    +0.150 C 
ATOM      2  C   LIG    1        0.748  -0.211   0.075  0.00  0.00    +0.110 C 
ATOM      3  C   LIG    1        1.972  -0.053  -0.866  0.00  0.00    +0.080 C 
ATOM      4  C   LIG    1        2.537   1.318  -0.416  0.00  0.00    +0.240 C 
ATOM      5  N   LIG    1        1.344   2.137  -0.113  0.00  0.00    -0.380 N 
ATOM      6  H   LIG    1        1.106   2.700  -0.916  0.00  0.00    +0.430 HD
ENDROOT
BRANCH   1  13
ATOM      7  C   LIG    1       -2.663  -1.500   2.143  0.00  0.00    +0.120 C 
ATOM      8  C   LIG    1       -1.380  -0.732   1.953  0.00  0.00    +0.530 C 
ATOM      9  N   LIG    1       -1.395   0.616   1.950  0.00  0.00    -0.610 N 
ATOM     10  C   LIG    1       -2.563   1.462   2.253  0.00  0.00    +0.260 C 
ATOM     11  C   LIG    1       -1.964   2.812   2.721  0.00  0.00    +0.060 C 
ATOM     12  C   LIG    1       -0.729   2.944   1.790  0.00  0.00    +0.030 C 
ATOM     13  C   LIG    1       -0.250   1.484   1.643  0.00  0.00    +0.220 C 
ATOM     14  O   LIG    1       -0.334  -1.327   1.804  0.00  0.00    -0.530 OA
ENDBRANCH   1  13
BRANCH   5  15
ATOM     15  C   LIG    1        1.623   3.010   1.035  0.00  0.00    +0.380 C 
BRANCH  15  16
ATOM     16  C   LIG    1        2.964   3.671   0.850  0.00  0.00    +0.120 A 
ATOM     17  N   LIG    1        3.173   4.814   0.256  0.00  0.00    -0.450 NA
ATOM     18  C   LIG    1        4.486   5.090   0.277  0.00  0.00    +0.180 A 
ATOM     19  C   LIG    1        5.114   4.079   0.907  0.00  0.00    +0.180 A 
ATOM     20  N   LIG    1        4.148   3.182   1.277  0.00  0.00    -0.450 N 
ATOM     21  C   LIG    1        4.361   1.923   1.997  0.00  0.00    +0.340 C 
ENDBRANCH  15  16
ENDBRANCH   5  15
TORSDOF 3
