REMARK  Name = ZINCkj00000xAWN4.1
REMARK                            x       y       z     vdW  Elec       q    Type
REMARK                         _______ _______ _______ _____ _____    ______ ____
ROOT
ATOM      1  C   LIG    1        0.491  -0.616   0.249  0.00  0.00    +0.160 C 
ATOM      2  C   LIG    1        0.551   0.883   0.600  0.00  0.00    +0.090 C 
ATOM      3  C   LIG    1        2.058   1.206   0.730  0.00  0.00    +0.080 C 
ATOM      4  C   LIG    1        2.687  -0.181   1.010  0.00  0.00    +0.270 C 
ATOM      5  N   LIG    1        1.887  -1.096   0.156  0.00  0.00    -0.390 N 
ATOM      6  H   LIG    1        2.208  -1.052  -0.799  0.00  0.00    +0.410 HD
ENDROOT
BRANCH   1  13
ATOM      7  C   LIG    1       -0.692  -4.651  -1.172  0.00  0.00    +0.110 C 
ATOM      8  C   LIG    1       -0.832  -3.214  -0.738  0.00  0.00    +0.520 C 
ATOM      9  N   LIG    1       -0.238  -2.235  -1.448  0.00  0.00    -0.640 N 
ATOM     10  C   LIG    1        0.502  -2.416  -2.710  0.00  0.00    +0.250 C 
ATOM     11  C   LIG    1        0.433  -1.037  -3.412  0.00  0.00    +0.070 C 
ATOM     12  C   LIG    1        0.549  -0.068  -2.206  0.00  0.00    +0.040 C 
ATOM     13  C   LIG    1       -0.221  -0.808  -1.092  0.00  0.00    +0.250 C 
ATOM     14  O   LIG    1       -1.479  -2.940   0.250  0.00  0.00    -0.520 OA
ENDBRANCH   1  13
BRANCH   5  15
ATOM     15  C   LIG    1        1.983  -2.473   0.660  0.00  0.00    +0.390 C 
BRANCH  15  16
ATOM     16  C   LIG    1        3.402  -2.961   0.520  0.00  0.00    +0.120 A 
ATOM     17  N   LIG    1        4.372  -2.729   1.361  0.00  0.00    -0.450 NA
ATOM     18  C   LIG    1        5.493  -3.317   0.916  0.00  0.00    +0.180 A 
ATOM     19  C   LIG    1        5.206  -3.937  -0.245  0.00  0.00    +0.180 A 
ATOM     20  N   LIG    1        3.878  -3.716  -0.493  0.00  0.00    -0.440 N 
ATOM     21  C   LIG    1        3.116  -4.204  -1.645  0.00  0.00    +0.340 C 
ENDBRANCH  15  16
ENDBRANCH   5  15
TORSDOF 3
