REMARK  Name = ZINCpk000000oCme.0
REMARK                            x       y       z     vdW  Elec       q    Type
REMARK                         _______ _______ _______ _____ _____    ______ ____
ROOT
ATOM      1  C   LIG    1       -2.632   6.436   4.502  0.00  0.00    -0.790 A 
ATOM      2  C   LIG    1       -1.296   6.105   4.680  0.00  0.00    +0.220 A 
ATOM      3  C   LIG    1       -0.788   5.016   3.993  0.00  0.00    -0.090 A 
ATOM      4  C   LIG    1       -1.630   4.295   3.152  0.00  0.00    +0.450 A 
ATOM      5  N   LIG    1       -2.898   4.646   3.005  0.00  0.00    -0.540 NA
ATOM      6  C   LIG    1       -3.410   5.676   3.651  0.00  0.00    +0.420 A 
ENDROOT
BRANCH   1   7
ATOM      7  S   LIG    1       -3.328   7.814   5.353  0.00  0.00    +2.700 S 
ATOM      8  O   LIG    1       -2.518   8.028   6.500  0.00  0.00    -0.960 OA
ATOM      9  O   LIG    1       -4.728   7.576   5.423  0.00  0.00    -0.950 OA
BRANCH   7  10
ATOM     10  N   LIG    1       -3.127   9.141   4.383  0.00  0.00    -1.000 NA
BRANCH  10  12
ATOM     11  C   LIG    1       -5.099  10.541   4.018  0.00  0.00    +0.020 C 
ATOM     12  C   LIG    1       -4.160   9.499   3.408  0.00  0.00    +0.280 C 
ENDBRANCH  10  12
BRANCH  10  13
ATOM     13  C   LIG    1       -1.916   9.958   4.502  0.00  0.00    +0.290 C 
ATOM     14  C   LIG    1       -0.889   9.499   3.465  0.00  0.00    +0.000 C 
ENDBRANCH  10  13
ENDBRANCH   7  10
ENDBRANCH   1   7
BRANCH   4  15
ATOM     15  N   LIG    1       -1.133   3.200   2.455  0.00  0.00    -0.490 N 
ATOM     16  H   LIG    1       -0.204   2.941   2.557  0.00  0.00    +0.440 HD
BRANCH  15  17
ATOM     17  N   LIG    1       -1.975   2.469   1.607  0.00  0.00    -0.900 NA
ATOM     18  H   LIG    1       -2.804   2.098   1.948  0.00  0.00    +0.430 HD
BRANCH  17  19
ATOM     19  S   LIG    1       -1.554   2.238   0.022  0.00  0.00    +2.700 S 
ATOM     20  O   LIG    1       -2.517   1.347  -0.523  0.00  0.00    -0.940 OA
ATOM     21  O   LIG    1       -1.297   3.528  -0.517  0.00  0.00    -0.940 OA
BRANCH  19  22
ATOM     22  C   LIG    1       -0.017   1.378   0.010  0.00  0.00    -0.680 A 
ATOM     23  C   LIG    1        1.171   2.086   0.002  0.00  0.00    +0.110 A 
ATOM     24  C   LIG    1        2.377   1.411  -0.014  0.00  0.00    +0.000 A 
ATOM     25  C   LIG    1        2.396   0.029  -0.021  0.00  0.00    +0.070 A 
ATOM     26  C   LIG    1        1.208  -0.679  -0.014  0.00  0.00    +0.000 A 
ATOM     27  C   LIG    1        0.002  -0.004   0.002  0.00  0.00    +0.120 A 
ENDBRANCH  19  22
ENDBRANCH  17  19
ENDBRANCH  15  17
ENDBRANCH   4  15
TORSDOF 8
