REMARK  Name = ZINCb800000010HN.0
REMARK                            x       y       z     vdW  Elec       q    Type
REMARK                         _______ _______ _______ _____ _____    ______ ____
ROOT
ATOM      1  C   LIG    1       -1.175   3.717  -3.028  0.00  0.00    +0.080 C 
ATOM      2  C   LIG    1       -0.674   3.172  -1.716  0.00  0.00    +0.510 C 
ATOM      3  N   LIG    1        0.537   3.539  -1.252  0.00  0.00    -0.620 N 
ATOM      4  C   LIG    1        1.471   4.460  -1.923  0.00  0.00    +0.250 C 
ATOM      5  C   LIG    1        2.868   4.079  -1.372  0.00  0.00    +0.040 C 
ATOM      6  C   LIG    1        2.538   3.741   0.106  0.00  0.00    -0.010 C 
ATOM      7  C   LIG    1        3.561   2.757   0.677  0.00  0.00    +0.030 C 
ATOM      8  C   LIG    1        1.145   3.085   0.008  0.00  0.00    +0.220 C 
ATOM      9  O   LIG    1       -1.362   2.404  -1.077  0.00  0.00    -0.500 OA
ENDROOT
BRANCH   8  10
ATOM     10  C   LIG    1        1.286   1.562  -0.002  0.00  0.00    +0.150 C 
BRANCH  10  11
ATOM     11  O   LIG    1       -0.011   0.963   0.007  0.00  0.00    -0.540 OA
ATOM     12  H   LIG    1        0.002  -0.004   0.002  0.00  0.00    +0.370 HD
ENDBRANCH  10  11
ENDBRANCH   8  10
TORSDOF 2
