REMARK  Name = ZINCtV00000vvnoQ.0
REMARK                            x       y       z     vdW  Elec       q    Type
REMARK                         _______ _______ _______ _____ _____    ______ ____
ROOT
ATOM      1  C   LIG    1        1.151   3.592   0.010  0.00  0.00    +0.210 C 
ENDROOT
BRANCH   1   2
ATOM      2  C   LIG    1        1.171   2.086   0.002  0.00  0.00    -0.110 A 
ATOM      3  C   LIG    1       -0.017   1.378   0.010  0.00  0.00    +0.020 A 
ATOM      4  C   LIG    1        0.002  -0.004   0.002  0.00  0.00    +0.010 A 
ATOM      5  C   LIG    1        1.208  -0.679  -0.013  0.00  0.00    +0.020 A 
ATOM      6  C   LIG    1        2.396   0.029  -0.021  0.00  0.00    +0.010 A 
ATOM      7  C   LIG    1        2.377   1.411  -0.015  0.00  0.00    +0.040 A 
ENDBRANCH   1   2
BRANCH   1   8
ATOM      8  C   LIG    1        1.403   4.091   1.409  0.00  0.00    +0.440 C 
ATOM      9  O   LIG    1        2.484   4.563   1.700  0.00  0.00    -0.430 OA
BRANCH   8  10
ATOM     10  C   LIG    1        0.380   4.009   2.387  0.00  0.00    -0.270 A 
ATOM     11  C   LIG    1       -0.890   3.502   2.215  0.00  0.00    +0.320 A 
ATOM     12  N   LIG    1       -1.574   3.594   3.371  0.00  0.00    -0.560 N 
ATOM     13  H   LIG    1       -2.490   3.301   3.494  0.00  0.00    +0.420 HD
ATOM     14  C   LIG    1       -0.793   4.162   4.357  0.00  0.00    +0.080 A 
ATOM     15  C   LIG    1       -1.025   4.469   5.694  0.00  0.00    +0.000 A 
ATOM     16  C   LIG    1       -0.028   5.047   6.450  0.00  0.00    +0.030 A 
ATOM     17  C   LIG    1        1.210   5.329   5.891  0.00  0.00    +0.000 A 
ATOM     18  C   LIG    1        1.458   5.032   4.568  0.00  0.00    +0.060 A 
ATOM     19  C   LIG    1        0.463   4.442   3.795  0.00  0.00    -0.050 A 
ENDBRANCH   8  10
ENDBRANCH   1   8
BRANCH   1  20
ATOM     20  O   LIG    1        2.184   4.095  -0.877  0.00  0.00    -0.310 OA
BRANCH  20  22
ATOM     21  O   LIG    1        0.706   4.067  -2.533  0.00  0.00    -0.470 OA
ATOM     22  C   LIG    1        1.839   4.301  -2.163  0.00  0.00    +0.520 C 
BRANCH  22  23
ATOM     23  C   LIG    1        2.838   4.811  -3.122  0.00  0.00    -0.090 A 
ATOM     24  C   LIG    1        3.640   3.920  -3.842  0.00  0.00    +0.010 A 
ATOM     25  C   LIG    1        4.569   4.405  -4.742  0.00  0.00    +0.050 A 
ATOM     26  C   LIG    1        4.715   5.768  -4.923  0.00  0.00    +0.080 A 
ATOM     27  C   LIG    1        3.930   6.657  -4.210  0.00  0.00    +0.050 A 
ATOM     28 CL   LIG    1        3.462   2.208  -3.612  0.00  0.00    -0.030 Cl
ATOM     29  C   LIG    1        2.993   6.187  -3.311  0.00  0.00    +0.010 A 
ATOM     30 CL   LIG    1        2.009   7.304  -2.418  0.00  0.00    -0.040 Cl
ENDBRANCH  22  23
ENDBRANCH  20  22
ENDBRANCH   1  20
TORSDOF 6
