REMARK  Name = ZINCpe00000VVGxE.0
REMARK                            x       y       z     vdW  Elec       q    Type
REMARK                         _______ _______ _______ _____ _____    ______ ____
ROOT
ATOM      1  C   LIG    1       -0.299  -1.914   8.011  0.00  0.00    +0.330 C 
ATOM      2  N   LIG    1        0.703  -0.857   7.855  0.00  0.00    -0.530 N 
ATOM      3  C   LIG    1        1.689  -0.782   8.759  0.00  0.00    +0.710 C 
ATOM      4  N   LIG    1        2.652   0.159   8.692  0.00  0.00    -0.710 N 
ATOM      5  H   LIG    1        3.357   0.196   9.357  0.00  0.00    +0.440 HD
ATOM      6  C   LIG    1        2.609   1.130   7.585  0.00  0.00    +0.390 C 
ATOM      7  C   LIG    1        1.469   0.992   6.596  0.00  0.00    -0.280 C 
ATOM      8  C   LIG    1        1.127   1.730   5.444  0.00  0.00    +0.580 C 
ATOM      9  O   LIG    1        1.756   2.685   5.027  0.00  0.00    -0.520 OA
ATOM     10  N   LIG    1        0.014   1.241   4.867  0.00  0.00    -0.620 N 
ATOM     11  C   LIG    1       -0.433   0.100   5.680  0.00  0.00    +0.360 C 
ATOM     12  O   LIG    1        1.716  -1.587   9.668  0.00  0.00    -0.550 OA
ATOM     13  C   LIG    1        0.581  -0.003   6.797  0.00  0.00    +0.180 C 
ENDROOT
BRANCH   6  14
ATOM     14  C   LIG    1        2.541   2.512   8.183  0.00  0.00    -0.200 A 
ATOM     15  C   LIG    1        3.297   3.547   7.814  0.00  0.00    +0.040 A 
ATOM     16  C   LIG    1        3.054   4.722   8.505  0.00  0.00    +0.010 A 
ATOM     17  C   LIG    1        2.107   4.638   9.440  0.00  0.00    -0.050 A 
ATOM     18  S   LIG    1        1.458   3.004   9.478  0.00  0.00    +0.100 S 
ENDBRANCH   6  14
BRANCH  10  19
ATOM     19  C   LIG    1       -0.634   1.753   3.657  0.00  0.00    +0.320 C 
BRANCH  19  20
ATOM     20  C   LIG    1       -0.053   1.047   2.430  0.00  0.00    +0.160 C 
BRANCH  20  21
ATOM     21  N   LIG    1       -0.703   1.561   1.216  0.00  0.00    -0.530 NA
ATOM     22  C   LIG    1       -0.013   1.086   0.008  0.00  0.00    +0.160 C 
ATOM     23  C   LIG    1       -0.755   1.594  -1.231  0.00  0.00    +0.220 C 
ATOM     24  O   LIG    1       -0.837   3.021  -1.180  0.00  0.00    -0.380 OA
ATOM     25  C   LIG    1       -1.504   3.518  -0.017  0.00  0.00    +0.220 C 
ATOM     26  C   LIG    1       -0.769   3.029   1.235  0.00  0.00    +0.150 C 
ENDBRANCH  20  21
ENDBRANCH  19  20
ENDBRANCH  10  19
TORSDOF 4
