REMARK  Name = ZINCpk00001AZjdU.1
REMARK                            x       y       z     vdW  Elec       q    Type
REMARK                         _______ _______ _______ _____ _____    ______ ____
ROOT
ATOM      1  C   LIG    1       -2.500  -1.052   3.576  0.00  0.00    +0.570 C 
ATOM      2  N   LIG    1       -3.370  -0.484   4.435  0.00  0.00    -0.610 N 
ATOM      3  C   LIG    1       -4.263   0.643   4.130  0.00  0.00    +0.240 C 
ATOM      4  C   LIG    1       -5.051   0.965   5.417  0.00  0.00    +0.090 C 
ATOM      5  C   LIG    1       -4.153   0.369   6.533  0.00  0.00    +0.200 C 
ATOM      6  C   LIG    1       -3.589  -0.896   5.834  0.00  0.00    +0.260 C 
ATOM      7  O   LIG    1       -1.808  -1.984   3.939  0.00  0.00    -0.540 OA
ENDROOT
BRANCH   5   8
ATOM      8  C   LIG    1       -4.970  -0.003   7.743  0.00  0.00    -0.040 A 
ATOM      9  C   LIG    1       -4.500  -0.458   8.928  0.00  0.00    +0.170 A 
ATOM     10  N   LIG    1       -5.585  -0.660   9.711  0.00  0.00    -0.390 N 
ATOM     11  H   LIG    1       -5.574  -0.986  10.625  0.00  0.00    +0.450 HD
ATOM     12  N   LIG    1       -6.634  -0.345   9.036  0.00  0.00    -0.070 NA
ATOM     13  N   LIG    1       -6.301   0.056   7.860  0.00  0.00    -0.240 NA
ENDBRANCH   5   8
BRANCH   1  15
ATOM     14  C   LIG    1       -1.612  -1.172   1.321  0.00  0.00    -0.010 C 
ATOM     15  C   LIG    1       -2.387  -0.543   2.201  0.00  0.00    -0.110 C 
ATOM     16  C   LIG    1       -0.949  -2.473   1.695  0.00  0.00    +0.090 C 
BRANCH  14  17
ATOM     17  C   LIG    1       -1.395  -0.582  -0.049  0.00  0.00    +0.130 C 
BRANCH  17  23
ATOM     18  C   LIG    1        1.095  -0.391  -0.272  0.00  0.00    +0.140 A 
ATOM     19  C   LIG    1        2.262   0.359  -0.275  0.00  0.00    -0.080 A 
ATOM     20  C   LIG    1        2.206   1.722  -0.057  0.00  0.00    +0.040 A 
ATOM     21  C   LIG    1        0.988   2.339   0.163  0.00  0.00    -0.040 A 
ATOM     22  C   LIG    1       -0.177   1.593   0.166  0.00  0.00    +0.060 A 
ATOM     23  C   LIG    1       -0.126   0.230  -0.051  0.00  0.00    -0.110 A 
BRANCH  18  25
ATOM     24  C   LIG    1        2.439  -2.304  -0.706  0.00  0.00    +0.250 C 
ATOM     25  O   LIG    1        1.148  -1.732  -0.485  0.00  0.00    -0.310 OA
ENDBRANCH  18  25
ENDBRANCH  17  23
ENDBRANCH  14  17
ENDBRANCH   1  15
BRANCH   5  26
ATOM     26  O   LIG    1       -3.105   1.275   6.885  0.00  0.00    -0.530 OA
ATOM     27  H   LIG    1       -2.517   0.947   7.579  0.00  0.00    +0.380 HD
ENDBRANCH   5  26
TORSDOF 6
