REMARK  Name = ZINCpk00001AZjdU.0
REMARK                            x       y       z     vdW  Elec       q    Type
REMARK                         _______ _______ _______ _____ _____    ______ ____
ROOT
ATOM      1  C   LIG    1        3.442  -3.442  -3.219  0.00  0.00    +0.570 C 
ATOM      2  N   LIG    1        3.303  -2.574  -2.197  0.00  0.00    -0.620 N 
ATOM      3  C   LIG    1        4.097  -2.575  -0.956  0.00  0.00    +0.260 C 
ATOM      4  C   LIG    1        4.017  -1.119  -0.433  0.00  0.00    +0.090 C 
ATOM      5  C   LIG    1        2.558  -0.736  -0.797  0.00  0.00    +0.210 C 
ATOM      6  C   LIG    1        2.333  -1.470  -2.136  0.00  0.00    +0.260 C 
ATOM      7  O   LIG    1        2.728  -3.346  -4.199  0.00  0.00    -0.540 OA
ENDROOT
BRANCH   5   8
ATOM      8  C   LIG    1        2.427   0.754  -0.978  0.00  0.00    -0.020 A 
ATOM      9  N   LIG    1        3.393   1.644  -0.946  0.00  0.00    -0.260 NA
ATOM     10  N   LIG    1        2.887   2.810  -1.141  0.00  0.00    -0.240 N 
ATOM     11  H   LIG    1        3.397   3.635  -1.163  0.00  0.00    +0.470 HD
ATOM     12  N   LIG    1        1.613   2.733  -1.302  0.00  0.00    -0.280 NA
ATOM     13  C   LIG    1        1.252   1.473  -1.213  0.00  0.00    +0.190 A 
ENDBRANCH   5   8
BRANCH   1  15
ATOM     14  C   LIG    1        4.512  -5.434  -4.098  0.00  0.00    -0.000 C 
ATOM     15  C   LIG    1        4.457  -4.504  -3.150  0.00  0.00    -0.110 C 
ATOM     16  C   LIG    1        3.443  -5.494  -5.158  0.00  0.00    +0.100 C 
BRANCH  14  17
ATOM     17  C   LIG    1        5.644  -6.429  -4.112  0.00  0.00    +0.120 C 
BRANCH  17  23
ATOM     18  C   LIG    1        4.514  -8.668  -4.093  0.00  0.00    +0.130 A 
ATOM     19  C   LIG    1        4.125  -9.829  -3.440  0.00  0.00    -0.080 A 
ATOM     20  C   LIG    1        4.426 -10.001  -2.103  0.00  0.00    +0.040 A 
ATOM     21  C   LIG    1        5.119  -9.021  -1.417  0.00  0.00    -0.020 A 
ATOM     22  C   LIG    1        5.513  -7.866  -2.067  0.00  0.00    +0.050 A 
ATOM     23  C   LIG    1        5.214  -7.689  -3.404  0.00  0.00    -0.110 A 
BRANCH  18  25
ATOM     24  C   LIG    1        3.490  -9.543  -6.052  0.00  0.00    +0.240 C 
ATOM     25  O   LIG    1        4.214  -8.494  -5.407  0.00  0.00    -0.310 OA
ENDBRANCH  18  25
ENDBRANCH  17  23
ENDBRANCH  14  17
ENDBRANCH   1  15
BRANCH   5  26
ATOM     26  O   LIG    1        1.649  -1.205   0.200  0.00  0.00    -0.530 OA
ATOM     27  H   LIG    1        0.720  -1.025   0.001  0.00  0.00    +0.380 HD
ENDBRANCH   5  26
TORSDOF 6
