REMARK  Name = ZINCrD000000AcDX.0
REMARK                            x       y       z     vdW  Elec       q    Type
REMARK                         _______ _______ _______ _____ _____    ______ ____
ROOT
ATOM      1  O   LIG    1        3.556   2.014   0.080  0.00  0.00    -0.510 OA
ATOM      2  C   LIG    1        3.538   3.227   0.086  0.00  0.00    +0.520 C 
ATOM      3  N   LIG    1        2.365   3.884  -0.000  0.00  0.00    -0.670 N 
ATOM      4  H   LIG    1        2.355   4.851  -0.072  0.00  0.00    +0.420 HD
ENDROOT
BRANCH   3   5
ATOM      5  C   LIG    1        1.160   3.170   0.014  0.00  0.00    +0.170 A 
ATOM      6  C   LIG    1        1.052   2.004   0.759  0.00  0.00    +0.060 A 
ATOM      7  C   LIG    1       -0.136   1.299   0.774  0.00  0.00    +0.090 A 
ATOM      8  C   LIG    1       -1.221   1.750   0.040  0.00  0.00    +0.010 A 
ATOM      9  O   LIG    1       -2.481   1.244  -0.115  0.00  0.00    -0.280 OA
ATOM     10  C   LIG    1       -3.013   1.891  -1.286  0.00  0.00    +0.570 C 
ATOM     11  O   LIG    1       -2.312   3.152  -1.324  0.00  0.00    -0.290 OA
ATOM     12  F   LIG    1       -4.389   2.101  -1.150  0.00  0.00    -0.110 F 
ATOM     13  F   LIG    1       -2.744   1.134  -2.431  0.00  0.00    -0.150 F 
ATOM     14  C   LIG    1       -1.118   2.923  -0.705  0.00  0.00    +0.050 A 
ATOM     15  C   LIG    1        0.073   3.629  -0.719  0.00  0.00    +0.040 A 
ENDBRANCH   3   5
BRANCH   2  16
ATOM     16  C   LIG    1        4.829   3.999   0.191  0.00  0.00    +0.070 C 
BRANCH  16  17
ATOM     17  C   LIG    1        6.002   3.021   0.276  0.00  0.00    +0.040 C 
BRANCH  17  18
ATOM     18  C   LIG    1        7.312   3.805   0.383  0.00  0.00    +0.280 C 
BRANCH  18  19
ATOM     19  N   LIG    1        8.436   2.869   0.464  0.00  0.00    -0.750 N 
ATOM     20  H   LIG    1        8.273   1.913   0.445  0.00  0.00    +0.400 HD
ATOM     21  C   LIG    1        9.696   3.336   0.564  0.00  0.00    +0.700 C 
ATOM     22  N   LIG    1       10.730   2.475   0.639  0.00  0.00    -0.740 N 
ATOM     23  H   LIG    1       10.568   1.519   0.620  0.00  0.00    +0.400 HD
ATOM     24  O   LIG    1        9.900   4.535   0.588  0.00  0.00    -0.590 OA
BRANCH  22  25
ATOM     25  C   LIG    1       12.100   2.983   0.748  0.00  0.00    +0.250 C 
ATOM     26  C   LIG    1       12.645   3.287  -0.649  0.00  0.00    +0.000 C 
ATOM     27  C   LIG    1       14.075   3.817  -0.535  0.00  0.00    +0.000 C 
ATOM     28  C   LIG    1       14.957   2.764   0.138  0.00  0.00    +0.000 C 
ATOM     29  C   LIG    1       14.413   2.460   1.535  0.00  0.00    +0.020 C 
ATOM     30  C   LIG    1       12.982   1.929   1.421  0.00  0.00    +0.010 C 
ENDBRANCH  22  25
ENDBRANCH  18  19
ENDBRANCH  17  18
ENDBRANCH  16  17
ENDBRANCH   2  16
TORSDOF 6
