REMARK  Name = ZINCue00000006Io.0
REMARK                            x       y       z     vdW  Elec       q    Type
REMARK                         _______ _______ _______ _____ _____    ______ ____
ROOT
ATOM      1  C   LIG    1       -1.198   6.290   0.045  0.00  0.00    +0.460 C 
ATOM      2  O   LIG    1       -2.175   5.579   0.051  0.00  0.00    -0.500 OA
ENDROOT
BRANCH   1   3
ATOM      3  O   LIG    1       -1.339   7.625   0.054  0.00  0.00    -0.330 OA
BRANCH   3   4
ATOM      4  C   LIG    1       -2.694   8.145   0.070  0.00  0.00    +0.250 C 
BRANCH   4   7
ATOM      5  C   LIG    1       -3.769  11.703   0.098  0.00  0.00    +0.510 C 
ATOM      6  N   LIG    1       -3.804  10.355   0.092  0.00  0.00    -0.770 NA
ATOM      7  C   LIG    1       -2.655   9.651   0.077  0.00  0.00    +0.470 C 
ATOM      8  O   LIG    1       -1.590  10.230   0.069  0.00  0.00    -0.570 OA
ATOM      9  O   LIG    1       -2.701  12.283   0.091  0.00  0.00    -0.560 OA
BRANCH   5  15
ATOM     10  C   LIG    1       -4.994  13.875   0.127  0.00  0.00    +0.160 A 
ATOM     11  C   LIG    1       -6.183  14.589   0.136  0.00  0.00    -0.110 A 
ATOM     12  C   LIG    1       -7.391  13.921   0.144  0.00  0.00    +0.040 A 
ATOM     13  C   LIG    1       -7.427  12.536   0.138  0.00  0.00    -0.060 A 
ATOM     14  C   LIG    1       -6.256  11.810   0.123  0.00  0.00    +0.110 A 
ATOM     15  C   LIG    1       -5.026  12.473   0.114  0.00  0.00    -0.120 A 
BRANCH  10  17
ATOM     16  C   LIG    1       -3.852  15.957   0.138  0.00  0.00    +0.210 C 
ATOM     17  O   LIG    1       -3.806  14.529   0.124  0.00  0.00    -0.280 OA
ENDBRANCH  10  17
ENDBRANCH   5  15
ENDBRANCH   4   7
ENDBRANCH   3   4
ENDBRANCH   1   3
BRANCH   1  18
ATOM     18  C   LIG    1        0.179   5.678   0.029  0.00  0.00    +0.310 C 
BRANCH  18  19
ATOM     19  O   LIG    1        0.067   4.253   0.023  0.00  0.00    -0.270 OA
BRANCH  19  20
ATOM     20  C   LIG    1        1.224   3.544   0.008  0.00  0.00    +0.340 A 
ATOM     21  N   LIG    1        2.371   4.166   0.000  0.00  0.00    -0.310 NA
ATOM     22  N   LIG    1        3.592   3.491  -0.015  0.00  0.00    -0.510 N 
ATOM     23  H   LIG    1        4.414   4.005  -0.020  0.00  0.00    +0.440 HD
ATOM     24  C   LIG    1        3.659   2.144  -0.022  0.00  0.00    +0.530 A 
ATOM     25  C   LIG    1        2.410   1.371  -0.014  0.00  0.00    -0.110 A 
ATOM     26  C   LIG    1        2.406  -0.022  -0.021  0.00  0.00    +0.090 A 
ATOM     27  C   LIG    1        1.205  -0.698  -0.013  0.00  0.00    +0.040 A 
ATOM     28  C   LIG    1        0.002  -0.004   0.002  0.00  0.00    +0.050 A 
ATOM     29  C   LIG    1       -0.017   1.373   0.010  0.00  0.00    +0.070 A 
ATOM     30  O   LIG    1        4.738   1.578  -0.035  0.00  0.00    -0.530 OA
ATOM     31  C   LIG    1        1.187   2.078   0.002  0.00  0.00    -0.050 A 
ENDBRANCH  19  20
ENDBRANCH  18  19
ENDBRANCH   1  18
TORSDOF 8
