REMARK  Name = ZINCpe00000MJLwN.0
REMARK                            x       y       z     vdW  Elec       q    Type
REMARK                         _______ _______ _______ _____ _____    ______ ____
ROOT
ATOM      1  O   LIG    1        4.954   3.065   3.352  0.00  0.00    -0.520 OA
ATOM      2  C   LIG    1        5.164   3.314   2.183  0.00  0.00    +0.500 C 
ATOM      3  N   LIG    1        4.153   3.712   1.387  0.00  0.00    -0.730 N 
ATOM      4  H   LIG    1        4.321   3.912   0.452  0.00  0.00    +0.400 HD
ENDROOT
BRANCH   3   5
ATOM      5  C   LIG    1        2.799   3.844   1.932  0.00  0.00    +0.390 C 
BRANCH   5   6
ATOM      6  C   LIG    1        1.862   4.300   0.844  0.00  0.00    +0.190 A 
ATOM      7  N   LIG    1        1.587   5.540   0.545  0.00  0.00    -0.460 NA
ATOM      8  C   LIG    1        0.716   5.569  -0.474  0.00  0.00    +0.160 A 
ATOM      9  C   LIG    1        0.440   4.300  -0.828  0.00  0.00    +0.140 A 
ATOM     10  N   LIG    1        1.161   3.488   0.009  0.00  0.00    -0.400 N 
BRANCH  10  11
ATOM     11  C   LIG    1        1.177   2.086   0.002  0.00  0.00    +0.110 A 
ATOM     12  C   LIG    1       -0.017   1.377   0.010  0.00  0.00    +0.020 A 
ATOM     13  C   LIG    1        0.002  -0.004   0.002  0.00  0.00    +0.040 A 
ATOM     14  C   LIG    1        1.208  -0.680  -0.013  0.00  0.00    +0.020 A 
ATOM     15  C   LIG    1        2.398   0.023  -0.021  0.00  0.00    +0.040 A 
ATOM     16  C   LIG    1        2.386   1.404  -0.013  0.00  0.00    +0.020 A 
ENDBRANCH  10  11
ENDBRANCH   5   6
ENDBRANCH   3   5
BRANCH   2  17
ATOM     17  C   LIG    1        6.557   3.179   1.623  0.00  0.00    +0.310 C 
BRANCH  17  18
ATOM     18  N   LIG    1        7.468   2.736   2.680  0.00  0.00    -0.580 N 
ATOM     19  C   LIG    1        8.168   3.732   3.508  0.00  0.00    +0.290 C 
ATOM     20  C   LIG    1        7.548   3.717   4.912  0.00  0.00    +0.010 C 
ATOM     21  C   LIG    1        8.208   2.664   5.782  0.00  0.00    +0.020 C 
ATOM     22  C   LIG    1        7.937   1.239   5.332  0.00  0.00    +0.050 C 
ATOM     23  C   LIG    1        8.597   0.963   3.979  0.00  0.00    +0.190 C 
ATOM     24  C   LIG    1        7.663   1.432   2.884  0.00  0.00    +0.490 C 
ATOM     25  O   LIG    1        7.089   0.620   2.190  0.00  0.00    -0.540 OA
BRANCH  23  26
ATOM     26  O   LIG    1        9.833   1.676   3.894  0.00  0.00    -0.540 OA
ATOM     27  H   LIG    1       10.298   1.558   3.054  0.00  0.00    +0.380 HD
ENDBRANCH  23  26
ENDBRANCH  17  18
ENDBRANCH   2  17
TORSDOF 6
