REMARK  Name = ZINCAx0000000aK8.0
REMARK                            x       y       z     vdW  Elec       q    Type
REMARK                         _______ _______ _______ _____ _____    ______ ____
ROOT
ATOM      1  C   LIG    1        1.144   3.590   0.012  0.00  0.00    +0.180 C 
ATOM      2  N   LIG    1       -0.031   4.096   0.742  0.00  0.00    -0.710 N 
ATOM      3  H   LIG    1       -0.962   3.945   0.517  0.00  0.00    +0.440 HD
ATOM      4  C   LIG    1        0.439   4.810   1.780  0.00  0.00    +0.710 C 
ATOM      5  N   LIG    1        1.776   4.834   1.820  0.00  0.00    -0.560 N 
ATOM      6  O   LIG    1       -0.271   5.372   2.591  0.00  0.00    -0.530 OA
ATOM      7  C   LIG    1        1.162   4.129  -1.420  0.00  0.00    +0.100 C 
ATOM      8  C   LIG    1        2.317   4.133   0.805  0.00  0.00    +0.540 C 
ATOM      9  O   LIG    1        3.495   3.969   0.573  0.00  0.00    -0.460 OA
ENDROOT
BRANCH   1  13
ATOM     10  C   LIG    1        1.183  -0.684   0.005  0.00  0.00    +0.150 A 
ATOM     11  C   LIG    1       -0.024   0.000   0.016  0.00  0.00    -0.010 A 
ATOM     12  C   LIG    1       -0.034   1.382   0.018  0.00  0.00    +0.080 A 
ATOM     13  C   LIG    1        1.158   2.083   0.010  0.00  0.00    -0.140 A 
ATOM     14  C   LIG    1        2.362   1.404  -0.001  0.00  0.00    +0.080 A 
ATOM     15  C   LIG    1        2.378   0.022  -0.004  0.00  0.00    -0.070 A 
BRANCH  10  16
ATOM     16  O   LIG    1        1.196  -2.042   0.002  0.00  0.00    -0.310 OA
BRANCH  16  17
ATOM     17  C   LIG    1        2.475  -2.679  -0.009  0.00  0.00    +0.190 C 
BRANCH  17  18
ATOM     18  C   LIG    1        2.288  -4.198  -0.010  0.00  0.00    +0.040 C 
BRANCH  18  20
ATOM     19  C   LIG    1        4.397  -4.564   1.279  0.00  0.00    +0.020 C 
ATOM     20  C   LIG    1        3.658  -4.880  -0.023  0.00  0.00    -0.020 C 
ATOM     21  C   LIG    1        3.473  -6.394  -0.149  0.00  0.00    +0.030 C 
ENDBRANCH  18  20
ENDBRANCH  17  18
ENDBRANCH  16  17
ENDBRANCH  10  16
ENDBRANCH   1  13
BRANCH   5  22
ATOM     22  C   LIG    1        2.557   5.537   2.842  0.00  0.00    +0.370 C 
BRANCH  22  23
ATOM     23  C   LIG    1        2.822   4.608   3.999  0.00  0.00    +0.500 C 
ATOM     24  N   LIG    1        3.527   5.041   5.063  0.00  0.00    -0.670 N 
ATOM     25  H   LIG    1        3.921   5.928   5.055  0.00  0.00    +0.420 HD
ATOM     26  O   LIG    1        2.400   3.471   3.973  0.00  0.00    -0.500 OA
BRANCH  24  27
ATOM     27  C   LIG    1        3.690   4.212   6.178  0.00  0.00    +0.200 A 
ATOM     28  C   LIG    1        3.728   4.761   7.453  0.00  0.00    -0.020 A 
ATOM     29  C   LIG    1        3.883   3.939   8.553  0.00  0.00    +0.150 A 
ATOM     30  C   LIG    1        4.014   2.573   8.384  0.00  0.00    -0.690 A 
ATOM     31  C   LIG    1        3.982   2.024   7.115  0.00  0.00    +0.140 A 
ATOM     32  C   LIG    1        3.821   2.840   6.012  0.00  0.00    +0.010 A 
BRANCH  30  33
ATOM     33  S   LIG    1        4.219   1.529   9.788  0.00  0.00    +2.700 S 
ATOM     34  O   LIG    1        3.777   0.237   9.396  0.00  0.00    -0.950 OA
ATOM     35  O   LIG    1        3.675   2.234  10.895  0.00  0.00    -0.950 OA
BRANCH  33  36
ATOM     36  N   LIG    1        5.846   1.401  10.070  0.00  0.00    -1.010 NA
ATOM     37  C   LIG    1        6.618   0.331   9.433  0.00  0.00    +0.300 C 
ATOM     38  C   LIG    1        6.514   2.359  10.955  0.00  0.00    +0.300 C 
ENDBRANCH  33  36
ENDBRANCH  30  33
ENDBRANCH  24  27
ENDBRANCH  22  23
ENDBRANCH   5  22
TORSDOF 10
