REMARK  Name = ZINCpe000000V2PY.0
REMARK                            x       y       z     vdW  Elec       q    Type
REMARK                         _______ _______ _______ _____ _____    ______ ____
ROOT
ATOM      1  N   LIG    1        0.904  -0.481   1.059  0.00  0.00    -0.480 N 
ATOM      2  C   LIG    1        0.030  -1.208   2.004  0.00  0.00    +0.190 C 
ATOM      3  C   LIG    1       -1.172  -1.679   1.149  0.00  0.00    +0.030 C 
ATOM      4  C   LIG    1       -1.364  -0.475   0.189  0.00  0.00    +0.030 C 
ATOM      5  C   LIG    1        0.082   0.000  -0.066  0.00  0.00    +0.170 C 
ENDROOT
BRANCH   1   8
ATOM      6  C   LIG    1        3.530   1.792   2.236  0.00  0.00    +0.450 A 
ATOM      7  C   LIG    1        2.930   0.715   1.589  0.00  0.00    -0.140 A 
ATOM      8  C   LIG    1        1.550   0.572   1.689  0.00  0.00    +0.380 A 
ATOM      9  N   LIG    1        0.858   1.458   2.404  0.00  0.00    -0.580 NA
ATOM     10  C   LIG    1        1.463   2.461   3.006  0.00  0.00    +0.540 A 
ATOM     11  N   LIG    1        2.767   2.634   2.931  0.00  0.00    -0.580 NA
BRANCH   6  13
ATOM     12  C   LIG    1        5.729   1.048   1.394  0.00  0.00    +0.290 C 
ATOM     13  N   LIG    1        4.901   1.981   2.162  0.00  0.00    -0.710 N 
ATOM     14  H   LIG    1        5.312   2.732   2.619  0.00  0.00    +0.410 HD
ENDBRANCH   6  13
ENDBRANCH   1   8
BRANCH   5  15
ATOM     15  C   LIG    1        0.124   1.529  -0.125  0.00  0.00    +0.270 C 
BRANCH  15  16
ATOM     16  N   LIG    1        1.493   1.969  -0.406  0.00  0.00    -0.730 N 
ATOM     17  H   LIG    1        2.183   1.314  -0.599  0.00  0.00    +0.400 HD
ATOM     18  C   LIG    1        1.794   3.282  -0.397  0.00  0.00    +0.600 C 
ATOM     19  O   LIG    1        0.928   4.103  -0.155  0.00  0.00    -0.560 OA
BRANCH  18  20
ATOM     20  C   LIG    1        3.163   3.723  -0.678  0.00  0.00    -0.330 A 
ATOM     21  C   LIG    1        3.625   5.042  -0.705  0.00  0.00    +0.320 A 
ATOM     22  N   LIG    1        3.273   6.355  -0.549  0.00  0.00    -0.570 N 
ATOM     23  H   LIG    1        2.388   6.688  -0.331  0.00  0.00    +0.440 HD
ATOM     24  C   LIG    1        4.403   7.120  -0.758  0.00  0.00    +0.240 A 
ATOM     25  C   LIG    1        5.414   6.300  -1.032  0.00  0.00    +0.190 A 
ATOM     26  N   LIG    1        4.941   4.998  -1.002  0.00  0.00    -0.300 N 
ATOM     27  N   LIG    1        5.311   3.658  -1.163  0.00  0.00    -0.290 NA
ATOM     28  C   LIG    1        4.270   2.895  -0.968  0.00  0.00    +0.320 A 
ENDBRANCH  18  20
ENDBRANCH  15  16
ENDBRANCH   5  15
TORSDOF 5
