REMARK  Name = ZINCrD000000B0CD.0
REMARK                            x       y       z     vdW  Elec       q    Type
REMARK                         _______ _______ _______ _____ _____    ______ ____
ROOT
ATOM      1  C   LIG    1       -4.538   2.991  -2.953  0.00  0.00    -0.260 A 
ATOM      2  C   LIG    1       -4.001   2.975  -1.682  0.00  0.00    +0.390 A 
ATOM      3  N   LIG    1       -3.109   3.909  -1.306  0.00  0.00    -0.490 N 
ATOM      4  C   LIG    1       -2.724   4.882  -2.152  0.00  0.00    +0.510 A 
ATOM      5  C   LIG    1       -3.241   4.936  -3.460  0.00  0.00    -0.080 A 
ATOM      6  O   LIG    1       -1.917   5.720  -1.785  0.00  0.00    -0.520 OA
ATOM      7  C   LIG    1       -4.144   4.002  -3.863  0.00  0.00    +0.140 A 
ENDROOT
BRANCH   1   9
ATOM      8  O   LIG    1       -5.851   1.099  -2.575  0.00  0.00    -0.540 OA
ATOM      9  C   LIG    1       -5.515   1.965  -3.360  0.00  0.00    +0.580 C 
ATOM     10  N   LIG    1       -6.037   1.986  -4.603  0.00  0.00    -0.720 N 
ATOM     11  H   LIG    1       -5.769   2.677  -5.229  0.00  0.00    +0.400 HD
BRANCH  10  12
ATOM     12  C   LIG    1       -7.008   0.967  -5.008  0.00  0.00    +0.290 C 
BRANCH  12  13
ATOM     13  C   LIG    1       -7.438   1.218  -6.454  0.00  0.00    +0.190 C 
BRANCH  13  14
ATOM     14  O   LIG    1       -6.317   1.038  -7.322  0.00  0.00    -0.310 OA
BRANCH  14  15
ATOM     15  C   LIG    1       -6.530   1.225  -8.652  0.00  0.00    +0.130 A 
ATOM     16  C   LIG    1       -7.793   1.569  -9.111  0.00  0.00    -0.080 A 
ATOM     17  C   LIG    1       -8.006   1.763 -10.462  0.00  0.00    +0.050 A 
ATOM     18  C   LIG    1       -6.964   1.606 -11.357  0.00  0.00    -0.040 A 
ATOM     19  C   LIG    1       -5.705   1.258 -10.902  0.00  0.00    +0.050 A 
ATOM     20  C   LIG    1       -5.486   1.067  -9.552  0.00  0.00    -0.020 A 
ENDBRANCH  14  15
ENDBRANCH  13  14
ENDBRANCH  12  13
ENDBRANCH  10  12
ENDBRANCH   1   9
BRANCH   3  21
ATOM     21  C   LIG    1       -2.552   3.871   0.049  0.00  0.00    +0.370 C 
BRANCH  21  22
ATOM     22  C   LIG    1       -1.246   3.120   0.034  0.00  0.00    -0.090 A 
ATOM     23  C   LIG    1       -0.822   2.494  -1.122  0.00  0.00    +0.020 A 
ATOM     24  C   LIG    1        0.377   1.805  -1.136  0.00  0.00    +0.020 A 
ATOM     25  C   LIG    1        1.151   1.741   0.007  0.00  0.00    +0.040 A 
ATOM     26  C   LIG    1        0.728   2.367   1.165  0.00  0.00    +0.040 A 
ATOM     27  C   LIG    1       -0.474   3.052   1.181  0.00  0.00    -0.030 A 
ATOM     28 CL   LIG    1       -1.010   3.831   2.636  0.00  0.00    -0.060 Cl
ENDBRANCH  21  22
ENDBRANCH   3  21
TORSDOF 7
