REMARK  Name = ZINCrH000004jJWZ.0
REMARK                            x       y       z     vdW  Elec       q    Type
REMARK                         _______ _______ _______ _____ _____    ______ ____
ROOT
ATOM      1  N   LIG    1       -2.059  -0.051   3.059  0.00  0.00    -0.660 N 
ATOM      2  H   LIG    1       -2.534   0.309   2.293  0.00  0.00    +0.420 HD
ATOM      3  C   LIG    1       -2.680  -0.907   3.895  0.00  0.00    +0.510 C 
ATOM      4  O   LIG    1       -2.115  -1.293   4.897  0.00  0.00    -0.510 OA
ENDROOT
BRANCH   1  10
ATOM      5  C   LIG    1        0.134   0.553   2.226  0.00  0.00    +0.090 A 
ATOM      6  C   LIG    1        1.451   0.914   2.468  0.00  0.00    +0.010 A 
ATOM      7  C   LIG    1        1.902   1.053   3.768  0.00  0.00    +0.060 A 
ATOM      8  C   LIG    1        1.047   0.822   4.829  0.00  0.00    -0.170 A 
ATOM      9  C   LIG    1       -0.267   0.456   4.597  0.00  0.00    +0.090 A 
ATOM     10  C   LIG    1       -0.729   0.320   3.297  0.00  0.00    +0.170 A 
BRANCH   8  11
ATOM     11  C   LIG    1        1.546   0.970   6.243  0.00  0.00    +0.510 C 
ATOM     12  F   LIG    1        0.491   1.366   7.072  0.00  0.00    -0.170 F 
ATOM     13  F   LIG    1        2.558   1.935   6.281  0.00  0.00    -0.180 F 
ATOM     14  F   LIG    1        2.054  -0.256   6.689  0.00  0.00    -0.170 F 
ENDBRANCH   8  11
BRANCH   5  16
ATOM     15  C   LIG    1        0.439  -0.606   0.189  0.00  0.00    +0.220 C 
ATOM     16  N   LIG    1       -0.326   0.418   0.912  0.00  0.00    -0.510 N 
ATOM     17  C   LIG    1       -0.283   1.705   0.204  0.00  0.00    +0.210 C 
ENDBRANCH   5  16
ENDBRANCH   1  10
BRANCH   3  18
ATOM     18  C   LIG    1       -4.075  -1.384   3.586  0.00  0.00    +0.130 C 
BRANCH  18  19
ATOM     19  C   LIG    1       -4.536  -2.325   4.669  0.00  0.00    -0.070 A 
ATOM     20  C   LIG    1       -4.300  -3.682   4.550  0.00  0.00    +0.030 A 
ATOM     21  C   LIG    1       -4.718  -4.548   5.543  0.00  0.00    +0.030 A 
ATOM     22  C   LIG    1       -5.385  -4.059   6.656  0.00  0.00    +0.050 A 
ATOM     23  O   LIG    1       -5.798  -4.925   7.621  0.00  0.00    -0.310 OA
ATOM     24  C   LIG    1       -6.129  -4.360   8.894  0.00  0.00    +0.220 C 
ATOM     25  C   LIG    1       -7.011  -3.127   8.657  0.00  0.00    +0.220 C 
ATOM     26  O   LIG    1       -6.274  -2.194   7.860  0.00  0.00    -0.310 OA
ATOM     27  C   LIG    1       -5.625  -2.695   6.774  0.00  0.00    +0.050 A 
ATOM     28  C   LIG    1       -5.199  -1.831   5.776  0.00  0.00    +0.030 A 
ENDBRANCH  18  19
ENDBRANCH   3  18
TORSDOF 5
