REMARK  Name = ZINCqH0000007kO2.0
REMARK                            x       y       z     vdW  Elec       q    Type
REMARK                         _______ _______ _______ _____ _____    ______ ____
ROOT
ATOM      1  C   LIG    1       -3.824   1.827   1.758  0.00  0.00    +0.520 C 
ATOM      2  N   LIG    1       -2.833   1.027   1.317  0.00  0.00    -0.580 N 
ATOM      3  O   LIG    1       -4.418   2.541   0.978  0.00  0.00    -0.510 OA
ENDROOT
BRANCH   2   4
ATOM      4  C   LIG    1       -2.419   1.078  -0.087  0.00  0.00    +0.200 C 
ATOM      5  C   LIG    1       -2.841   2.301  -0.904  0.00  0.00    +0.040 C 
ATOM      6  C   LIG    1       -3.512   0.949  -1.150  0.00  0.00    +0.000 C 
ENDBRANCH   2   4
BRANCH   1   7
ATOM      7  C   LIG    1       -4.192   1.835   3.219  0.00  0.00    +0.110 C 
BRANCH   7  12
ATOM      8  C   LIG    1       -6.170   4.950   4.037  0.00  0.00    +0.090 A 
ATOM      9  C   LIG    1       -7.472   4.510   3.848  0.00  0.00    -0.040 A 
ATOM     10  C   LIG    1       -7.710   3.207   3.456  0.00  0.00    -0.040 A 
ATOM     11  C   LIG    1       -6.648   2.339   3.251  0.00  0.00    +0.110 A 
ATOM     12  C   LIG    1       -5.346   2.779   3.441  0.00  0.00    -0.060 A 
ATOM     13  C   LIG    1       -5.108   4.080   3.838  0.00  0.00    +0.040 A 
BRANCH   8  15
ATOM     14  C   LIG    1       -7.076   7.071   4.615  0.00  0.00    +0.230 C 
ATOM     15  O   LIG    1       -5.935   6.232   4.423  0.00  0.00    -0.320 OA
ENDBRANCH   8  15
BRANCH  11  16
ATOM     16  O   LIG    1       -6.883   1.056   2.865  0.00  0.00    -0.310 OA
ATOM     17  C   LIG    1       -8.248   0.671   2.689  0.00  0.00    +0.230 C 
ENDBRANCH  11  16
ENDBRANCH   7  12
ENDBRANCH   1   7
BRANCH   2  18
ATOM     18  C   LIG    1       -2.169   0.106   2.243  0.00  0.00    +0.350 C 
BRANCH  18  19
ATOM     19  C   LIG    1       -2.798  -1.259   2.132  0.00  0.00    -0.180 A 
ATOM     20  C   LIG    1       -2.525  -2.060   1.037  0.00  0.00    +0.150 A 
ATOM     21  C   LIG    1       -3.099  -3.317   0.938  0.00  0.00    -0.030 A 
ATOM     22  C   LIG    1       -3.949  -3.768   1.930  0.00  0.00    +0.090 A 
ATOM     23  C   LIG    1       -4.228  -2.966   3.021  0.00  0.00    -0.010 A 
ATOM     24  F   LIG    1       -1.693  -1.620   0.068  0.00  0.00    -0.120 F 
ATOM     25  C   LIG    1       -3.655  -1.709   3.121  0.00  0.00    +0.140 A 
ATOM     26  F   LIG    1       -3.927  -0.926   4.188  0.00  0.00    -0.120 F 
ENDBRANCH  18  19
ENDBRANCH   2  18
TORSDOF 7
