REMARK  Name = ZINCvU0000000ALA.0
REMARK                            x       y       z     vdW  Elec       q    Type
REMARK                         _______ _______ _______ _____ _____    ______ ____
ROOT
ATOM      1  C   LIG    1        1.233   3.483   0.009  0.00  0.00    +0.480 A 
ATOM      2  N   LIG    1        2.417   4.076   0.000  0.00  0.00    -0.580 NA
ATOM      3  C   LIG    1        3.546   3.371  -0.015  0.00  0.00    +0.410 A 
ATOM      4  N   LIG    1        3.564   2.051  -0.021  0.00  0.00    -0.540 NA
ATOM      5  C   LIG    1        2.418   1.357  -0.013  0.00  0.00    +0.190 A 
ATOM      6  C   LIG    1        2.400  -0.044  -0.021  0.00  0.00    +0.030 A 
ATOM      7  C   LIG    1        1.206  -0.703  -0.013  0.00  0.00    +0.060 A 
ATOM      8  C   LIG    1        0.002  -0.004   0.002  0.00  0.00    +0.000 A 
ATOM      9  C   LIG    1       -0.016   1.360   0.009  0.00  0.00    +0.050 A 
ATOM     10  C   LIG    1        1.191   2.066   0.002  0.00  0.00    -0.200 A 
ENDROOT
BRANCH   3  11
ATOM     11  C   LIG    1        4.839   4.098  -0.023  0.00  0.00    -0.010 A 
ATOM     12  C   LIG    1        4.856   5.492  -0.017  0.00  0.00    +0.030 A 
ATOM     13  C   LIG    1        6.060   6.167  -0.024  0.00  0.00    +0.040 A 
ATOM     14  C   LIG    1        7.250   5.465  -0.039  0.00  0.00    -0.060 A 
ATOM     15  C   LIG    1        7.242   4.076  -0.046  0.00  0.00    +0.120 A 
ATOM     16  C   LIG    1        6.039   3.391  -0.033  0.00  0.00    +0.050 A 
BRANCH  15  17
ATOM     17  O   LIG    1        8.415   3.390  -0.060  0.00  0.00    -0.320 OA
ATOM     18  C   LIG    1        9.618   4.161  -0.068  0.00  0.00    +0.250 C 
ENDBRANCH  15  17
ENDBRANCH   3  11
BRANCH   1  19
ATOM     19  N   LIG    1        0.071   4.225   0.024  0.00  0.00    -0.690 N 
ATOM     20  H   LIG    1       -0.790   3.778   0.030  0.00  0.00    +0.410 HD
BRANCH  19  28
ATOM     21  C   LIG    1       -2.775   6.120   2.385  0.00  0.00    -0.110 A 
ATOM     22  C   LIG    1       -3.422   7.218   1.849  0.00  0.00    +0.060 A 
ATOM     23  C   LIG    1       -2.922   7.827   0.716  0.00  0.00    -0.020 A 
ATOM     24  C   LIG    1       -1.768   7.341   0.111  0.00  0.00    +0.150 A 
ATOM     25  O   LIG    1       -1.309   7.966  -1.004  0.00  0.00    -0.310 OA
ATOM     26  C   LIG    1        0.040   7.716  -1.402  0.00  0.00    +0.250 C 
ATOM     27  C   LIG    1        0.270   6.199  -1.406  0.00  0.00    -0.000 C 
ATOM     28  C   LIG    1        0.136   5.689   0.031  0.00  0.00    +0.310 C 
ATOM     29  C   LIG    1       -1.120   6.244   0.652  0.00  0.00    -0.180 A 
ATOM     30  C   LIG    1       -1.627   5.636   1.788  0.00  0.00    +0.050 A 
BRANCH  21  32
ATOM     31  C   LIG    1       -4.304   4.353   3.215  0.00  0.00    +0.020 C 
ATOM     32  C   LIG    1       -3.320   5.453   3.621  0.00  0.00    +0.060 C 
ENDBRANCH  21  32
ENDBRANCH  19  28
ENDBRANCH   1  19
TORSDOF 5
