REMARK  Name = ZINCvU0000000EvI.0
REMARK                            x       y       z     vdW  Elec       q    Type
REMARK                         _______ _______ _______ _____ _____    ______ ____
ROOT
ATOM      1  C   LIG    1       -1.079   6.540  -2.385  0.00  0.00    +0.280 C 
ATOM      2  C   LIG    1       -0.795   7.236  -3.731  0.00  0.00    +0.120 C 
ATOM      3  C   LIG    1        0.682   7.005  -3.955  0.00  0.00    +0.180 C 
ATOM      4  N   LIG    1        1.168   6.332  -2.967  0.00  0.00    -0.190 NA
ATOM      5  N   LIG    1        0.233   6.006  -1.987  0.00  0.00    -0.850 N 
ENDROOT
BRANCH   1  13
ATOM      6  C   LIG    1       -6.373   2.713  -2.626  0.00  0.00    +0.120 C 
ATOM      7  C   LIG    1       -4.935   2.452  -2.994  0.00  0.00    -0.050 A 
ATOM      8  C   LIG    1       -4.563   1.234  -3.472  0.00  0.00    +0.040 A 
ATOM      9  C   LIG    1       -3.239   0.970  -3.818  0.00  0.00    +0.030 A 
ATOM     10  C   LIG    1       -2.279   1.927  -3.687  0.00  0.00    +0.040 A 
ATOM     11  C   LIG    1       -2.627   3.196  -3.197  0.00  0.00    -0.090 A 
ATOM     12  C   LIG    1       -1.665   4.213  -3.046  0.00  0.00    +0.120 A 
ATOM     13  C   LIG    1       -2.075   5.422  -2.563  0.00  0.00    -0.160 A 
ATOM     14  C   LIG    1       -3.414   5.621  -2.229  0.00  0.00    +0.230 A 
ATOM     15  N   LIG    1       -4.309   4.673  -2.377  0.00  0.00    -0.450 NA
ATOM     16 CL   LIG    1       -3.912   7.164  -1.611  0.00  0.00    -0.010 Cl
ATOM     17  C   LIG    1       -3.973   3.466  -2.844  0.00  0.00    +0.150 A 
ENDBRANCH   1  13
BRANCH   3  18
ATOM     18  C   LIG    1        1.446   7.474  -5.117  0.00  0.00    +0.020 A 
ATOM     19  C   LIG    1        2.778   7.274  -5.334  0.00  0.00    +0.020 A 
ATOM     20  C   LIG    1        3.085   7.891  -6.562  0.00  0.00    -0.060 A 
ATOM     21  C   LIG    1        1.942   8.431  -7.031  0.00  0.00    +0.200 A 
ATOM     22  O   LIG    1        0.953   8.173  -6.159  0.00  0.00    -0.160 OA
ENDBRANCH   3  18
BRANCH   5  23
ATOM     23  S   LIG    1        0.545   5.152  -0.603  0.00  0.00    +2.710 S 
ATOM     24  O   LIG    1        1.894   5.432  -0.255  0.00  0.00    -0.920 OA
ATOM     25  O   LIG    1       -0.549   5.391   0.271  0.00  0.00    -0.930 OA
BRANCH  23  26
ATOM     26  C   LIG    1        0.484   3.441  -1.021  0.00  0.00    -0.680 A 
ATOM     27  C   LIG    1        1.588   2.827  -1.583  0.00  0.00    +0.130 A 
ATOM     28  C   LIG    1        1.541   1.485  -1.910  0.00  0.00    +0.000 A 
ATOM     29  C   LIG    1        0.389   0.757  -1.675  0.00  0.00    +0.070 A 
ATOM     30  C   LIG    1       -0.716   1.372  -1.118  0.00  0.00    +0.000 A 
ATOM     31  C   LIG    1       -0.667   2.713  -0.787  0.00  0.00    +0.120 A 
ENDBRANCH  23  26
ENDBRANCH   5  23
TORSDOF 4
