REMARK  Name = ZINCpk00000xIc27.0
REMARK                            x       y       z     vdW  Elec       q    Type
REMARK                         _______ _______ _______ _____ _____    ______ ____
ROOT
ATOM      1  N   LIG    1        2.953   1.694  -1.401  0.00  0.00    -0.500 NA
ATOM      2  C   LIG    1        2.227   0.529  -1.923  0.00  0.00    +0.200 C 
ENDROOT
BRANCH   1   7
ATOM      3  C   LIG    1        4.828   1.529  -3.012  0.00  0.00    +0.160 C 
ATOM      4  C   LIG    1        5.443   0.131  -3.246  0.00  0.00    +0.190 C 
ATOM      5  O   LIG    1        5.867  -0.309  -1.937  0.00  0.00    -0.360 OA
ATOM      6  C   LIG    1        4.815   0.101  -1.038  0.00  0.00    +0.170 C 
ATOM      7  C   LIG    1        4.405   1.509  -1.526  0.00  0.00    +0.170 C 
BRANCH   3   8
ATOM      8  O   LIG    1        3.690   1.725  -3.853  0.00  0.00    -0.270 OA
BRANCH   8  12
ATOM      9  C   LIG    1        2.929   3.793  -8.211  0.00  0.00    +0.370 C 
ATOM     10  N   LIG    1        3.571   3.302  -6.990  0.00  0.00    -0.370 N 
ATOM     11  C   LIG    1        2.956   2.650  -5.969  0.00  0.00    +0.200 A 
ATOM     12  C   LIG    1        3.898   2.371  -5.034  0.00  0.00    -0.030 A 
ATOM     13  C   LIG    1        5.126   2.861  -5.501  0.00  0.00    +0.170 A 
ATOM     14  N   LIG    1        4.930   3.417  -6.669  0.00  0.00    -0.270 NA
ENDBRANCH   8  12
ENDBRANCH   3   8
ENDBRANCH   1   7
BRANCH   1  15
ATOM     15  C   LIG    1        2.575   1.970  -0.009  0.00  0.00    +0.300 C 
BRANCH  15  16
ATOM     16  C   LIG    1        1.130   2.394   0.045  0.00  0.00    +0.230 A 
ATOM     17  N   LIG    1        0.694   3.621  -0.048  0.00  0.00    -0.460 NA
ATOM     18  C   LIG    1       -0.644   3.622   0.042  0.00  0.00    +0.160 A 
ATOM     19  C   LIG    1       -1.053   2.347   0.190  0.00  0.00    +0.130 A 
ATOM     20  N   LIG    1        0.072   1.569   0.198  0.00  0.00    -0.460 N 
BRANCH  20  21
ATOM     21  C   LIG    1        0.120   0.111   0.340  0.00  0.00    +0.330 C 
BRANCH  21  22
ATOM     22  C   LIG    1        0.358  -0.251   1.808  0.00  0.00    +0.440 C 
ATOM     23  F   LIG    1        1.572   0.300   2.233  0.00  0.00    -0.170 F 
ATOM     24  F   LIG    1        0.404  -1.642   1.943  0.00  0.00    -0.170 F 
ATOM     25  F   LIG    1       -0.684   0.260   2.588  0.00  0.00    -0.170 F 
ENDBRANCH  21  22
ENDBRANCH  20  21
ENDBRANCH  15  16
ENDBRANCH   1  15
TORSDOF 7
