REMARK  Name = ZINCpk00000y6yHG.0
REMARK                            x       y       z     vdW  Elec       q    Type
REMARK                         _______ _______ _______ _____ _____    ______ ____
ROOT
ATOM      1  N   LIG    1       -1.524  -2.854  -0.192  0.00  0.00    -0.540 NA
ATOM      2  C   LIG    1       -1.687  -3.885  -1.220  0.00  0.00    +0.220 C 
ATOM      3  C   LIG    1       -3.108  -3.833  -1.789  0.00  0.00    -0.320 C 
ATOM      4  S   LIG    1       -4.285  -4.203  -0.453  0.00  0.00    +2.410 S 
ATOM      5  C   LIG    1       -3.756  -3.013   0.815  0.00  0.00    -0.310 C 
ATOM      6  O   LIG    1       -4.035  -5.518   0.023  0.00  0.00    -0.940 OA
ATOM      7  O   LIG    1       -5.592  -3.854  -0.888  0.00  0.00    -0.940 OA
ATOM      8  C   LIG    1       -2.249  -3.173   1.040  0.00  0.00    +0.250 C 
ENDROOT
BRANCH   8   9
ATOM      9  C   LIG    1       -1.805  -2.241   2.138  0.00  0.00    -0.240 A 
ATOM     10  C   LIG    1       -1.591  -2.578   3.431  0.00  0.00    +0.250 A 
ATOM     11  N   LIG    1       -1.205  -1.464   4.088  0.00  0.00    -0.380 N 
ATOM     12  N   LIG    1       -1.181  -0.408   3.169  0.00  0.00    -0.300 NA
ATOM     13  C   LIG    1       -0.870  -1.376   5.512  0.00  0.00    +0.360 C 
ATOM     14  C   LIG    1       -1.535  -0.876   1.999  0.00  0.00    +0.270 A 
ENDBRANCH   8   9
BRANCH   1  15
ATOM     15  C   LIG    1       -0.102  -2.606   0.083  0.00  0.00    +0.270 C 
BRANCH  15  23
ATOM     16  C   LIG    1        0.475  -0.702  -1.454  0.00  0.00    +0.350 A 
ATOM     17  N   LIG    1        1.050  -0.216  -2.542  0.00  0.00    -0.540 NA
ATOM     18  C   LIG    1        1.728  -0.988  -3.370  0.00  0.00    +0.170 A 
ATOM     19  C   LIG    1        1.853  -2.342  -3.133  0.00  0.00    -0.070 A 
ATOM     20  C   LIG    1        1.259  -2.892  -2.005  0.00  0.00    -0.000 A 
ATOM     21  C   LIG    1        1.375  -4.366  -1.714  0.00  0.00    +0.110 C 
ATOM     22  C   LIG    1        2.370  -0.385  -4.593  0.00  0.00    +0.130 C 
ATOM     23  C   LIG    1        0.560  -2.055  -1.154  0.00  0.00    -0.160 A 
BRANCH  16  25
ATOM     24  C   LIG    1       -0.258   1.510  -0.992  0.00  0.00    +0.260 C 
ATOM     25  O   LIG    1       -0.208   0.129  -0.628  0.00  0.00    -0.300 OA
ENDBRANCH  16  25
ENDBRANCH  15  23
ENDBRANCH   1  15
TORSDOF 4
