REMARK  Name = ZINCrm00000VuQ3w.1
REMARK                            x       y       z     vdW  Elec       q    Type
REMARK                         _______ _______ _______ _____ _____    ______ ____
ROOT
ATOM      1  C   LIG    1        2.502   1.084  -0.016  0.00  0.00    +0.360 C 
ENDROOT
BRANCH   1   5
ATOM      2  C   LIG    1       -1.188   3.054   0.029  0.00  0.00    +0.520 A 
ATOM      3  N   LIG    1       -1.162   1.730   0.017  0.00  0.00    -0.540 NA
ATOM      4  C   LIG    1       -0.013   1.076   0.008  0.00  0.00    +0.400 A 
ATOM      5  C   LIG    1        1.173   1.793   0.001  0.00  0.00    -0.300 A 
ATOM      6  C   LIG    1        1.110   3.178   0.008  0.00  0.00    +0.410 A 
ATOM      7  N   LIG    1       -0.073   3.770   0.022  0.00  0.00    -0.520 NA
BRANCH   2  12
ATOM      8  C   LIG    1       -6.226   5.107   1.138  0.00  0.00    +0.340 C 
ATOM      9  N   LIG    1       -4.943   4.392   1.171  0.00  0.00    -0.390 N 
ATOM     10  C   LIG    1       -4.848   3.502   0.006  0.00  0.00    +0.280 C 
ATOM     11  C   LIG    1       -3.520   2.744   0.050  0.00  0.00    +0.260 C 
ATOM     12  N   LIG    1       -2.409   3.706   0.044  0.00  0.00    -0.460 N 
ATOM     13  C   LIG    1       -2.504   4.620   1.192  0.00  0.00    +0.260 C 
ATOM     14  C   LIG    1       -3.841   5.363   1.139  0.00  0.00    +0.300 C 
ATOM     15  H   LIG    1       -4.884   3.845   2.017  0.00  0.00    +0.430 HD
ENDBRANCH   2  12
ENDBRANCH   1   5
BRANCH   1  16
ATOM     16  N   LIG    1        2.921   0.861  -1.406  0.00  0.00    -0.510 N 
ATOM     17  H   LIG    1        3.008   1.748  -1.878  0.00  0.00    +0.430 HD
ATOM     18  H   LIG    1        2.232   0.295  -1.878  0.00  0.00    +0.430 HD
BRANCH  16  19
ATOM     19  C   LIG    1        4.217   0.169  -1.422  0.00  0.00    +0.140 C 
ATOM     20  C   LIG    1        4.058  -1.230  -0.818  0.00  0.00    +0.050 C 
ATOM     21  C   LIG    1        5.396  -1.970  -0.911  0.00  0.00    +0.040 C 
ATOM     22  C   LIG    1        5.844  -2.016  -2.375  0.00  0.00    +0.240 C 
ATOM     23  O   LIG    1        5.942  -0.685  -2.884  0.00  0.00    -0.340 OA
ATOM     24  C   LIG    1        4.710   0.039  -2.866  0.00  0.00    +0.220 C 
BRANCH  24  25
ATOM     25  C   LIG    1        4.926   1.413  -3.448  0.00  0.00    -0.090 A 
ATOM     26  C   LIG    1        6.117   2.091  -3.244  0.00  0.00    +0.010 A 
ATOM     27  C   LIG    1        6.280   3.347  -3.797  0.00  0.00    +0.290 A 
ATOM     28  N   LIG    1        5.316   3.903  -4.504  0.00  0.00    -0.460 NA
ATOM     29  C   LIG    1        4.168   3.289  -4.715  0.00  0.00    +0.280 A 
ATOM     30  C   LIG    1        3.935   2.029  -4.197  0.00  0.00    -0.050 A 
ENDBRANCH  24  25
ENDBRANCH  16  19
ENDBRANCH   1  16
TORSDOF 5
