REMARK  Name = ZINCrD000000Bnlr.0
REMARK                            x       y       z     vdW  Elec       q    Type
REMARK                         _______ _______ _______ _____ _____    ______ ____
ROOT
ATOM      1  C   LIG    1        4.901  -0.281  -0.059  0.00  0.00    -0.110 A 
ATOM      2  C   LIG    1        3.716  -0.994  -0.050  0.00  0.00    +0.040 A 
ATOM      3  C   LIG    1        2.507  -0.328  -0.031  0.00  0.00    +0.010 A 
ATOM      4  C   LIG    1        2.482   1.065  -0.020  0.00  0.00    -0.030 A 
ATOM      5  C   LIG    1        3.679   1.779  -0.033  0.00  0.00    +0.010 A 
ATOM      6  C   LIG    1        4.883   1.103  -0.047  0.00  0.00    +0.040 A 
ENDROOT
BRANCH   4   7
ATOM      7  C   LIG    1        1.186   1.787   0.000  0.00  0.00    -0.080 A 
ATOM      8  C   LIG    1       -0.013   1.076   0.008  0.00  0.00    +0.070 A 
ATOM      9  C   LIG    1       -1.216   1.746   0.017  0.00  0.00    -0.010 A 
ATOM     10  C   LIG    1       -1.247   3.139   0.029  0.00  0.00    +0.110 A 
ATOM     11  O   LIG    1       -2.313   3.986   0.031  0.00  0.00    -0.300 OA
ATOM     12  C   LIG    1       -1.886   5.286   0.472  0.00  0.00    +0.240 C 
ATOM     13  C   LIG    1       -0.397   5.318   0.053  0.00  0.00    +0.070 C 
ATOM     14  C   LIG    1       -0.047   3.842   0.028  0.00  0.00    -0.170 A 
ATOM     15  C   LIG    1        1.158   3.181   0.011  0.00  0.00    +0.070 A 
ENDBRANCH   4   7
BRANCH   1  16
ATOM     16  C   LIG    1        6.218  -1.013  -0.080  0.00  0.00    +0.320 C 
BRANCH  16  19
ATOM     17  O   LIG    1        8.485  -2.273  -0.821  0.00  0.00    -0.530 OA
ATOM     18  C   LIG    1        7.783  -1.882  -1.733  0.00  0.00    +0.610 C 
ATOM     19  N   LIG    1        6.628  -1.240  -1.468  0.00  0.00    -0.720 N 
ATOM     20  H   LIG    1        6.069  -0.927  -2.196  0.00  0.00    +0.410 HD
BRANCH  18  21
ATOM     21  C   LIG    1        8.197  -2.110  -3.133  0.00  0.00    -0.010 A 
ATOM     22  N   LIG    1        7.538  -1.749  -4.213  0.00  0.00    -0.240 NA
ATOM     23  N   LIG    1        8.186  -2.104  -5.275  0.00  0.00    -0.310 N 
ATOM     24  C   LIG    1        8.061  -2.041  -6.742  0.00  0.00    +0.320 C 
ATOM     25  C   LIG    1        9.475  -2.323  -7.293  0.00  0.00    +0.070 C 
ATOM     26  C   LIG    1       10.098  -3.156  -6.150  0.00  0.00    +0.140 C 
ATOM     27  C   LIG    1        9.325  -2.734  -4.920  0.00  0.00    -0.010 A 
ATOM     28  C   LIG    1        9.373  -2.764  -3.567  0.00  0.00    +0.000 A 
ENDBRANCH  18  21
ENDBRANCH  16  19
ENDBRANCH   1  16
TORSDOF 4
