REMARK  Name = ZINCrD00000eDqe0.0
REMARK                            x       y       z     vdW  Elec       q    Type
REMARK                         _______ _______ _______ _____ _____    ______ ____
ROOT
ATOM      1  C   LIG    1        1.571   3.219  -3.427  0.00  0.00    +0.610 C 
ATOM      2  N   LIG    1        1.022   2.703  -2.310  0.00  0.00    -0.540 N 
ATOM      3  C   LIG    1       -0.356   2.181  -2.309  0.00  0.00    +0.270 C 
ATOM      4  C   LIG    1       -1.013   2.636  -0.999  0.00  0.00    +0.230 C 
ATOM      5  N   LIG    1       -0.278   2.063   0.132  0.00  0.00    -0.490 N 
ATOM      6  C   LIG    1        1.091   2.336   0.087  0.00  0.00    +0.070 A 
ATOM      7  C   LIG    1        1.822   2.296   1.270  0.00  0.00    +0.040 A 
ATOM      8  C   LIG    1        3.179   2.556   1.258  0.00  0.00    -0.010 A 
ATOM      9  C   LIG    1        3.821   2.856   0.071  0.00  0.00    +0.020 A 
ATOM     10  C   LIG    1        3.104   2.900  -1.111  0.00  0.00    +0.020 A 
ATOM     11  C   LIG    1        1.742   2.643  -1.105  0.00  0.00    +0.120 A 
ATOM     12  O   LIG    1        2.664   3.751  -3.377  0.00  0.00    -0.500 OA
ENDROOT
BRANCH   1  19
ATOM     13  C   LIG    1       -0.028   2.625  -9.174  0.00  0.00    +0.070 C 
ATOM     14  C   LIG    1        0.314   3.811  -8.270  0.00  0.00    +0.240 C 
ATOM     15  O   LIG    1        1.643   4.272  -8.553  0.00  0.00    -0.360 OA
ATOM     16  C   LIG    1        2.147   5.237  -7.626  0.00  0.00    +0.140 C 
ATOM     17  C   LIG    1        2.432   4.558  -6.277  0.00  0.00    +0.110 C 
ATOM     18  C   LIG    1        1.229   3.724  -5.926  0.00  0.00    -0.130 A 
ATOM     19  C   LIG    1        0.847   3.139  -4.712  0.00  0.00    +0.000 A 
ATOM     20  N   LIG    1       -0.292   2.505  -4.939  0.00  0.00    -0.260 NA
ATOM     21  N   LIG    1       -0.638   2.642  -6.174  0.00  0.00    -0.360 N 
ATOM     22  H   LIG    1       -1.438   2.266  -6.573  0.00  0.00    +0.450 HD
ATOM     23  C   LIG    1        3.441   5.842  -8.175  0.00  0.00    +0.070 C 
ATOM     24  C   LIG    1        0.270   3.381  -6.826  0.00  0.00    -0.020 A 
ENDBRANCH   1  19
BRANCH   5  25
ATOM     25  C   LIG    1       -0.524   0.619   0.242  0.00  0.00    +0.220 C 
BRANCH  25  26
ATOM     26  C   LIG    1       -0.009   0.116   1.592  0.00  0.00    -0.030 C 
ATOM     27  C   LIG    1        1.137  -0.898   1.578  0.00  0.00    +0.010 C 
ATOM     28  C   LIG    1       -0.278  -1.347   1.950  0.00  0.00    +0.010 C 
ENDBRANCH  25  26
ENDBRANCH   5  25
TORSDOF 3
