REMARK  Name = ZINCpk00000xVdoO.0
REMARK                            x       y       z     vdW  Elec       q    Type
REMARK                         _______ _______ _______ _____ _____    ______ ____
ROOT
ATOM      1  C   LIG    1        1.371   9.821   3.037  0.00  0.00    +0.300 C 
ATOM      2  C   LIG    1        1.425  11.350   2.833  0.00  0.00    +0.040 C 
ATOM      3  C   LIG    1        0.834  11.530   1.410  0.00  0.00    +0.040 C 
ATOM      4  C   LIG    1        1.376  10.272   0.687  0.00  0.00    +0.250 C 
ATOM      5  N   LIG    1        1.331   9.204   1.703  0.00  0.00    -0.610 N 
ATOM      6  C   LIG    1        1.260   7.882   1.450  0.00  0.00    +0.520 C 
ATOM      7  O   LIG    1        1.229   7.090   2.369  0.00  0.00    -0.510 OA
ENDROOT
BRANCH   1  11
ATOM      8  C   LIG    1        4.449   8.257   6.669  0.00  0.00    +0.360 C 
ATOM      9  N   LIG    1        3.935   8.680   5.365  0.00  0.00    -0.370 N 
ATOM     10  C   LIG    1        2.664   9.041   5.091  0.00  0.00    +0.240 A 
ATOM     11  C   LIG    1        2.599   9.361   3.778  0.00  0.00    -0.240 A 
ATOM     12  C   LIG    1        3.874   9.184   3.229  0.00  0.00    +0.230 A 
ATOM     13  N   LIG    1        4.676   8.782   4.180  0.00  0.00    -0.300 NA
ENDBRANCH   1  11
BRANCH   6  14
ATOM     14  C   LIG    1        1.221   7.388   0.027  0.00  0.00    +0.340 C 
BRANCH  14  15
ATOM     15  N   LIG    1        1.145   5.925   0.021  0.00  0.00    -0.530 N 
ATOM     16  C   LIG    1        2.289   5.192   0.006  0.00  0.00    +0.580 A 
ATOM     17  N   LIG    1        2.305   3.893   0.000  0.00  0.00    -0.520 NA
ATOM     18  C   LIG    1        1.159   3.168   0.007  0.00  0.00    +0.150 A 
ATOM     19  C   LIG    1        1.175   1.772   0.000  0.00  0.00    +0.030 A 
ATOM     20  C   LIG    1       -0.013   1.076   0.008  0.00  0.00    +0.070 A 
ATOM     21  C   LIG    1       -1.229   1.745   0.017  0.00  0.00    -0.010 A 
ATOM     22  C   LIG    1       -1.271   3.122   0.030  0.00  0.00    +0.100 A 
ATOM     23  C   LIG    1       -0.081   3.845   0.022  0.00  0.00    -0.190 A 
ATOM     24  C   LIG    1       -0.064   5.316   0.029  0.00  0.00    +0.560 A 
ATOM     25  O   LIG    1       -1.096   5.960   0.042  0.00  0.00    -0.510 OA
ENDBRANCH  14  15
ENDBRANCH   6  14
TORSDOF 3
