REMARK  Name = ZINCrD00000l6vaF.0
REMARK                            x       y       z     vdW  Elec       q    Type
REMARK                         _______ _______ _______ _____ _____    ______ ____
ROOT
ATOM      1  N   LIG    1        5.516  -1.640  -2.311  0.00  0.00    -0.740 N 
ATOM      2  H   LIG    1        5.405  -0.890  -2.916  0.00  0.00    +0.400 HD
ATOM      3  C   LIG    1        5.182  -1.513  -1.011  0.00  0.00    +0.710 C 
ATOM      4  N   LIG    1        4.599  -0.379  -0.573  0.00  0.00    -0.630 N 
ATOM      5  C   LIG    1        4.129  -0.267   0.815  0.00  0.00    +0.300 C 
ATOM      6  C   LIG    1        2.658   0.159   0.804  0.00  0.00    +0.040 C 
ATOM      7  C   LIG    1        2.508   1.442  -0.016  0.00  0.00    +0.060 C 
ATOM      8  C   LIG    1        2.945   1.181  -1.459  0.00  0.00    +0.040 C 
ATOM      9  C   LIG    1        4.420   0.767  -1.474  0.00  0.00    +0.260 C 
ATOM     10  O   LIG    1        5.407  -2.420  -0.234  0.00  0.00    -0.590 OA
ENDROOT
BRANCH   7  11
ATOM     11  C   LIG    1        1.066   1.882   0.000  0.00  0.00    +0.090 A 
ATOM     12  C   LIG    1       -0.016   1.070   0.006  0.00  0.00    -0.120 A 
ATOM     13  C   LIG    1       -1.159   1.876   0.014  0.00  0.00    +0.230 A 
ATOM     14  N   LIG    1       -0.776   3.127   0.024  0.00  0.00    -0.300 NA
ATOM     15  N   LIG    1        0.624   3.157   0.011  0.00  0.00    -0.370 N 
ATOM     16  C   LIG    1        1.461   4.360   0.009  0.00  0.00    +0.350 C 
ENDBRANCH   7  11
BRANCH   1  17
ATOM     17  C   LIG    1        6.047  -2.911  -2.809  0.00  0.00    +0.280 C 
ATOM     18  C   LIG    1        4.887  -3.843  -3.167  0.00  0.00    +0.030 C 
BRANCH  17  19
ATOM     19  C   LIG    1        6.898  -2.655  -4.054  0.00  0.00    +0.190 C 
BRANCH  19  20
ATOM     20  O   LIG    1        6.068  -2.154  -5.104  0.00  0.00    -0.330 OA
BRANCH  20  28
ATOM     21  C   LIG    1        7.068   0.463  -5.466  0.00  0.00    +0.100 C 
ATOM     22  C   LIG    1        7.184  -0.604  -6.523  0.00  0.00    -0.100 A 
ATOM     23  C   LIG    1        7.804  -0.322  -7.725  0.00  0.00    +0.010 A 
ATOM     24  C   LIG    1        7.905  -1.300  -8.698  0.00  0.00    +0.010 A 
ATOM     25  C   LIG    1        7.392  -2.563  -8.469  0.00  0.00    +0.020 A 
ATOM     26  C   LIG    1        6.776  -2.851  -7.266  0.00  0.00    -0.100 A 
ATOM     27  C   LIG    1        6.217  -4.228  -7.016  0.00  0.00    +0.100 C 
ATOM     28  C   LIG    1        6.673  -1.872  -6.288  0.00  0.00    +0.090 A 
ENDBRANCH  20  28
ENDBRANCH  19  20
ENDBRANCH  17  19
ENDBRANCH   1  17
TORSDOF 5
