REMARK  Name = ZINCvU00000004in.0
REMARK                            x       y       z     vdW  Elec       q    Type
REMARK                         _______ _______ _______ _____ _____    ______ ____
ROOT
ATOM      1  C   LIG    1        2.175  -4.975  -0.034  0.00  0.00    +0.520 C 
ATOM      2  O   LIG    1        2.883  -5.959  -0.111  0.00  0.00    -0.490 OA
ENDROOT
BRANCH   1   3
ATOM      3  C   LIG    1        2.779  -3.627  -0.046  0.00  0.00    -0.070 A 
ATOM      4  C   LIG    1        1.992  -2.485  -0.068  0.00  0.00    +0.070 A 
ATOM      5  C   LIG    1        2.609  -1.221  -0.079  0.00  0.00    +0.230 A 
ATOM      6  N   LIG    1        3.921  -1.079  -0.075  0.00  0.00    -0.440 NA
ATOM      7  C   LIG    1        4.751  -2.124  -0.049  0.00  0.00    +0.130 A 
ATOM      8  C   LIG    1        6.146  -1.941  -0.040  0.00  0.00    +0.050 A 
ATOM      9  C   LIG    1        6.968  -3.026  -0.018  0.00  0.00    +0.040 A 
ATOM     10  C   LIG    1        6.452  -4.319  -0.006  0.00  0.00    +0.030 A 
ATOM     11  C   LIG    1        5.105  -4.534  -0.015  0.00  0.00    +0.050 A 
ATOM     12  C   LIG    1        4.231  -3.443  -0.036  0.00  0.00    -0.060 A 
BRANCH   5  13
ATOM     13  C   LIG    1        1.762  -0.014  -0.103  0.00  0.00    -0.170 A 
ATOM     14  C   LIG    1        2.216   1.257  -0.116  0.00  0.00    +0.070 A 
ATOM     15  C   LIG    1        1.231   2.220  -0.138  0.00  0.00    +0.010 A 
ATOM     16  C   LIG    1       -0.021   1.750  -0.143  0.00  0.00    -0.030 A 
ATOM     17  S   LIG    1        0.003  -0.008  -0.119  0.00  0.00    +0.150 S 
ENDBRANCH   5  13
ENDBRANCH   1   3
BRANCH   1  18
ATOM     18  O   LIG    1        0.838  -5.114   0.063  0.00  0.00    -0.320 OA
BRANCH  18  19
ATOM     19  C   LIG    1        0.315  -6.469   0.069  0.00  0.00    +0.270 C 
BRANCH  19  22
ATOM     20  N   LIG    1       -1.894  -7.574   0.208  0.00  0.00    -0.650 N 
ATOM     21  H   LIG    1       -1.433  -8.427   0.211  0.00  0.00    +0.420 HD
ATOM     22  C   LIG    1       -1.187  -6.426   0.183  0.00  0.00    +0.520 C 
ATOM     23  O   LIG    1       -1.760  -5.359   0.253  0.00  0.00    -0.490 OA
BRANCH  20  30
ATOM     24  C   LIG    1       -4.031  -8.611  -0.260  0.00  0.00    +0.110 A 
ATOM     25  C   LIG    1       -5.415  -8.566  -0.236  0.00  0.00    -0.040 A 
ATOM     26  C   LIG    1       -6.064  -7.455   0.272  0.00  0.00    +0.060 A 
ATOM     27  C   LIG    1       -5.333  -6.386   0.758  0.00  0.00    -0.050 A 
ATOM     28  C   LIG    1       -3.950  -6.425   0.742  0.00  0.00    +0.080 A 
ATOM     29 CL   LIG    1       -6.153  -4.994   1.394  0.00  0.00    -0.060 Cl
ATOM     30  C   LIG    1       -3.294  -7.534   0.229  0.00  0.00    +0.130 A 
BRANCH  24  32
ATOM     31  C   LIG    1       -4.212 -10.769  -1.242  0.00  0.00    +0.250 C 
ATOM     32  O   LIG    1       -3.393  -9.703  -0.758  0.00  0.00    -0.320 OA
ENDBRANCH  24  32
ENDBRANCH  20  30
ENDBRANCH  19  22
ENDBRANCH  18  19
ENDBRANCH   1  18
TORSDOF 7
