REMARK  Name = ZINCpe000000WVIP.0
REMARK                            x       y       z     vdW  Elec       q    Type
REMARK                         _______ _______ _______ _____ _____    ______ ____
ROOT
ATOM      1  C   LIG    1        1.167   6.372  -3.516  0.00  0.00    +0.100 C 
ATOM      2  C   LIG    1        2.189   6.761  -2.446  0.00  0.00    +0.010 C 
ENDROOT
BRANCH   2   3
ATOM      3  C   LIG    1        3.479   7.172  -3.109  0.00  0.00    +0.540 C 
ATOM      4  N   LIG    1        3.642   8.438  -3.540  0.00  0.00    -0.690 N 
ATOM      5  H   LIG    1        2.929   9.085  -3.424  0.00  0.00    +0.410 HD
ATOM      6  C   LIG    1        4.795   8.805  -4.133  0.00  0.00    +0.700 C 
ATOM      7  N   LIG    1        4.958  10.072  -4.564  0.00  0.00    -0.730 N 
ATOM      8  H   LIG    1        4.245  10.719  -4.448  0.00  0.00    +0.400 HD
ATOM      9  O   LIG    1        5.689   7.995  -4.278  0.00  0.00    -0.520 OA
ATOM     10  O   LIG    1        4.370   6.363  -3.254  0.00  0.00    -0.450 OA
BRANCH   7  11
ATOM     11  C   LIG    1        6.211  10.471  -5.208  0.00  0.00    +0.180 C 
ATOM     12  C   LIG    1        7.374  10.260  -4.236  0.00  0.00    +0.030 C 
ATOM     13  C   LIG    1        6.136  11.948  -5.599  0.00  0.00    +0.040 C 
ATOM     14  C   LIG    1        6.434   9.623  -6.461  0.00  0.00    +0.030 C 
ENDBRANCH   7  11
ENDBRANCH   2   3
BRANCH   2  15
ATOM     15  S   LIG    1        2.493   5.346  -1.360  0.00  0.00    +0.100 S 
BRANCH  15  16
ATOM     16  C   LIG    1        0.902   5.179  -0.622  0.00  0.00    +0.240 A 
ATOM     17  N   LIG    1       -0.134   5.927  -0.873  0.00  0.00    -0.280 NA
ATOM     18  N   LIG    1       -1.198   5.475  -0.080  0.00  0.00    -0.540 N 
ATOM     19  H   LIG    1       -2.093   5.848  -0.055  0.00  0.00    +0.460 HD
ATOM     20  C   LIG    1       -0.747   4.428   0.641  0.00  0.00    +0.660 A 
ATOM     21  O   LIG    1       -1.392   3.777   1.444  0.00  0.00    -0.530 OA
ATOM     22  N   LIG    1        0.545   4.234   0.313  0.00  0.00    -0.530 N 
BRANCH  22  23
ATOM     23  C   LIG    1        1.423   3.197   0.862  0.00  0.00    +0.350 C 
BRANCH  23  24
ATOM     24  C   LIG    1        1.326   1.937  -0.000  0.00  0.00    +0.140 C 
ATOM     25  C   LIG    1        2.192   0.804   0.604  0.00  0.00    +0.020 C 
ATOM     26  C   LIG    1        1.480  -0.451   0.029  0.00  0.00    +0.020 C 
ATOM     27  C   LIG    1        0.002  -0.004   0.002  0.00  0.00    +0.190 C 
ATOM     28  O   LIG    1       -0.017   1.428   0.010  0.00  0.00    -0.370 OA
ENDBRANCH  23  24
ENDBRANCH  22  23
ENDBRANCH  15  16
ENDBRANCH   2  15
TORSDOF 6
