REMARK  Name = ZINCrH000004q4iO.0
REMARK                            x       y       z     vdW  Elec       q    Type
REMARK                         _______ _______ _______ _____ _____    ______ ____
ROOT
ATOM      1  C   LIG    1        4.053  -4.638  -2.612  0.00  0.00    +0.180 A 
ATOM      2  C   LIG    1        4.556  -3.792  -3.530  0.00  0.00    -0.120 A 
ATOM      3  S   LIG    1        4.308  -2.148  -2.947  0.00  0.00    +0.240 S 
ATOM      4  C   LIG    1        3.557  -2.746  -1.534  0.00  0.00    +0.240 A 
ATOM      5  N   LIG    1        3.529  -4.040  -1.550  0.00  0.00    -0.500 NA
ENDROOT
BRANCH   1   8
ATOM      6  C   LIG    1        4.928  -6.685  -0.444  0.00  0.00    +0.150 C 
ATOM      7  C   LIG    1        4.465  -7.019  -1.839  0.00  0.00    +0.120 A 
ATOM      8  C   LIG    1        4.086  -6.113  -2.772  0.00  0.00    -0.120 A 
ATOM      9  C   LIG    1        3.720  -6.874  -3.977  0.00  0.00    -0.080 A 
ATOM     10  C   LIG    1        3.267  -6.517  -5.246  0.00  0.00    +0.050 A 
ATOM     11  C   LIG    1        3.009  -7.489  -6.173  0.00  0.00    -0.020 A 
ATOM     12  C   LIG    1        3.196  -8.828  -5.860  0.00  0.00    +0.030 A 
ATOM     13  C   LIG    1        3.644  -9.201  -4.612  0.00  0.00    -0.010 A 
ATOM     14  C   LIG    1        3.912  -8.229  -3.654  0.00  0.00    +0.100 A 
ATOM     15  N   LIG    1        4.359  -8.283  -2.352  0.00  0.00    -0.590 N 
ATOM     16  H   LIG    1        4.572  -9.097  -1.871  0.00  0.00    +0.420 HD
ENDBRANCH   1   8
BRANCH   4  17
ATOM     17  N   LIG    1        3.052  -1.954  -0.509  0.00  0.00    -0.610 N 
ATOM     18  H   LIG    1        2.638  -2.369   0.265  0.00  0.00    +0.430 HD
ATOM     19  C   LIG    1        3.137  -0.612  -0.590  0.00  0.00    +0.530 C 
ATOM     20  O   LIG    1        3.655  -0.094  -1.557  0.00  0.00    -0.490 OA
BRANCH  19  21
ATOM     21  C   LIG    1        2.590   0.246   0.522  0.00  0.00    +0.120 C 
ATOM     22  C   LIG    1        2.782   1.728   0.174  0.00  0.00    +0.080 C 
ATOM     23  C   LIG    1        1.975   2.585   1.154  0.00  0.00    +0.050 C 
ATOM     24  C   LIG    1        0.478   2.390   0.890  0.00  0.00    +0.310 C 
ATOM     25  N   LIG    1        0.190   0.957   0.845  0.00  0.00    -0.360 N 
ATOM     26  N   LIG    1       -1.048   0.317   0.956  0.00  0.00    -0.310 NA
ATOM     27  C   LIG    1       -0.814  -0.968   0.860  0.00  0.00    +0.420 A 
ATOM     28  N   LIG    1        0.496  -1.161   0.695  0.00  0.00    -0.530 NA
ATOM     29  C   LIG    1        1.112  -0.012   0.684  0.00  0.00    +0.270 A 
ENDBRANCH  19  21
ENDBRANCH   4  17
TORSDOF 3
