REMARK  Name = ZINCBI0000000aDt.0
REMARK                            x       y       z     vdW  Elec       q    Type
REMARK                         _______ _______ _______ _____ _____    ______ ____
ROOT
ATOM      1  C   LIG    1       -0.858  -0.437   0.051  0.00  0.00    +0.120 C 
ATOM      2  C   LIG    1        0.528   0.154   0.081  0.00  0.00    +0.130 A 
ATOM      3  C   LIG    1        1.633  -0.676   0.046  0.00  0.00    -0.720 A 
ATOM      4  C   LIG    1        2.907  -0.137   0.074  0.00  0.00    +0.240 A 
ATOM      5  C   LIG    1        3.079   1.231   0.138  0.00  0.00    -0.070 A 
ATOM      6  C   LIG    1        1.970   2.068   0.172  0.00  0.00    +0.310 A 
ATOM      7  C   LIG    1        0.693   1.524   0.144  0.00  0.00    -0.120 A 
ENDROOT
BRANCH   3   8
ATOM      8  S   LIG    1        1.419  -2.423  -0.034  0.00  0.00    +2.700 S 
ATOM      9  O   LIG    1        2.714  -2.993   0.097  0.00  0.00    -0.950 OA
ATOM     10  O   LIG    1        0.570  -2.672  -1.146  0.00  0.00    -0.940 OA
BRANCH   8  11
ATOM     11  N   LIG    1        0.570  -2.875   1.313  0.00  0.00    -1.090 NA
ATOM     12  H   LIG    1       -0.386  -3.031   1.255  0.00  0.00    +0.420 HD
BRANCH  11  13
ATOM     13  C   LIG    1        1.262  -3.040   2.594  0.00  0.00    +0.230 C 
ATOM     14  C   LIG    1        0.256  -3.475   3.658  0.00  0.00    +0.060 C 
ATOM     15  C   LIG    1       -0.685  -2.299   3.942  0.00  0.00    +0.030 C 
ATOM     16  C   LIG    1        0.105  -1.215   4.673  0.00  0.00    +0.070 C 
ATOM     17  C   LIG    1        1.377  -0.896   3.932  0.00  0.00    -0.040 A 
ATOM     18  C   LIG    1        2.022   0.295   4.237  0.00  0.00    +0.000 A 
ATOM     19  C   LIG    1        3.193   0.642   3.596  0.00  0.00    +0.000 A 
ATOM     20  C   LIG    1        3.730  -0.202   2.643  0.00  0.00    +0.000 A 
ATOM     21  C   LIG    1        3.090  -1.386   2.337  0.00  0.00    +0.010 A 
ATOM     22  C   LIG    1        1.909  -1.736   2.980  0.00  0.00    -0.110 A 
BRANCH  13  23
ATOM     23  C   LIG    1        2.341  -4.116   2.450  0.00  0.00    +0.200 C 
BRANCH  23  24
ATOM     24  O   LIG    1        1.753  -5.313   1.937  0.00  0.00    -0.560 OA
ATOM     25  H   LIG    1        2.363  -6.062   1.892  0.00  0.00    +0.390 HD
ENDBRANCH  23  24
ENDBRANCH  13  23
ENDBRANCH  11  13
ENDBRANCH   8  11
ENDBRANCH   3   8
BRANCH   7  26
ATOM     26  N   LIG    1       -0.491   2.412   0.175  0.00  0.00    +0.020 N 
ATOM     27  O   LIG    1       -0.970   2.825  -0.866  0.00  0.00    -0.130 OA
ATOM     28  O   LIG    1       -0.986   2.730   1.242  0.00  0.00    -0.140 OA
ENDBRANCH   7  26
BRANCH   6  29
ATOM     29  N   LIG    1        2.140   3.453   0.236  0.00  0.00    -0.740 N 
ATOM     30  H   LIG    1        1.366   4.036   0.260  0.00  0.00    +0.410 HD
BRANCH  29  31
ATOM     31  C   LIG    1        3.489   4.025   0.265  0.00  0.00    +0.260 C 
BRANCH  31  32
ATOM     32  C   LIG    1        3.395   5.550   0.334  0.00  0.00    +0.070 C 
BRANCH  32  33
ATOM     33  C   LIG    1        4.803   6.147   0.365  0.00  0.00    +0.060 C 
ATOM     34  C   LIG    1        4.743   7.682   0.495  0.00  0.00    +0.100 C 
ATOM     35  C   LIG    1        4.961   7.889   2.037  0.00  0.00    +0.080 C 
ATOM     36  C   LIG    1        5.975   6.765   2.365  0.00  0.00    +0.260 C 
ATOM     37  C   LIG    1        5.583   5.775  -0.911  0.00  0.00    +0.090 C 
ATOM     38  C   LIG    1        6.430   4.557  -0.458  0.00  0.00    +0.070 C 
ATOM     39  C   LIG    1        6.778   4.943   1.000  0.00  0.00    +0.260 C 
ATOM     40  N   LIG    1        5.570   5.624   1.516  0.00  0.00    -0.390 N 
ATOM     41  H   LIG    1        5.009   4.970   2.042  0.00  0.00    +0.420 HD
ENDBRANCH  32  33
ENDBRANCH  31  32
ENDBRANCH  29  31
ENDBRANCH   6  29
TORSDOF 10
