REMARK  Name = ZINCrg000000pk8V.1
REMARK                            x       y       z     vdW  Elec       q    Type
REMARK                         _______ _______ _______ _____ _____    ______ ____
ROOT
ATOM      1  C   LIG    1       -0.742   1.585  -1.213  0.00  0.00    +0.510 C 
ATOM      2  N   LIG    1       -0.288   1.272  -2.443  0.00  0.00    -0.610 N 
ATOM      3  C   LIG    1        0.919   0.450  -2.616  0.00  0.00    +0.290 C 
ATOM      4  C   LIG    1        0.584  -0.702  -3.577  0.00  0.00    +0.190 C 
ATOM      5  N   LIG    1        0.025  -0.150  -4.819  0.00  0.00    -0.480 N 
ATOM      6  C   LIG    1       -1.242   0.551  -4.568  0.00  0.00    +0.190 C 
ATOM      7  C   LIG    1       -0.985   1.749  -3.648  0.00  0.00    +0.300 C 
ATOM      8  O   LIG    1       -1.736   2.268  -1.088  0.00  0.00    -0.500 OA
ENDROOT
BRANCH   5   9
ATOM      9  C   LIG    1       -0.139  -1.151  -5.783  0.00  0.00    +0.070 A 
ATOM     10  C   LIG    1       -1.385  -1.367  -6.356  0.00  0.00    +0.000 A 
ATOM     11  C   LIG    1       -1.544  -2.351  -7.312  0.00  0.00    -0.050 A 
ATOM     12  C   LIG    1       -0.462  -3.131  -7.691  0.00  0.00    +0.110 A 
ATOM     13  C   LIG    1        0.782  -2.920  -7.116  0.00  0.00    +0.000 A 
ATOM     14  C   LIG    1        0.945  -1.932  -6.164  0.00  0.00    +0.030 A 
BRANCH  12  15
ATOM     15  O   LIG    1       -0.621  -4.104  -8.628  0.00  0.00    -0.320 OA
ATOM     16  C   LIG    1       -1.929  -4.267  -9.179  0.00  0.00    +0.240 C 
ENDBRANCH  12  15
ENDBRANCH   5   9
BRANCH   1  17
ATOM     17  C   LIG    1       -0.013   1.086   0.008  0.00  0.00    +0.360 C 
BRANCH  17  20
ATOM     18  C   LIG    1       -1.714   1.622   3.123  0.00  0.00    -0.000 A 
ATOM     19  C   LIG    1       -1.151   0.781   2.224  0.00  0.00    +0.140 A 
ATOM     20  N   LIG    1       -0.698   1.558   1.213  0.00  0.00    -0.290 N 
ATOM     21  N   LIG    1       -0.969   2.785   1.496  0.00  0.00    -0.060 NA
ATOM     22  N   LIG    1       -1.579   2.856   2.626  0.00  0.00    -0.250 NA
BRANCH  18  23
ATOM     23  C   LIG    1       -2.364   1.242   4.429  0.00  0.00    +0.200 C 
ATOM     24  C   LIG    1       -1.343   0.532   5.320  0.00  0.00    +0.010 C 
ATOM     25  C   LIG    1       -3.543   0.304   4.158  0.00  0.00    +0.060 C 
BRANCH  23  27
ATOM     26  C   LIG    1       -3.489   2.120   6.385  0.00  0.00    +0.190 C 
ATOM     27  N   LIG    1       -2.847   2.453   5.106  0.00  0.00    -0.670 NA
ATOM     28  H   LIG    1       -2.099   3.116   5.238  0.00  0.00    +0.350 HD
ENDBRANCH  23  27
ENDBRANCH  18  23
ENDBRANCH  17  20
ENDBRANCH   1  17
TORSDOF 6
