REMARK  Name = ZINCvU00000005Je.0
REMARK                            x       y       z     vdW  Elec       q    Type
REMARK                         _______ _______ _______ _____ _____    ______ ____
ROOT
ATOM      1  C   LIG    1        0.158   1.705   2.352  0.00  0.00    +0.530 C 
ATOM      2  O   LIG    1        1.027   0.858   2.420  0.00  0.00    -0.490 OA
ENDROOT
BRANCH   1   3
ATOM      3  C   LIG    1       -0.303   2.383   3.568  0.00  0.00    -0.100 A 
ATOM      4  C   LIG    1       -1.380   1.858   4.313  0.00  0.00    +0.000 A 
ATOM      5  C   LIG    1       -2.025   0.673   3.918  0.00  0.00    +0.000 A 
ATOM      6  C   LIG    1       -3.056   0.190   4.662  0.00  0.00    +0.040 A 
ATOM      7  C   LIG    1       -3.491   0.837   5.817  0.00  0.00    +0.010 A 
ATOM      8  C   LIG    1       -2.906   1.982   6.256  0.00  0.00    +0.050 A 
ATOM      9  C   LIG    1       -1.830   2.537   5.530  0.00  0.00    -0.060 A 
ATOM     10  C   LIG    1       -1.207   3.712   5.953  0.00  0.00    +0.090 A 
ATOM     11  C   LIG    1       -0.145   4.241   5.219  0.00  0.00    -0.060 A 
ATOM     12  C   LIG    1        0.501   5.428   5.628  0.00  0.00    +0.050 A 
ATOM     13  C   LIG    1        1.533   5.917   4.891  0.00  0.00    +0.010 A 
ATOM     14  C   LIG    1        1.974   5.276   3.735  0.00  0.00    +0.040 A 
ATOM     15  C   LIG    1        1.393   4.130   3.288  0.00  0.00    +0.000 A 
ATOM     16  C   LIG    1        0.321   3.570   4.003  0.00  0.00    +0.000 A 
ENDBRANCH   1   3
BRANCH   1  17
ATOM     17  O   LIG    1       -0.383   2.022   1.157  0.00  0.00    -0.320 OA
BRANCH  17  18
ATOM     18  C   LIG    1        0.122   1.312  -0.004  0.00  0.00    +0.260 C 
BRANCH  18  20
ATOM     19  N   LIG    1       -0.288   1.272  -2.443  0.00  0.00    -0.570 N 
ATOM     20  C   LIG    1       -0.595   1.795  -1.239  0.00  0.00    +0.520 C 
ATOM     21  O   LIG    1       -1.446   2.653  -1.149  0.00  0.00    -0.480 OA
BRANCH  19  22
ATOM     22  C   LIG    1       -1.022   1.646  -3.575  0.00  0.00    +0.130 A 
ATOM     23  C   LIG    1       -2.351   1.266  -3.699  0.00  0.00    +0.010 A 
ATOM     24  C   LIG    1       -3.074   1.641  -4.815  0.00  0.00    +0.020 A 
ATOM     25  C   LIG    1       -2.471   2.386  -5.813  0.00  0.00    +0.020 A 
ATOM     26  C   LIG    1       -1.145   2.761  -5.694  0.00  0.00    +0.020 A 
ATOM     27  C   LIG    1       -0.419   2.394  -4.578  0.00  0.00    +0.010 A 
ENDBRANCH  19  22
BRANCH  19  28
ATOM     28  C   LIG    1        0.812   0.313  -2.567  0.00  0.00    +0.310 C 
BRANCH  28  29
ATOM     29  C   LIG    1        0.275  -1.107  -2.373  0.00  0.00    +0.180 C 
BRANCH  29  31
ATOM     30  N   LIG    1        2.233  -2.814  -2.594  0.00  0.00    -0.420 NA
ATOM     31  C   LIG    1        1.380  -2.071  -2.498  0.00  0.00    +0.200 C 
ENDBRANCH  29  31
ENDBRANCH  28  29
ENDBRANCH  19  28
ENDBRANCH  18  20
ENDBRANCH  17  18
ENDBRANCH   1  17
TORSDOF 8
