REMARK  Name = ZINCqH0000007jLR.0
REMARK                            x       y       z     vdW  Elec       q    Type
REMARK                         _______ _______ _______ _____ _____    ______ ____
ROOT
ATOM      1  N   LIG    1       -0.740   1.996  -1.185  0.00  0.00    -0.720 N 
ATOM      2  H   LIG    1       -1.404   1.438  -1.620  0.00  0.00    +0.420 HD
ENDROOT
BRANCH   1   8
ATOM      3  C   LIG    1       -1.138   3.742  -2.813  0.00  0.00    +0.050 A 
ATOM      4  C   LIG    1       -0.868   5.008  -3.304  0.00  0.00    -0.010 A 
ATOM      5  C   LIG    1        0.078   5.804  -2.685  0.00  0.00    +0.010 A 
ATOM      6  C   LIG    1        0.755   5.339  -1.566  0.00  0.00    +0.150 A 
ATOM      7  C   LIG    1        0.483   4.073  -1.066  0.00  0.00    -0.070 A 
ATOM      8  C   LIG    1       -0.464   3.274  -1.686  0.00  0.00    +0.210 A 
BRANCH   6   9
ATOM      9  N   LIG    1        1.713   6.149  -0.941  0.00  0.00    -0.670 N 
ATOM     10  H   LIG    1        1.817   6.120   0.023  0.00  0.00    +0.410 HD
ATOM     11  C   LIG    1        2.489   6.967  -1.678  0.00  0.00    +0.510 C 
ATOM     12  O   LIG    1        2.303   7.065  -2.873  0.00  0.00    -0.520 OA
ATOM     13  C   LIG    1        3.588   7.759  -1.019  0.00  0.00    +0.110 C 
ENDBRANCH   6   9
BRANCH   3  15
ATOM     14  C   LIG    1       -2.717   3.501  -4.576  0.00  0.00    +0.230 C 
ATOM     15  O   LIG    1       -2.065   2.957  -3.426  0.00  0.00    -0.320 OA
ENDBRANCH   3  15
ENDBRANCH   1   8
BRANCH   1  16
ATOM     16  C   LIG    1       -0.027   1.503  -0.004  0.00  0.00    +0.250 C 
ATOM     17  C   LIG    1       -0.735   1.992   1.261  0.00  0.00    +0.050 C 
BRANCH  16  18
ATOM     18  C   LIG    1       -0.011  -0.004  -0.020  0.00  0.00    +0.500 C 
ATOM     19  N   LIG    1        0.594  -0.682   0.975  0.00  0.00    -0.650 N 
ATOM     20  H   LIG    1        1.020  -0.200   1.701  0.00  0.00    +0.420 HD
ATOM     21  O   LIG    1       -0.543  -0.606  -0.928  0.00  0.00    -0.450 OA
BRANCH  19  22
ATOM     22  C   LIG    1        0.609  -2.077   0.960  0.00  0.00    +0.380 A 
ATOM     23  N   LIG    1        0.022  -2.728  -0.031  0.00  0.00    -0.450 NA
ATOM     24  C   LIG    1        0.018  -4.046  -0.087  0.00  0.00    +0.340 A 
ATOM     25  C   LIG    1        0.621  -4.799   0.902  0.00  0.00    -0.110 A 
ATOM     26  C   LIG    1        1.243  -4.154   1.964  0.00  0.00    +0.130 A 
ATOM     27 CL   LIG    1        0.601  -6.533   0.819  0.00  0.00    -0.040 Cl
ATOM     28  C   LIG    1        1.236  -2.770   1.991  0.00  0.00    -0.120 A 
ATOM     29 CL   LIG    1        1.998  -1.911   3.293  0.00  0.00    -0.040 Cl
ENDBRANCH  19  22
ENDBRANCH  16  18
ENDBRANCH   1  16
TORSDOF 6
