REMARK  Name = ZINCrD000000ARoe.0
REMARK                            x       y       z     vdW  Elec       q    Type
REMARK                         _______ _______ _______ _____ _____    ______ ____
ROOT
ATOM      1  O   LIG    1        4.770   0.366  -0.514  0.00  0.00    -0.490 OA
ATOM      2  C   LIG    1        3.808  -0.374  -0.441  0.00  0.00    +0.560 C 
ATOM      3  N   LIG    1        3.972  -1.706  -0.566  0.00  0.00    -0.720 N 
ATOM      4  H   LIG    1        3.205  -2.297  -0.508  0.00  0.00    +0.400 HD
ENDROOT
BRANCH   2   5
ATOM      5  C   LIG    1        2.462   0.186  -0.216  0.00  0.00    -0.060 A 
ATOM      6  C   LIG    1        1.423  -0.109  -1.103  0.00  0.00    +0.070 A 
ATOM      7  C   LIG    1        0.163   0.418  -0.889  0.00  0.00    +0.100 A 
ATOM      8  C   LIG    1       -0.071   1.239   0.211  0.00  0.00    +0.070 A 
ATOM      9  O   LIG    1       -1.307   1.758   0.441  0.00  0.00    -0.290 OA
ATOM     10  C   LIG    1       -2.223   1.751  -0.660  0.00  0.00    +0.250 C 
ATOM     11  C   LIG    1       -2.176   0.365  -1.316  0.00  0.00    +0.250 C 
ATOM     12  C   LIG    1        0.964   1.533   1.092  0.00  0.00    +0.120 A 
ATOM     13  O   LIG    1       -0.838   0.127  -1.765  0.00  0.00    -0.290 OA
ATOM     14  C   LIG    1        2.221   1.013   0.884  0.00  0.00    -0.000 A 
BRANCH  14  15
ATOM     15  N   LIG    1        3.319   1.330   1.825  0.00  0.00    +0.020 N 
ATOM     16  O   LIG    1        4.397   0.775   1.712  0.00  0.00    -0.120 OA
ATOM     17  O   LIG    1        3.144   2.146   2.712  0.00  0.00    -0.160 OA
ENDBRANCH  14  15
ENDBRANCH   2   5
BRANCH   3  18
ATOM     18  C   LIG    1        5.309  -2.262  -0.789  0.00  0.00    +0.280 C 
BRANCH  18  19
ATOM     19  C   LIG    1        5.217  -3.786  -0.894  0.00  0.00    -0.060 C 
ATOM     20  C   LIG    1        4.306  -4.162  -2.065  0.00  0.00    +0.030 C 
ATOM     21  C   LIG    1        4.214  -5.686  -2.170  0.00  0.00    -0.020 C 
ATOM     22  C   LIG    1        3.636  -6.252  -0.871  0.00  0.00    +0.010 C 
ATOM     23  C   LIG    1        4.547  -5.876   0.299  0.00  0.00    -0.020 C 
ATOM     24  C   LIG    1        5.943  -6.456   0.066  0.00  0.00    +0.010 C 
ATOM     25  C   LIG    1        6.521  -5.890  -1.233  0.00  0.00    -0.010 C 
ATOM     26  C   LIG    1        5.610  -6.266  -2.403  0.00  0.00    +0.010 C 
ATOM     27  C   LIG    1        4.639  -4.352   0.404  0.00  0.00    +0.030 C 
ATOM     28  C   LIG    1        6.613  -4.366  -1.128  0.00  0.00    +0.040 C 
ENDBRANCH  18  19
ENDBRANCH   3  18
TORSDOF 4
