REMARK  Name = ZINCpe000000TrKD.0
REMARK                            x       y       z     vdW  Elec       q    Type
REMARK                         _______ _______ _______ _____ _____    ______ ____
ROOT
ATOM      1  N   LIG    1        3.831   2.279  -1.125  0.00  0.00    -0.510 NA
ENDROOT
BRANCH   1   3
ATOM      2  C   LIG    1        4.332   1.485  -3.387  0.00  0.00    +0.030 C 
ATOM      3  C   LIG    1        4.360   1.145  -1.895  0.00  0.00    +0.170 C 
ENDBRANCH   1   3
BRANCH   1   4
ATOM      4  C   LIG    1        3.525   1.881   0.255  0.00  0.00    +0.230 C 
BRANCH   4   5
ATOM      5  C   LIG    1        2.390   0.890   0.252  0.00  0.00    -0.070 A 
ATOM      6  C   LIG    1        2.656  -0.464   0.165  0.00  0.00    +0.010 A 
ATOM      7  C   LIG    1        1.618  -1.377   0.162  0.00  0.00    -0.040 A 
ATOM      8  C   LIG    1        0.307  -0.936   0.246  0.00  0.00    +0.100 A 
ATOM      9  C   LIG    1        0.039   0.427   0.333  0.00  0.00    +0.100 A 
ATOM     10  C   LIG    1        1.084   1.337   0.336  0.00  0.00    +0.000 A 
BRANCH   9  11
ATOM     11  O   LIG    1       -1.246   0.865   0.410  0.00  0.00    -0.310 OA
ATOM     12  C   LIG    1       -1.446   2.277   0.497  0.00  0.00    +0.240 C 
ENDBRANCH   9  11
BRANCH   8  13
ATOM     13  O   LIG    1       -0.715  -1.833   0.242  0.00  0.00    -0.310 OA
ATOM     14  C   LIG    1       -0.364  -3.215   0.150  0.00  0.00    +0.230 C 
ENDBRANCH   8  13
ENDBRANCH   4   5
ENDBRANCH   1   4
BRANCH   1  15
ATOM     15  C   LIG    1        4.765   3.413  -1.151  0.00  0.00    +0.210 C 
BRANCH  15  16
ATOM     16  C   LIG    1        4.028   4.678  -0.790  0.00  0.00    +0.510 C 
ATOM     17  N   LIG    1        4.706   5.833  -0.642  0.00  0.00    -0.720 N 
ATOM     18  H   LIG    1        5.668   5.851  -0.767  0.00  0.00    +0.410 HD
ATOM     19  O   LIG    1        2.826   4.656  -0.633  0.00  0.00    -0.510 OA
BRANCH  17  20
ATOM     20  C   LIG    1        3.990   7.062  -0.291  0.00  0.00    +0.260 C 
ATOM     21  C   LIG    1        3.481   7.758  -1.566  0.00  0.00    +0.060 C 
ATOM     22  C   LIG    1        3.044   9.192  -1.206  0.00  0.00    -0.310 C 
ATOM     23  S   LIG    1        4.067   9.653   0.239  0.00  0.00    +2.400 S 
ATOM     24  O   LIG    1        4.988  10.668  -0.138  0.00  0.00    -0.930 OA
ATOM     25  O   LIG    1        3.227   9.844   1.369  0.00  0.00    -0.930 OA
ATOM     26  C   LIG    1        4.955   8.058   0.404  0.00  0.00    -0.320 C 
ENDBRANCH  17  20
ENDBRANCH  15  16
ENDBRANCH   1  15
TORSDOF 8
