REMARK  Name = ZINCpe000000Ydvo.0
REMARK                            x       y       z     vdW  Elec       q    Type
REMARK                         _______ _______ _______ _____ _____    ______ ____
ROOT
ATOM      1  C   LIG    1        2.630   4.865  -5.252  0.00  0.00    +0.350 C 
ATOM      2  N   LIG    1        3.057   5.015  -3.859  0.00  0.00    -0.550 N 
ATOM      3  C   LIG    1        2.262   4.562  -2.867  0.00  0.00    +0.600 A 
ATOM      4  C   LIG    1        2.680   4.709  -1.527  0.00  0.00    -0.140 A 
ATOM      5  C   LIG    1        3.900   5.317  -1.261  0.00  0.00    +0.320 A 
ATOM      6  N   LIG    1        4.671   5.762  -2.323  0.00  0.00    -0.510 N 
ATOM      7  C   LIG    1        5.962   6.407  -2.071  0.00  0.00    +0.350 C 
ATOM      8  N   LIG    1        4.055   5.331   0.065  0.00  0.00    -0.490 NA
ATOM      9  C   LIG    1        3.015   4.781   0.639  0.00  0.00    +0.510 A 
ATOM     10  N   LIG    1        2.140   4.374  -0.301  0.00  0.00    -0.400 N 
ATOM     11  O   LIG    1        1.196   4.033  -3.126  0.00  0.00    -0.520 OA
ATOM     12  C   LIG    1        4.236   5.602  -3.587  0.00  0.00    +0.710 A 
ATOM     13  O   LIG    1        4.926   5.998  -4.506  0.00  0.00    -0.530 OA
ENDROOT
BRANCH  10  14
ATOM     14  C   LIG    1        0.856   3.709  -0.067  0.00  0.00    +0.370 C 
BRANCH  14  15
ATOM     15  C   LIG    1        1.037   2.217  -0.170  0.00  0.00    +0.500 C 
ATOM     16  N   LIG    1       -0.017   1.396   0.010  0.00  0.00    -0.660 N 
ATOM     17  H   LIG    1       -0.906   1.766   0.126  0.00  0.00    +0.420 HD
ATOM     18  O   LIG    1        2.131   1.754  -0.416  0.00  0.00    -0.490 OA
BRANCH  16  19
ATOM     19  C   LIG    1        0.171   0.009   0.024  0.00  0.00    +0.150 A 
ATOM     20  C   LIG    1        1.345  -0.529   0.534  0.00  0.00    +0.060 A 
ATOM     21  C   LIG    1        1.528  -1.898   0.547  0.00  0.00    +0.030 A 
ATOM     22  C   LIG    1        0.542  -2.735   0.053  0.00  0.00    +0.100 A 
ATOM     23  C   LIG    1       -0.631  -2.201  -0.457  0.00  0.00    -0.050 A 
ATOM     24 CL   LIG    1       -1.866  -3.252  -1.076  0.00  0.00    -0.040 Cl
ATOM     25  F   LIG    1        0.724  -4.074   0.067  0.00  0.00    -0.120 F 
ATOM     26  C   LIG    1       -0.820  -0.832  -0.468  0.00  0.00    +0.040 A 
ENDBRANCH  16  19
ENDBRANCH  14  15
ENDBRANCH  10  14
TORSDOF 3
