REMARK  Name = ZINCrD000000AtlD.0
REMARK                            x       y       z     vdW  Elec       q    Type
REMARK                         _______ _______ _______ _____ _____    ______ ____
ROOT
ATOM      1  C   LIG    1        0.174   0.961   2.735  0.00  0.00    +0.230 A 
ATOM      2  C   LIG    1       -0.099   1.157   4.103  0.00  0.00    -0.260 A 
ATOM      3  C   LIG    1       -1.101   1.839   4.828  0.00  0.00    +0.320 A 
ATOM      4  N   LIG    1       -0.870   1.682   6.101  0.00  0.00    -0.230 NA
ATOM      5  N   LIG    1        0.275   0.896   6.280  0.00  0.00    -0.330 N 
ATOM      6  C   LIG    1        0.760   0.561   5.047  0.00  0.00    +0.360 A 
ATOM      7  N   LIG    1        1.797  -0.152   4.612  0.00  0.00    -0.540 NA
ATOM      8  C   LIG    1        2.015  -0.303   3.324  0.00  0.00    +0.570 A 
ATOM      9  N   LIG    1        1.235   0.232   2.401  0.00  0.00    -0.560 NA
ENDROOT
BRANCH   5  10
ATOM     10  C   LIG    1        0.827   0.517   7.510  0.00  0.00    +0.150 A 
ATOM     11  C   LIG    1        1.419  -0.731   7.653  0.00  0.00    +0.020 A 
ATOM     12  C   LIG    1        1.969  -1.098   8.865  0.00  0.00    +0.030 A 
ATOM     13  C   LIG    1        1.919  -0.229   9.940  0.00  0.00    +0.010 A 
ATOM     14  C   LIG    1        1.325   1.012   9.803  0.00  0.00    +0.030 A 
ATOM     15  C   LIG    1        0.780   1.388   8.591  0.00  0.00    +0.020 A 
ENDBRANCH   5  10
BRANCH   1  16
ATOM     16  S   LIG    1       -0.860   1.669   1.497  0.00  0.00    +0.070 S 
BRANCH  16  17
ATOM     17  C   LIG    1       -0.013   1.086   0.008  0.00  0.00    +0.110 C 
BRANCH  17  19
ATOM     18  O   LIG    1       -1.736   2.268  -1.088  0.00  0.00    -0.520 OA
ATOM     19  C   LIG    1       -0.742   1.585  -1.213  0.00  0.00    +0.530 C 
ATOM     20  N   LIG    1       -0.288   1.272  -2.443  0.00  0.00    -0.720 N 
ATOM     21  H   LIG    1        0.507   0.726  -2.543  0.00  0.00    +0.410 HD
BRANCH  20  22
ATOM     22  C   LIG    1       -0.997   1.758  -3.630  0.00  0.00    +0.270 C 
BRANCH  22  23
ATOM     23  C   LIG    1       -0.281   1.264  -4.889  0.00  0.00    +0.110 C 
BRANCH  23  24
ATOM     24  C   LIG    1       -1.010   1.763  -6.110  0.00  0.00    -0.180 A 
ATOM     25  C   LIG    1       -0.764   2.917  -6.734  0.00  0.00    +0.010 A 
ATOM     26  C   LIG    1       -1.563   3.164  -7.837  0.00  0.00    +0.000 A 
ATOM     27  C   LIG    1       -2.456   2.212  -8.109  0.00  0.00    -0.040 A 
ATOM     28  S   LIG    1       -2.309   0.911  -6.934  0.00  0.00    +0.100 S 
ENDBRANCH  23  24
ENDBRANCH  22  23
ENDBRANCH  20  22
ENDBRANCH  17  19
ENDBRANCH  16  17
ENDBRANCH   1  16
TORSDOF 7
