REMARK  Name = ZINCvU00000008cn.0
REMARK                            x       y       z     vdW  Elec       q    Type
REMARK                         _______ _______ _______ _____ _____    ______ ____
ROOT
ATOM      1  O   LIG    1        0.252  -4.570  -0.024  0.00  0.00    -0.500 OA
ATOM      2  C   LIG    1       -0.955  -4.454  -0.012  0.00  0.00    +0.530 C 
ATOM      3  N   LIG    1       -1.514  -3.228  -0.001  0.00  0.00    -0.640 N 
ATOM      4  H   LIG    1       -2.480  -3.135   0.008  0.00  0.00    +0.420 HD
ENDROOT
BRANCH   3   5
ATOM      5  C   LIG    1       -0.701  -2.087  -0.003  0.00  0.00    +0.320 A 
ATOM      6  N   LIG    1       -1.119  -0.844   0.008  0.00  0.00    -0.310 NA
ATOM      7  N   LIG    1        0.002  -0.004   0.002  0.00  0.00    -0.330 N 
ATOM      8  C   LIG    1        1.111  -0.788  -0.018  0.00  0.00    +0.260 A 
ATOM      9  C   LIG    1        0.704  -2.078  -0.015  0.00  0.00    -0.060 A 
BRANCH   7  10
ATOM     10  C   LIG    1       -0.017   1.397   0.010  0.00  0.00    +0.220 A 
ATOM     11  C   LIG    1        1.175   2.109   0.002  0.00  0.00    -0.010 A 
ATOM     12  C   LIG    1        1.153   3.490   0.009  0.00  0.00    +0.080 A 
ATOM     13  C   LIG    1       -0.054   4.163   0.024  0.00  0.00    +0.000 A 
ATOM     14  C   LIG    1       -1.244   3.457   0.033  0.00  0.00    +0.100 A 
ATOM     15  C   LIG    1       -1.228   2.076   0.019  0.00  0.00    -0.200 A 
BRANCH  15  16
ATOM     16  C   LIG    1       -2.524   1.308   0.022  0.00  0.00    +0.520 C 
ATOM     17  F   LIG    1       -2.583   0.497   1.160  0.00  0.00    -0.160 F 
ATOM     18  F   LIG    1       -2.595   0.508  -1.124  0.00  0.00    -0.170 F 
ATOM     19  F   LIG    1       -3.598   2.204   0.032  0.00  0.00    -0.180 F 
ENDBRANCH  15  16
ENDBRANCH   7  10
ENDBRANCH   3   5
BRANCH   2  20
ATOM     20  C   LIG    1       -1.831  -5.681  -0.010  0.00  0.00    +0.140 C 
BRANCH  20  21
ATOM     21  C   LIG    1       -0.966  -6.915  -0.025  0.00  0.00    -0.030 A 
ATOM     22  C   LIG    1       -0.585  -7.478  -1.228  0.00  0.00    +0.000 A 
ATOM     23  C   LIG    1        0.213  -8.607  -1.245  0.00  0.00    +0.050 A 
ATOM     24  C   LIG    1        0.623  -9.182  -0.057  0.00  0.00    -0.070 A 
ATOM     25  C   LIG    1        0.237  -8.622   1.152  0.00  0.00    +0.130 A 
ATOM     26  C   LIG    1       -0.558  -7.486   1.166  0.00  0.00    +0.000 A 
BRANCH  25  27
ATOM     27  O   LIG    1        0.639  -9.186   2.322  0.00  0.00    -0.300 OA
BRANCH  27  28
ATOM     28  C   LIG    1        1.456 -10.355   2.232  0.00  0.00    +0.230 C 
BRANCH  28  29
ATOM     29  C   LIG    1        1.806 -10.842   3.639  0.00  0.00    +0.470 C 
ATOM     30  F   LIG    1        2.501  -9.838   4.322  0.00  0.00    -0.170 F 
ATOM     31  F   LIG    1        2.607 -11.986   3.551  0.00  0.00    -0.170 F 
ATOM     32  F   LIG    1        0.630 -11.149   4.332  0.00  0.00    -0.170 F 
ENDBRANCH  28  29
ENDBRANCH  27  28
ENDBRANCH  25  27
ENDBRANCH  20  21
ENDBRANCH   2  20
TORSDOF 8
