REMARK  Name = ZINCrH000004mSPE.0
REMARK                            x       y       z     vdW  Elec       q    Type
REMARK                         _______ _______ _______ _____ _____    ______ ____
ROOT
ATOM      1  C   LIG    1        3.665   2.158  -0.020  0.00  0.00    +0.030 A 
ATOM      2  C   LIG    1        4.736   1.965   0.808  0.00  0.00    +0.020 A 
ATOM      3  C   LIG    1        5.675   2.939   0.380  0.00  0.00    -0.030 A 
ATOM      4  N   LIG    1        5.108   3.587  -0.608  0.00  0.00    -0.330 NA
ATOM      5  O   LIG    1        4.001   3.165  -0.846  0.00  0.00    +0.140 OA
ENDROOT
BRANCH   1  10
ATOM      6  C   LIG    1        1.210  -0.688  -0.014  0.00  0.00    +0.090 A 
ATOM      7  C   LIG    1        0.002  -0.004   0.002  0.00  0.00    -0.010 A 
ATOM      8  C   LIG    1       -0.017   1.378   0.010  0.00  0.00    -0.030 A 
ATOM      9  C   LIG    1        1.171   2.090   0.002  0.00  0.00    +0.130 A 
ATOM     10  C   LIG    1        2.393   1.405  -0.013  0.00  0.00    -0.030 A 
ATOM     11  C   LIG    1        2.405   0.010  -0.021  0.00  0.00    +0.070 A 
BRANCH   6  13
ATOM     12  C   LIG    1       -0.049  -2.706  -0.013  0.00  0.00    +0.250 C 
ATOM     13  O   LIG    1        1.219  -2.048  -0.021  0.00  0.00    -0.310 OA
ENDBRANCH   6  13
BRANCH   9  14
ATOM     14  O   LIG    1        1.151   3.448   0.009  0.00  0.00    -0.310 OA
ATOM     15  C   LIG    1       -0.131   4.078   0.024  0.00  0.00    +0.250 C 
ENDBRANCH   9  14
ENDBRANCH   1  10
BRANCH   3  16
ATOM     16  C   LIG    1        7.028   3.177   0.940  0.00  0.00    +0.600 C 
ATOM     17  N   LIG    1        7.810   4.146   0.425  0.00  0.00    -0.710 N 
ATOM     18  H   LIG    1        7.488   4.688  -0.312  0.00  0.00    +0.410 HD
ATOM     19  O   LIG    1        7.431   2.498   1.864  0.00  0.00    -0.510 OA
BRANCH  17  20
ATOM     20  C   LIG    1        9.146   4.381   0.978  0.00  0.00    +0.320 C 
ATOM     21  C   LIG    1        9.581   5.822   0.683  0.00  0.00    +0.030 C 
ATOM     22  C   LIG    1       11.066   5.985   1.020  0.00  0.00    +0.050 C 
ATOM     23  C   LIG    1       11.910   5.207   0.004  0.00  0.00    +0.140 C 
ATOM     24  C   LIG    1       11.359   3.806  -0.102  0.00  0.00    -0.000 A 
ATOM     25  O   LIG    1       11.957   2.725  -0.618  0.00  0.00    -0.170 OA
ATOM     26  C   LIG    1       11.131   1.668  -0.520  0.00  0.00    +0.150 A 
ATOM     27  C   LIG    1        9.987   2.072   0.065  0.00  0.00    -0.030 A 
ATOM     28  C   LIG    1       10.134   3.445   0.333  0.00  0.00    -0.200 A 
ENDBRANCH  17  20
ENDBRANCH   3  16
TORSDOF 5
