REMARK  Name = ZINCrD00000fLIeQ.0
REMARK                            x       y       z     vdW  Elec       q    Type
REMARK                         _______ _______ _______ _____ _____    ______ ____
ROOT
ATOM      1  O   LIG    1       -1.328   7.295  -5.675  0.00  0.00    -0.510 OA
ATOM      2  C   LIG    1       -0.139   7.468  -5.865  0.00  0.00    +0.700 C 
ATOM      3  N   LIG    1        0.289   8.000  -7.030  0.00  0.00    -0.610 N 
ATOM      4  C   LIG    1        1.740   8.117  -7.257  0.00  0.00    +0.260 C 
ATOM      5  C   LIG    1        2.198   6.875  -7.978  0.00  0.00    +0.180 C 
ATOM      6  O   LIG    1        1.772   6.819  -9.340  0.00  0.00    -0.380 OA
ATOM      7  C   LIG    1        0.868   7.827  -9.816  0.00  0.00    +0.220 C 
ATOM      8  C   LIG    1       -0.546   7.678  -9.303  0.00  0.00    -0.100 C 
ATOM      9  C   LIG    1       -1.533   8.285 -10.306  0.00  0.00    +0.020 C 
ATOM     10  C   LIG    1       -2.965   8.063  -9.816  0.00  0.00    +0.210 C 
ATOM     11  O   LIG    1       -3.195   6.665  -9.632  0.00  0.00    -0.380 OA
ATOM     12  C   LIG    1       -2.344   6.057  -8.658  0.00  0.00    +0.210 C 
ATOM     13  C   LIG    1       -0.884   6.203  -9.090  0.00  0.00    +0.010 C 
ATOM     14  C   LIG    1       -0.674   8.438  -7.963  0.00  0.00    +0.300 C 
ATOM     15  N   LIG    1        0.751   7.129  -4.912  0.00  0.00    -0.640 N 
ATOM     16  H   LIG    1        1.702   7.196  -5.090  0.00  0.00    +0.420 HD
ENDROOT
BRANCH  15  17
ATOM     17  C   LIG    1        0.307   6.683  -3.672  0.00  0.00    +0.280 A 
ATOM     18  N   LIG    1       -0.937   6.556  -3.331  0.00  0.00    -0.470 NA
ATOM     19  C   LIG    1       -1.180   6.117  -2.110  0.00  0.00    +0.250 A 
ATOM     20  C   LIG    1       -0.089   5.861  -1.385  0.00  0.00    -0.230 A 
ATOM     21  S   LIG    1        1.322   6.229  -2.373  0.00  0.00    +0.130 S 
BRANCH  20  22
ATOM     22  C   LIG    1       -0.069   5.352   0.033  0.00  0.00    +0.190 C 
BRANCH  22  23
ATOM     23  C   LIG    1       -0.057   3.845   0.026  0.00  0.00    -0.080 A 
ATOM     24  C   LIG    1        1.146   3.164   0.009  0.00  0.00    +0.010 A 
ATOM     25  C   LIG    1        1.157   1.781   0.003  0.00  0.00    +0.000 A 
ATOM     26  C   LIG    1       -0.035   1.081   0.014  0.00  0.00    +0.000 A 
ATOM     27  C   LIG    1       -1.237   1.762   0.025  0.00  0.00    +0.000 A 
ATOM     28  C   LIG    1       -1.248   3.144   0.036  0.00  0.00    +0.010 A 
ENDBRANCH  22  23
ENDBRANCH  20  22
ENDBRANCH  15  17
TORSDOF 3
