REMARK  Name = ZINCvU0000000Hee.0
REMARK                            x       y       z     vdW  Elec       q    Type
REMARK                         _______ _______ _______ _____ _____    ______ ____
ROOT
ATOM      1  S   LIG    1       -5.465  -5.074  -0.497  0.00  0.00    +0.140 S 
ENDROOT
BRANCH   1   2
ATOM      2  C   LIG    1       -4.182  -3.972  -0.003  0.00  0.00    +0.140 A 
ATOM      3  N   LIG    1       -4.082  -3.363   1.154  0.00  0.00    -0.290 NA
ATOM      4  N   LIG    1       -3.017  -2.642   1.165  0.00  0.00    -0.230 NA
ATOM      5  C   LIG    1       -2.404  -2.753   0.023  0.00  0.00    +0.160 A 
ATOM      6  O   LIG    1       -3.121  -3.599  -0.743  0.00  0.00    -0.190 OA
BRANCH   5   7
ATOM      7  C   LIG    1       -1.121  -2.067  -0.369  0.00  0.00    +0.280 C 
ATOM      8  C   LIG    1        0.060  -2.723   0.358  0.00  0.00    +0.260 C 
ATOM      9  O   LIG    1        1.258  -2.039  -0.026  0.00  0.00    -0.290 OA
ATOM     10  C   LIG    1        1.217  -0.679  -0.014  0.00  0.00    +0.050 A 
ATOM     11  C   LIG    1        2.404   0.038  -0.021  0.00  0.00    +0.030 A 
ATOM     12  C   LIG    1        2.378   1.420  -0.012  0.00  0.00    +0.030 A 
ATOM     13  C   LIG    1        1.170   2.091   0.002  0.00  0.00    +0.030 A 
ATOM     14  C   LIG    1       -0.017   1.382   0.010  0.00  0.00    +0.030 A 
ATOM     15  C   LIG    1        0.002  -0.004   0.002  0.00  0.00    +0.050 A 
ATOM     16  O   LIG    1       -1.174  -0.688   0.013  0.00  0.00    -0.290 OA
ENDBRANCH   5   7
ENDBRANCH   1   2
BRANCH   1  17
ATOM     17  C   LIG    1       -6.482  -5.063   1.000  0.00  0.00    +0.090 C 
BRANCH  17  19
ATOM     18  O   LIG    1       -7.821  -6.556  -0.244  0.00  0.00    -0.430 OA
ATOM     19  C   LIG    1       -7.674  -5.964   0.804  0.00  0.00    +0.420 C 
BRANCH  19  20
ATOM     20  C   LIG    1       -8.660  -6.126   1.885  0.00  0.00    -0.170 A 
ATOM     21  C   LIG    1       -8.491  -5.450   3.097  0.00  0.00    +0.060 A 
ATOM     22  C   LIG    1       -9.421  -5.603   4.103  0.00  0.00    +0.000 A 
ATOM     23  C   LIG    1      -10.515  -6.432   3.920  0.00  0.00    -0.030 A 
ATOM     24  C   LIG    1      -10.686  -7.108   2.724  0.00  0.00    +0.000 A 
ATOM     25  C   LIG    1       -9.767  -6.962   1.707  0.00  0.00    +0.090 A 
BRANCH  23  26
ATOM     26  C   LIG    1      -11.523  -6.598   5.027  0.00  0.00    +0.030 C 
ATOM     27  C   LIG    1      -12.139  -5.239   5.364  0.00  0.00    +0.020 C 
ATOM     28  C   LIG    1      -13.164  -5.409   6.488  0.00  0.00    +0.000 C 
ATOM     29  C   LIG    1      -12.470  -5.976   7.728  0.00  0.00    +0.000 C 
ATOM     30  C   LIG    1      -11.854  -7.335   7.391  0.00  0.00    +0.000 C 
ATOM     31  C   LIG    1      -10.830  -7.166   6.267  0.00  0.00    +0.020 C 
ENDBRANCH  23  26
ENDBRANCH  19  20
ENDBRANCH  17  19
ENDBRANCH   1  17
TORSDOF 6
