REMARK  Name = ZINCnE000001Twyt.1
REMARK                            x       y       z     vdW  Elec       q    Type
REMARK                         _______ _______ _______ _____ _____    ______ ____
ROOT
ATOM      1  O   LIG    1        5.665   2.266  -1.769  0.00  0.00    -0.620 OA
ATOM      2  C   LIG    1        5.671   3.470  -1.599  0.00  0.00    +0.660 C 
ATOM      3  N   LIG    1        4.516   4.124  -1.369  0.00  0.00    -0.620 N 
ATOM      4  C   LIG    1        4.508   5.578  -1.162  0.00  0.00    +0.270 C 
ATOM      5  C   LIG    1        3.787   5.884   0.155  0.00  0.00    +0.000 C 
ATOM      6  C   LIG    1        2.397   5.245   0.132  0.00  0.00    +0.010 C 
ATOM      7  C   LIG    1        2.534   3.726  -0.002  0.00  0.00    -0.030 C 
ATOM      8  C   LIG    1        3.241   3.395  -1.320  0.00  0.00    +0.270 C 
ATOM      9  N   LIG    1        6.834   4.150  -1.641  0.00  0.00    -0.690 NA
ENDROOT
BRANCH   9  10
ATOM     10  C   LIG    1        8.025   3.476  -1.879  0.00  0.00    +0.360 A 
ATOM     11  N   LIG    1        8.127   2.196  -2.067  0.00  0.00    -0.570 NA
ATOM     12  C   LIG    1        9.334   1.718  -2.284  0.00  0.00    +0.280 A 
ATOM     13  C   LIG    1       10.311   2.647  -2.268  0.00  0.00    -0.330 A 
ATOM     14  S   LIG    1        9.565   4.213  -1.958  0.00  0.00    +0.040 S 
BRANCH  13  15
ATOM     15  C   LIG    1       11.753   2.397  -2.476  0.00  0.00    +0.060 A 
ATOM     16  C   LIG    1       12.213   1.100  -2.709  0.00  0.00    -0.020 A 
ATOM     17  C   LIG    1       13.559   0.874  -2.908  0.00  0.00    +0.010 A 
ATOM     18  C   LIG    1       14.454   1.928  -2.865  0.00  0.00    -0.050 A 
ATOM     19  C   LIG    1       14.005   3.216  -2.629  0.00  0.00    +0.010 A 
ATOM     20  C   LIG    1       12.661   3.456  -2.434  0.00  0.00    -0.020 A 
ENDBRANCH  13  15
ENDBRANCH   9  10
BRANCH   7  21
ATOM     21  C   LIG    1        1.145   3.085   0.008  0.00  0.00    +0.030 C 
BRANCH  21  22
ATOM     22  C   LIG    1        1.286   1.562  -0.002  0.00  0.00    +0.170 C 
BRANCH  22  23
ATOM     23  O   LIG    1       -0.011   0.963   0.007  0.00  0.00    -0.580 OA
ATOM     24  H   LIG    1        0.002  -0.004   0.002  0.00  0.00    +0.380 HD
ENDBRANCH  22  23
ENDBRANCH  21  22
ENDBRANCH   7  21
TORSDOF 5
