REMARK  Name = ZINCrH000004jzmO.0
REMARK                            x       y       z     vdW  Elec       q    Type
REMARK                         _______ _______ _______ _____ _____    ______ ____
ROOT
ATOM      1  C   LIG    1        7.052   1.462   4.445  0.00  0.00    -0.080 A 
ATOM      2  C   LIG    1        7.270   0.225   3.839  0.00  0.00    +0.020 A 
ATOM      3  C   LIG    1        6.325  -0.323   3.018  0.00  0.00    +0.110 A 
ATOM      4  C   LIG    1        5.127   0.357   2.809  0.00  0.00    -0.200 A 
ATOM      5  C   LIG    1        4.091  -0.194   1.931  0.00  0.00    +0.540 A 
ATOM      6  N   LIG    1        2.924   0.501   1.846  0.00  0.00    -0.540 N 
ATOM      7  C   LIG    1        1.951  -0.074   0.897  0.00  0.00    +0.280 C 
ATOM      8  C   LIG    1        0.727  -0.561   1.675  0.00  0.00    +0.020 C 
ATOM      9  C   LIG    1       -0.555   0.075   1.141  0.00  0.00    +0.020 C 
ATOM     10  C   LIG    1       -0.762   1.524   1.581  0.00  0.00    +0.020 C 
ATOM     11  C   LIG    1        0.564   2.318   1.456  0.00  0.00    +0.030 C 
ATOM     12  C   LIG    1        1.312   2.119   2.790  0.00  0.00    +0.140 C 
ATOM     13  C   LIG    1        2.711   1.605   2.582  0.00  0.00    +0.420 A 
ATOM     14  N   LIG    1        3.666   2.187   3.251  0.00  0.00    -0.530 NA
ATOM     15  O   LIG    1        4.261  -1.213   1.298  0.00  0.00    -0.500 OA
ATOM     16  C   LIG    1        4.869   1.602   3.438  0.00  0.00    +0.170 A 
ATOM     17  C   LIG    1        5.864   2.158   4.241  0.00  0.00    +0.090 A 
ENDROOT
BRANCH   1  20
ATOM     18  C   LIG    1        8.690  -0.218   6.022  0.00  0.00    +0.300 C 
ATOM     19  N   LIG    1        8.817   1.238   6.133  0.00  0.00    -0.550 N 
ATOM     20  C   LIG    1        8.098   2.040   5.323  0.00  0.00    +0.560 C 
ATOM     21  O   LIG    1        8.308   3.237   5.312  0.00  0.00    -0.500 OA
BRANCH  19  22
ATOM     22  C   LIG    1        9.683   1.794   7.079  0.00  0.00    +0.150 A 
ATOM     23  C   LIG    1        9.716   3.170   7.269  0.00  0.00    +0.010 A 
ATOM     24  C   LIG    1       10.569   3.716   8.208  0.00  0.00    +0.030 A 
ATOM     25  C   LIG    1       11.397   2.896   8.952  0.00  0.00    -0.020 A 
ATOM     26  C   LIG    1       11.371   1.526   8.762  0.00  0.00    +0.030 A 
ATOM     27  C   LIG    1       10.517   0.973   7.828  0.00  0.00    -0.030 A 
ENDBRANCH  19  22
ENDBRANCH   1  20
TORSDOF 2
