REMARK  Name = ZINCpe000000XIjJ.0
REMARK                            x       y       z     vdW  Elec       q    Type
REMARK                         _______ _______ _______ _____ _____    ______ ____
ROOT
ATOM      1  C   LIG    1       -4.064   1.851   0.031  0.00  0.00    +0.140 A 
ATOM      2  N   LIG    1       -4.014   3.163   0.038  0.00  0.00    -0.290 NA
ATOM      3  N   LIG    1       -5.205   3.646   0.046  0.00  0.00    -0.270 NA
ATOM      4  C   LIG    1       -6.079   2.679   0.046  0.00  0.00    +0.180 A 
ATOM      5  N   LIG    1       -5.384   1.502   0.030  0.00  0.00    -0.460 N 
ATOM      6  C   LIG    1       -5.941   0.146   0.018  0.00  0.00    +0.350 C 
ENDROOT
BRANCH   1   7
ATOM      7  S   LIG    1       -2.689   0.750   0.019  0.00  0.00    +0.090 S 
BRANCH   7   8
ATOM      8  C   LIG    1       -1.330   1.944   0.019  0.00  0.00    +0.130 C 
BRANCH   8  11
ATOM      9  N   LIG    1        1.143   1.898   0.001  0.00  0.00    -0.620 N 
ATOM     10  H   LIG    1        1.130   2.868   0.007  0.00  0.00    +0.440 HD
ATOM     11  C   LIG    1       -0.014   1.209   0.009  0.00  0.00    +0.530 C 
ATOM     12  O   LIG    1        0.002  -0.004   0.002  0.00  0.00    -0.480 OA
BRANCH   9  17
ATOM     13  C   LIG    1        5.973   0.689  -0.051  0.00  0.00    +0.160 C 
ATOM     14  C   LIG    1        4.467   0.661  -0.036  0.00  0.00    +0.040 A 
ATOM     15  N   LIG    1        3.707  -0.398  -0.034  0.00  0.00    -0.360 NA
ATOM     16  O   LIG    1        2.533  -0.109  -0.017  0.00  0.00    +0.120 OA
ATOM     17  C   LIG    1        2.354   1.221  -0.014  0.00  0.00    +0.210 A 
ATOM     18  C   LIG    1        3.602   1.774  -0.023  0.00  0.00    -0.080 A 
ENDBRANCH   9  17
ENDBRANCH   8  11
ENDBRANCH   7   8
ENDBRANCH   1   7
BRANCH   4  19
ATOM     19  C   LIG    1       -7.578   2.832   0.054  0.00  0.00    +0.190 C 
BRANCH  19  20
ATOM     20  C   LIG    1       -8.093   2.891  -1.386  0.00  0.00    +0.010 C 
ATOM     21  C   LIG    1       -7.608   4.184  -2.065  0.00  0.00    +0.070 C 
ATOM     22  C   LIG    1       -8.406   4.386  -3.369  0.00  0.00    -0.310 C 
ATOM     23  S   LIG    1      -10.014   3.563  -3.077  0.00  0.00    +2.390 S 
ATOM     24  O   LIG    1      -11.038   4.545  -3.000  0.00  0.00    -0.930 OA
ATOM     25  O   LIG    1      -10.149   2.464  -3.968  0.00  0.00    -0.930 OA
ATOM     26  C   LIG    1       -9.643   2.939  -1.394  0.00  0.00    -0.300 C 
ENDBRANCH  19  20
ENDBRANCH   4  19
TORSDOF 6
