REMARK  Name = ZINCvU0000000BA2.0
REMARK                            x       y       z     vdW  Elec       q    Type
REMARK                         _______ _______ _______ _____ _____    ______ ____
ROOT
ATOM      1  C   LIG    1        2.010  -0.562  -2.274  0.00  0.00    +0.060 A 
ATOM      2  N   LIG    1        1.720  -0.707  -1.004  0.00  0.00    -0.190 NA
ATOM      3  N   LIG    1        1.798   0.231  -0.137  0.00  0.00    -0.360 N 
ATOM      4  C   LIG    1        2.186   1.488  -0.432  0.00  0.00    +0.520 A 
ATOM      5  C   LIG    1        2.549   1.801  -1.821  0.00  0.00    -0.140 A 
ATOM      6  C   LIG    1        2.966   3.064  -2.227  0.00  0.00    +0.090 A 
ATOM      7  C   LIG    1        3.284   3.278  -3.552  0.00  0.00    +0.030 A 
ATOM      8  C   LIG    1        3.192   2.248  -4.478  0.00  0.00    +0.050 A 
ATOM      9  C   LIG    1        2.782   0.988  -4.095  0.00  0.00    +0.080 A 
ATOM     10  O   LIG    1        2.237   2.344   0.433  0.00  0.00    -0.500 OA
ATOM     11  C   LIG    1        2.456   0.751  -2.764  0.00  0.00    -0.030 A 
ENDROOT
BRANCH   1  14
ATOM     12  C   LIG    1        1.403  -3.133  -1.289  0.00  0.00    +0.300 C 
ATOM     13  N   LIG    1        1.618  -2.935  -2.724  0.00  0.00    -0.590 N 
ATOM     14  C   LIG    1        1.889  -1.704  -3.202  0.00  0.00    +0.590 C 
ATOM     15  O   LIG    1        2.034  -1.535  -4.397  0.00  0.00    -0.500 OA
BRANCH  13  16
ATOM     16  C   LIG    1        1.538  -4.075  -3.641  0.00  0.00    +0.360 C 
BRANCH  16  17
ATOM     17  C   LIG    1        2.861  -4.798  -3.660  0.00  0.00    -0.090 A 
ATOM     18  C   LIG    1        3.057  -5.901  -2.852  0.00  0.00    +0.050 A 
ATOM     19  C   LIG    1        4.271  -6.565  -2.870  0.00  0.00    +0.030 A 
ATOM     20  C   LIG    1        5.287  -6.125  -3.696  0.00  0.00    +0.050 A 
ATOM     21  C   LIG    1        5.092  -5.020  -4.506  0.00  0.00    -0.040 A 
ATOM     22 CL   LIG    1        6.369  -4.467  -5.543  0.00  0.00    -0.050 Cl
ATOM     23  C   LIG    1        3.876  -4.359  -4.492  0.00  0.00    -0.020 A 
ATOM     24 CL   LIG    1        3.627  -2.977  -5.512  0.00  0.00    -0.010 Cl
ENDBRANCH  16  17
ENDBRANCH  13  16
ENDBRANCH   1  14
BRANCH   3  25
ATOM     25  C   LIG    1        1.441  -0.077   1.250  0.00  0.00    +0.380 C 
BRANCH  25  26
ATOM     26  C   LIG    1       -0.030   0.177   1.459  0.00  0.00    -0.120 A 
ATOM     27  C   LIG    1       -0.944  -0.838   1.242  0.00  0.00    +0.040 A 
ATOM     28  C   LIG    1       -2.294  -0.603   1.428  0.00  0.00    +0.000 A 
ATOM     29  C   LIG    1       -2.728   0.642   1.840  0.00  0.00    +0.010 A 
ATOM     30  C   LIG    1       -1.815   1.657   2.057  0.00  0.00    +0.000 A 
ATOM     31  C   LIG    1       -0.465   1.424   1.866  0.00  0.00    +0.040 A 
ENDBRANCH  25  26
ENDBRANCH   3  25
TORSDOF 5
