REMARK  Name = ZINCpk00000RmW9x.0
REMARK                            x       y       z     vdW  Elec       q    Type
REMARK                         _______ _______ _______ _____ _____    ______ ____
ROOT
ATOM      1  O   LIG    1        2.360  -3.833   1.878  0.00  0.00    -0.510 OA
ATOM      2  C   LIG    1        3.207  -4.243   1.112  0.00  0.00    +0.510 C 
ATOM      3  N   LIG    1        3.756  -5.459   1.301  0.00  0.00    -0.610 N 
ATOM      4  C   LIG    1        3.310  -6.267   2.453  0.00  0.00    +0.270 C 
ATOM      5  C   LIG    1        3.132  -7.747   2.057  0.00  0.00    +0.050 C 
ATOM      6  C   LIG    1        2.510  -7.837   0.681  0.00  0.00    +0.200 C 
ATOM      7  N   LIG    1        3.573  -7.920  -0.319  0.00  0.00    -0.510 N 
ATOM      8  C   LIG    1        4.089  -6.691  -0.791  0.00  0.00    +0.190 C 
ATOM      9  C   LIG    1        4.764  -5.921   0.370  0.00  0.00    +0.300 C 
ENDROOT
BRANCH   7  10
ATOM     10  C   LIG    1        3.198  -8.742  -1.377  0.00  0.00    +0.260 A 
ATOM     11  C   LIG    1        2.283  -8.288  -2.326  0.00  0.00    +0.000 A 
ATOM     12  C   LIG    1        1.943  -9.145  -3.361  0.00  0.00    +0.040 A 
ATOM     13  C   LIG    1        2.532 -10.401  -3.388  0.00  0.00    +0.210 A 
ATOM     14  N   LIG    1        3.387 -10.749  -2.447  0.00  0.00    -0.230 NA
ATOM     15  N   LIG    1        3.712  -9.958  -1.490  0.00  0.00    -0.220 NA
ENDBRANCH   7  10
BRANCH   2  16
ATOM     16  C   LIG    1        3.645  -3.391  -0.052  0.00  0.00    +0.160 C 
BRANCH  16  17
ATOM     17  C   LIG    1        2.885  -2.090  -0.037  0.00  0.00    +0.070 A 
ATOM     18  C   LIG    1        3.434  -0.856  -0.035  0.00  0.00    +0.090 A 
ATOM     19  N   LIG    1        2.405   0.045  -0.021  0.00  0.00    -0.360 N 
ATOM     20  C   LIG    1        2.372   1.409  -0.013  0.00  0.00    +0.210 A 
ATOM     21  C   LIG    1        1.194   2.068   0.002  0.00  0.00    +0.010 A 
ATOM     22  C   LIG    1       -0.016   1.356   0.009  0.00  0.00    +0.040 A 
ATOM     23  C   LIG    1        0.002  -0.004   0.002  0.00  0.00    +0.070 A 
ATOM     24  C   LIG    1        1.240  -0.678  -0.013  0.00  0.00    +0.220 A 
ATOM     25  N   LIG    1        1.556  -1.965  -0.023  0.00  0.00    -0.460 NA
ENDBRANCH  16  17
ENDBRANCH   2  16
TORSDOF 3
