REMARK  Name = ZINCpe00000MJMx6.0
REMARK                            x       y       z     vdW  Elec       q    Type
REMARK                         _______ _______ _______ _____ _____    ______ ____
ROOT
ATOM      1  O   LIG    1       -0.713  -0.456   2.098  0.00  0.00    -0.520 OA
ATOM      2  C   LIG    1       -1.091   0.697   2.171  0.00  0.00    +0.580 C 
ATOM      3  N   LIG    1       -0.966   1.515   1.108  0.00  0.00    -0.580 N 
ATOM      4  C   LIG    1       -1.570   2.855   1.119  0.00  0.00    +0.280 C 
ATOM      5  C   LIG    1       -2.452   3.012  -0.123  0.00  0.00    +0.030 C 
ATOM      6  C   LIG    1       -1.625   2.706  -1.374  0.00  0.00    +0.050 C 
ATOM      7  C   LIG    1       -1.125   1.260  -1.316  0.00  0.00    +0.110 C 
ATOM      8  C   LIG    1       -0.228   1.084  -0.087  0.00  0.00    +0.290 C 
ENDROOT
BRANCH   2   9
ATOM      9  C   LIG    1       -1.689   1.202   3.430  0.00  0.00    +0.060 A 
ATOM     10  N   LIG    1       -1.934   2.494   3.567  0.00  0.00    -0.390 NA
ATOM     11  C   LIG    1       -2.472   2.947   4.699  0.00  0.00    +0.070 A 
ATOM     12  C   LIG    1       -2.745   4.317   4.875  0.00  0.00    +0.060 A 
ATOM     13  C   LIG    1       -3.295   4.750   6.042  0.00  0.00    +0.040 A 
ATOM     14  C   LIG    1       -3.593   3.857   7.070  0.00  0.00    +0.050 A 
ATOM     15  C   LIG    1       -3.344   2.526   6.937  0.00  0.00    +0.050 A 
ATOM     16  C   LIG    1       -2.777   2.038   5.747  0.00  0.00    +0.100 A 
ATOM     17  N   LIG    1       -2.521   0.734   5.590  0.00  0.00    -0.420 NA
ATOM     18  C   LIG    1       -1.997   0.303   4.466  0.00  0.00    +0.320 A 
ENDBRANCH   2   9
BRANCH   7  19
ATOM     19  O   LIG    1       -2.242   0.373  -1.222  0.00  0.00    -0.540 OA
ATOM     20  H   LIG    1       -1.999  -0.561  -1.179  0.00  0.00    +0.380 HD
ENDBRANCH   7  19
BRANCH   7  21
ATOM     21  C   LIG    1       -0.326   0.945  -2.582  0.00  0.00    +0.320 C 
BRANCH  21  22
ATOM     22  N   LIG    1        0.155  -0.437  -2.523  0.00  0.00    -0.300 N 
ATOM     23  C   LIG    1       -0.060  -1.392  -3.458  0.00  0.00    +0.140 A 
ATOM     24  C   LIG    1        0.556  -2.509  -3.006  0.00  0.00    +0.140 A 
ATOM     25  N   LIG    1        1.111  -2.187  -1.832  0.00  0.00    -0.260 NA
ATOM     26  N   LIG    1        0.861  -0.951  -1.577  0.00  0.00    -0.090 NA
ENDBRANCH  21  22
ENDBRANCH   7  21
TORSDOF 4
