REMARK  Name = ZINC450000002Ee4.0
REMARK                            x       y       z     vdW  Elec       q    Type
REMARK                         _______ _______ _______ _____ _____    ______ ____
ROOT
ATOM      1  N   LIG    1        3.324   3.645  -0.010  0.00  0.00    -0.630 N 
ATOM      2  H   LIG    1        3.756   3.268  -0.840  0.00  0.00    +0.440 HD
ATOM      3  H   LIG    1        3.772   3.259   0.807  0.00  0.00    +0.440 HD
ATOM      4  H   LIG    1        3.424   4.649  -0.006  0.00  0.00    +0.440 HD
ENDROOT
BRANCH   1   5
ATOM      5  C   LIG    1        1.897   3.295   0.002  0.00  0.00    +0.310 C 
BRANCH   5   6
ATOM      6  C   LIG    1        1.746   1.773  -0.005  0.00  0.00    +0.090 C 
BRANCH   6   7
ATOM      7  S   LIG    1       -0.016   1.341   0.009  0.00  0.00    -0.190 S 
ATOM      8  H   LIG    1        0.002  -0.004   0.002  0.00  0.00    +0.110 HD
ENDBRANCH   6   7
ENDBRANCH   5   6
ENDBRANCH   1   5
TORSDOF 3
