REMARK  Name = ZINCrD00000rSVuv.0
REMARK                            x       y       z     vdW  Elec       q    Type
REMARK                         _______ _______ _______ _____ _____    ______ ____
ROOT
ATOM      1  C   LIG    1       -0.954   1.650   1.115  0.00  0.00    -0.030 C 
ATOM      2  C   LIG    1       -0.165   1.542   2.419  0.00  0.00    +0.060 C 
ATOM      3  C   LIG    1       -0.096   0.108   2.870  0.00  0.00    +0.020 C 
ATOM      4  C   LIG    1        1.043  -0.539   2.859  0.00  0.00    -0.090 C 
ATOM      5  C   LIG    1        1.077  -1.982   3.297  0.00  0.00    +0.230 C 
ATOM      6  O   LIG    1        0.206  -2.163   4.414  0.00  0.00    -0.380 OA
ATOM      7  C   LIG    1       -0.773  -3.186   4.235  0.00  0.00    +0.160 C 
ATOM      8  C   LIG    1       -2.037  -2.833   5.023  0.00  0.00    +0.040 C 
ATOM      9  C   LIG    1       -3.242  -2.841   4.081  0.00  0.00    +0.050 C 
ATOM     10  C   LIG    1       -3.597  -1.428   3.692  0.00  0.00    +0.520 C 
ATOM     11  N   LIG    1       -4.459  -1.208   2.670  0.00  0.00    -0.720 N 
ATOM     12  H   LIG    1       -4.730  -1.952   2.111  0.00  0.00    +0.400 HD
ATOM     13  C   LIG    1       -4.992   0.138   2.471  0.00  0.00    +0.270 C 
ATOM     14  C   LIG    1       -4.667   0.698   1.094  0.00  0.00    +0.270 C 
ATOM     15  N   LIG    1       -3.408   1.447   1.119  0.00  0.00    -0.740 N 
ATOM     16  H   LIG    1       -3.427   2.429   1.084  0.00  0.00    +0.400 HD
ATOM     17  O   LIG    1       -3.134  -0.490   4.303  0.00  0.00    -0.530 OA
ATOM     18  C   LIG    1       -2.213   0.819   1.202  0.00  0.00    +0.530 C 
ATOM     19  O   LIG    1       -2.124  -0.381   1.344  0.00  0.00    -0.500 OA
ENDROOT
BRANCH  14  20
ATOM     20  C   LIG    1       -4.653  -0.371   0.040  0.00  0.00    -0.070 A 
ATOM     21  C   LIG    1       -3.890  -0.207  -1.101  0.00  0.00    +0.010 A 
ATOM     22  C   LIG    1       -3.874  -1.193  -2.070  0.00  0.00    +0.010 A 
ATOM     23  C   LIG    1       -4.629  -2.339  -1.902  0.00  0.00    +0.000 A 
ATOM     24  C   LIG    1       -5.397  -2.500  -0.764  0.00  0.00    +0.010 A 
ATOM     25  C   LIG    1       -5.409  -1.516   0.207  0.00  0.00    -0.010 A 
ENDBRANCH  14  20
BRANCH   1  26
ATOM     26  C   LIG    1       -0.099   1.160  -0.053  0.00  0.00    +0.050 C 
BRANCH  26  28
ATOM     27  C   LIG    1       -0.924   2.984  -1.547  0.00  0.00    +0.010 C 
ATOM     28  C   LIG    1       -0.812   1.469  -1.371  0.00  0.00    -0.040 C 
ATOM     29  C   LIG    1       -0.013   0.877  -2.534  0.00  0.00    +0.010 C 
ENDBRANCH  26  28
ENDBRANCH   1  26
TORSDOF 3
