REMARK  Name = ZINCvU00000003QP.0
REMARK                            x       y       z     vdW  Elec       q    Type
REMARK                         _______ _______ _______ _____ _____    ______ ____
ROOT
ATOM      1  N   LIG    1       -1.389   6.367   0.043  0.00  0.00    -0.720 N 
ATOM      2  H   LIG    1       -0.452   6.618   0.040  0.00  0.00    +0.400 HD
ATOM      3  C   LIG    1       -1.737   5.065   0.038  0.00  0.00    +0.540 C 
ATOM      4  O   LIG    1       -2.908   4.750   0.042  0.00  0.00    -0.520 OA
ENDROOT
BRANCH   1   6
ATOM      5  C   LIG    1       -2.868   7.666   1.495  0.00  0.00    +0.040 C 
ATOM      6  C   LIG    1       -2.425   7.402   0.054  0.00  0.00    +0.290 C 
BRANCH   6   7
ATOM      7  C   LIG    1       -1.873   8.671  -0.542  0.00  0.00    -0.100 A 
ATOM      8  C   LIG    1       -0.581   9.066  -0.247  0.00  0.00    +0.010 A 
ATOM      9  C   LIG    1       -0.069  10.225  -0.794  0.00  0.00    +0.020 A 
ATOM     10  C   LIG    1       -0.860  11.003  -1.637  0.00  0.00    -0.040 A 
ATOM     11  C   LIG    1       -2.163  10.604  -1.926  0.00  0.00    +0.020 A 
ATOM     12  C   LIG    1       -2.663   9.440  -1.378  0.00  0.00    +0.030 A 
BRANCH  10  13
ATOM     13  C   LIG    1       -0.317  12.254  -2.223  0.00  0.00    -0.050 A 
ATOM     14  C   LIG    1       -1.106  13.029  -3.070  0.00  0.00    +0.020 A 
ATOM     15  C   LIG    1       -0.597  14.194  -3.609  0.00  0.00    +0.010 A 
ATOM     16  C   LIG    1        0.697  14.586  -3.318  0.00  0.00    +0.000 A 
ATOM     17  C   LIG    1        1.487  13.817  -2.482  0.00  0.00    +0.010 A 
ATOM     18  C   LIG    1        0.987  12.653  -1.934  0.00  0.00    +0.020 A 
ENDBRANCH  10  13
ENDBRANCH   6   7
ENDBRANCH   1   6
BRANCH   3  19
ATOM     19  C   LIG    1       -0.671   3.999   0.027  0.00  0.00    +0.090 C 
BRANCH  19  20
ATOM     20  S   LIG    1       -1.450   2.366   0.022  0.00  0.00    +0.160 S 
BRANCH  20  21
ATOM     21  C   LIG    1       -0.016   1.343   0.009  0.00  0.00    +0.120 A 
ATOM     22  N   LIG    1        1.231   1.753  -0.000  0.00  0.00    -0.290 NA
ATOM     23  N   LIG    1        2.017   0.734  -0.013  0.00  0.00    -0.260 NA
ATOM     24  C   LIG    1        1.304  -0.366  -0.012  0.00  0.00    +0.220 A 
ATOM     25  O   LIG    1        0.002  -0.004   0.002  0.00  0.00    -0.200 OA
BRANCH  24  26
ATOM     26  C   LIG    1        1.828  -1.747  -0.025  0.00  0.00    -0.040 A 
ATOM     27  C   LIG    1        0.947  -2.831  -0.018  0.00  0.00    +0.090 A 
ATOM     28  C   LIG    1        1.442  -4.118  -0.035  0.00  0.00    +0.000 A 
ATOM     29  C   LIG    1        2.810  -4.337  -0.049  0.00  0.00    +0.130 A 
ATOM     30  C   LIG    1        3.689  -3.265  -0.052  0.00  0.00    +0.000 A 
ATOM     31  F   LIG    1        3.289  -5.600  -0.061  0.00  0.00    -0.130 F 
ATOM     32  C   LIG    1        3.206  -1.974  -0.040  0.00  0.00    +0.110 A 
ENDBRANCH  24  26
ENDBRANCH  20  21
ENDBRANCH  19  20
ENDBRANCH   3  19
TORSDOF 7
