REMARK  Name = ZINCrH000004lBMw.0
REMARK                            x       y       z     vdW  Elec       q    Type
REMARK                         _______ _______ _______ _____ _____    ______ ____
ROOT
ATOM      1  C   LIG    1        4.766  -5.905  -0.070  0.00  0.00    +0.160 A 
ATOM      2  C   LIG    1        3.391  -5.860   0.127  0.00  0.00    +0.020 A 
ATOM      3  C   LIG    1        2.735  -4.648   0.145  0.00  0.00    +0.080 A 
ATOM      4  C   LIG    1        3.453  -3.466  -0.033  0.00  0.00    -0.030 A 
ATOM      5  C   LIG    1        4.831  -3.514  -0.235  0.00  0.00    +0.050 A 
ATOM      6  C   LIG    1        5.484  -4.728  -0.247  0.00  0.00    -0.020 A 
ENDROOT
BRANCH   4   7
ATOM      7  C   LIG    1        2.750  -2.160  -0.013  0.00  0.00    +0.120 A 
ATOM      8  C   LIG    1        3.330  -0.939  -0.174  0.00  0.00    +0.110 A 
ATOM      9  N   LIG    1        2.333  -0.008  -0.089  0.00  0.00    -0.400 N 
ATOM     10  C   LIG    1        2.333   1.355  -0.174  0.00  0.00    +0.290 A 
ATOM     11  C   LIG    1        1.161   2.023  -0.047  0.00  0.00    -0.040 A 
ATOM     12  C   LIG    1       -0.021   1.301   0.170  0.00  0.00    +0.360 A 
ATOM     13  N   LIG    1        0.006  -0.009   0.248  0.00  0.00    -0.440 NA
ATOM     14  C   LIG    1        1.159  -0.683   0.124  0.00  0.00    +0.380 A 
ATOM     15  N   LIG    1        1.430  -1.979   0.166  0.00  0.00    -0.460 NA
ENDBRANCH   4   7
BRANCH   1  17
ATOM     16  C   LIG    1        4.810  -8.227  -0.581  0.00  0.00    +0.560 C 
ATOM     17  N   LIG    1        5.429  -7.136  -0.088  0.00  0.00    -0.670 N 
ATOM     18  H   LIG    1        6.334  -7.205   0.254  0.00  0.00    +0.410 HD
ATOM     19  O   LIG    1        3.714  -8.123  -1.097  0.00  0.00    -0.510 OA
BRANCH  16  24
ATOM     20  C   LIG    1        5.441 -11.914  -0.920  0.00  0.00    -0.100 A 
ATOM     21  C   LIG    1        6.689 -12.028  -0.333  0.00  0.00    +0.060 A 
ATOM     22  C   LIG    1        7.327 -10.910   0.175  0.00  0.00    +0.000 A 
ATOM     23  C   LIG    1        6.725  -9.672   0.092  0.00  0.00    +0.050 A 
ATOM     24  C   LIG    1        5.464  -9.550  -0.495  0.00  0.00    -0.140 A 
ATOM     25  C   LIG    1        4.826 -10.682  -1.004  0.00  0.00    +0.110 A 
BRANCH  20  26
ATOM     26  C   LIG    1        4.754 -13.137  -1.470  0.00  0.00    +0.220 C 
BRANCH  26  28
ATOM     27  C   LIG    1        4.519 -14.453  -3.460  0.00  0.00    +0.200 C 
ATOM     28  O   LIG    1        5.120 -13.314  -2.840  0.00  0.00    -0.390 OA
ENDBRANCH  26  28
ENDBRANCH  20  26
ENDBRANCH  16  24
ENDBRANCH   1  17
TORSDOF 5
