REMARK  Name = ZINCkj000005g1oG.0
REMARK                            x       y       z     vdW  Elec       q    Type
REMARK                         _______ _______ _______ _____ _____    ______ ____
ROOT
ATOM      1  N   LIG    1       -0.023  -2.783  -3.744  0.00  0.00    -0.540 NA
ATOM      2  C   LIG    1        0.616  -3.780  -4.614  0.00  0.00    +0.180 C 
ATOM      3  C   LIG    1        2.132  -3.745  -4.397  0.00  0.00    +0.310 C 
ATOM      4  N   LIG    1        2.403  -3.909  -2.961  0.00  0.00    -0.630 N 
ATOM      5  C   LIG    1        1.693  -3.035  -2.015  0.00  0.00    +0.270 C 
ATOM      6  C   LIG    1        3.277  -4.836  -2.523  0.00  0.00    +0.710 C 
ATOM      7  N   LIG    1        3.578  -4.913  -1.212  0.00  0.00    -0.740 N 
ATOM      8  H   LIG    1        3.110  -4.353  -0.573  0.00  0.00    +0.390 HD
ATOM      9  O   LIG    1        3.795  -5.604  -3.311  0.00  0.00    -0.580 OA
ATOM     10  C   LIG    1        0.194  -3.097  -2.325  0.00  0.00    +0.170 C 
ENDROOT
BRANCH   1  12
ATOM     11  C   LIG    1       -1.637  -2.096  -5.453  0.00  0.00    +0.040 C 
ATOM     12  C   LIG    1       -1.456  -2.663  -4.043  0.00  0.00    +0.160 C 
ENDBRANCH   1  12
BRANCH   7  13
ATOM     13  C   LIG    1        4.613  -5.842  -0.750  0.00  0.00    +0.280 C 
ATOM     14  C   LIG    1        3.997  -7.227  -0.540  0.00  0.00    +0.020 C 
BRANCH  13  15
ATOM     15  C   LIG    1        5.198  -5.339   0.570  0.00  0.00    -0.090 C 
ATOM     16  C   LIG    1        4.088  -5.250   1.620  0.00  0.00    +0.050 C 
ATOM     17  C   LIG    1        5.814  -3.954   0.360  0.00  0.00    +0.050 C 
BRANCH  15  18
ATOM     18  C   LIG    1        6.279  -6.309   1.052  0.00  0.00    +0.280 C 
BRANCH  18  19
ATOM     19  N   LIG    1        6.685  -5.951   2.418  0.00  0.00    -0.390 N 
ATOM     20  C   LIG    1        7.318  -4.625   2.409  0.00  0.00    +0.320 C 
ATOM     21  C   LIG    1        7.641  -6.946   2.921  0.00  0.00    +0.320 C 
ATOM     22  H   LIG    1        5.873  -5.932   3.016  0.00  0.00    +0.420 HD
ENDBRANCH  18  19
ENDBRANCH  15  18
ENDBRANCH  13  15
ENDBRANCH   7  13
TORSDOF 5
