REMARK  Name = ZINCvU0000000EK5.0
REMARK                            x       y       z     vdW  Elec       q    Type
REMARK                         _______ _______ _______ _____ _____    ______ ____
ROOT
ATOM      1  C   LIG    1       -1.281  -2.159  -0.003  0.00  0.00    +0.280 C 
ATOM      2  C   LIG    1       -2.787  -2.490   0.041  0.00  0.00    +0.050 C 
ATOM      3  C   LIG    1       -3.411  -1.202   0.639  0.00  0.00    +0.040 C 
ATOM      4  C   LIG    1       -2.507  -0.104   0.025  0.00  0.00    +0.250 C 
ATOM      5  N   LIG    1       -1.156  -0.694   0.009  0.00  0.00    -0.620 N 
ATOM      6  C   LIG    1        0.002  -0.004   0.002  0.00  0.00    +0.530 C 
ATOM      7  O   LIG    1        1.060  -0.596  -0.011  0.00  0.00    -0.520 OA
ENDROOT
BRANCH   1  11
ATOM      8  C   LIG    1        0.459  -3.735  -3.578  0.00  0.00    +0.170 A 
ATOM      9  C   LIG    1        0.081  -2.402  -3.516  0.00  0.00    -0.110 A 
ATOM     10  C   LIG    1       -0.481  -1.895  -2.359  0.00  0.00    +0.100 A 
ATOM     11  C   LIG    1       -0.668  -2.714  -1.263  0.00  0.00    -0.150 A 
ATOM     12  C   LIG    1       -0.286  -4.048  -1.318  0.00  0.00    +0.180 A 
ATOM     13  C   LIG    1        0.273  -4.559  -2.479  0.00  0.00    -0.100 A 
BRANCH   8  15
ATOM     14  C   LIG    1        1.175  -3.326  -5.808  0.00  0.00    +0.250 C 
ATOM     15  O   LIG    1        1.012  -4.233  -4.715  0.00  0.00    -0.320 OA
ENDBRANCH   8  15
BRANCH  12  16
ATOM     16  O   LIG    1       -0.465  -4.852  -0.237  0.00  0.00    -0.310 OA
ATOM     17  C   LIG    1       -0.049  -6.213  -0.366  0.00  0.00    +0.240 C 
ENDBRANCH  12  16
ENDBRANCH   1  11
BRANCH   6  18
ATOM     18  C   LIG    1       -0.018   1.503   0.010  0.00  0.00    +0.070 C 
BRANCH  18  19
ATOM     19  C   LIG    1        1.417   2.032  -0.001  0.00  0.00    +0.210 C 
BRANCH  19  20
ATOM     20  C   LIG    1        1.397   3.539   0.008  0.00  0.00    +0.200 A 
ATOM     21  N   LIG    1        1.397   4.290   1.073  0.00  0.00    -0.480 NA
ATOM     22  C   LIG    1        1.376   5.578   0.698  0.00  0.00    +0.180 A 
ATOM     23  C   LIG    1        1.362   5.607  -0.660  0.00  0.00    -0.010 A 
ATOM     24  O   LIG    1        1.381   4.323  -1.079  0.00  0.00    -0.180 OA
BRANCH  23  25
ATOM     25  C   LIG    1        1.337   6.813  -1.514  0.00  0.00    -0.010 A 
ATOM     26  C   LIG    1        0.401   7.820  -1.278  0.00  0.00    +0.060 A 
ATOM     27  C   LIG    1        0.382   8.943  -2.079  0.00  0.00    +0.030 A 
ATOM     28  C   LIG    1        1.289   9.072  -3.116  0.00  0.00    +0.050 A 
ATOM     29  C   LIG    1        2.220   8.078  -3.357  0.00  0.00    +0.030 A 
ATOM     30  C   LIG    1        2.253   6.951  -2.560  0.00  0.00    -0.020 A 
ATOM     31 CL   LIG    1        3.426   5.707  -2.859  0.00  0.00    -0.050 Cl
ENDBRANCH  23  25
ENDBRANCH  19  20
ENDBRANCH  18  19
ENDBRANCH   6  18
TORSDOF 7
