REMARK  Name = ZINCkj00000hbo08.0
REMARK                            x       y       z     vdW  Elec       q    Type
REMARK                         _______ _______ _______ _____ _____    ______ ____
ROOT
ATOM      1  N   LIG    1        5.066   3.745   1.716  0.00  0.00    -0.750 N 
ATOM      2  H   LIG    1        5.781   3.201   1.352  0.00  0.00    +0.400 HD
ATOM      3  C   LIG    1        3.802   3.279   1.726  0.00  0.00    +0.700 C 
ATOM      4  N   LIG    1        3.531   2.056   1.229  0.00  0.00    -0.740 N 
ATOM      5  H   LIG    1        4.246   1.511   0.864  0.00  0.00    +0.400 HD
ATOM      6  O   LIG    1        2.906   3.961   2.183  0.00  0.00    -0.580 OA
ENDROOT
BRANCH   4   7
ATOM      7  C   LIG    1        2.157   1.548   1.239  0.00  0.00    +0.250 C 
ATOM      8  C   LIG    1        1.417   2.055  -0.000  0.00  0.00    +0.000 C 
ATOM      9  C   LIG    1       -0.019   1.526   0.010  0.00  0.00    +0.030 C 
ATOM     10  C   LIG    1        0.002  -0.004   0.002  0.00  0.00    -0.010 C 
ATOM     11  C   LIG    1        0.742  -0.511   1.242  0.00  0.00    +0.030 C 
ATOM     12  C   LIG    1        2.178   0.019   1.231  0.00  0.00    +0.010 C 
BRANCH  10  13
ATOM     13  C   LIG    1       -1.433  -0.534   0.013  0.00  0.00    +0.180 C 
BRANCH  13  14
ATOM     14  O   LIG    1       -1.417  -1.957  -0.112  0.00  0.00    -0.570 OA
ATOM     15  H   LIG    1       -2.295  -2.362  -0.113  0.00  0.00    +0.380 HD
ENDBRANCH  13  14
ENDBRANCH  10  13
ENDBRANCH   4   7
BRANCH   1  19
ATOM     16  C   LIG    1        7.349   6.380   2.796  0.00  0.00    +0.170 C 
ATOM     17  C   LIG    1        7.043   5.481   4.020  0.00  0.00    +0.050 C 
ATOM     18  C   LIG    1        5.604   4.985   3.774  0.00  0.00    +0.040 C 
ATOM     19  C   LIG    1        5.361   5.075   2.257  0.00  0.00    +0.280 C 
ATOM     20  C   LIG    1        6.661   5.622   1.634  0.00  0.00    +0.040 C 
BRANCH  16  22
ATOM     21  C   LIG    1        9.054   7.306   1.385  0.00  0.00    +0.320 C 
ATOM     22  N   LIG    1        8.798   6.477   2.570  0.00  0.00    -0.380 N 
ATOM     23  C   LIG    1        9.437   7.088   3.743  0.00  0.00    +0.320 C 
ATOM     24  H   LIG    1        9.177   5.554   2.423  0.00  0.00    +0.420 HD
ENDBRANCH  16  22
ENDBRANCH   1  19
TORSDOF 5
