REMARK  Name = ZINCqH0000002HZq.0
REMARK                            x       y       z     vdW  Elec       q    Type
REMARK                         _______ _______ _______ _____ _____    ______ ____
ROOT
ATOM      1  C   LIG    1       -0.945   1.720  -6.008  0.00  0.00    +0.560 C 
ATOM      2  N   LIG    1       -0.434   1.367  -7.204  0.00  0.00    -0.730 N 
ATOM      3  H   LIG    1        0.365   0.818  -7.248  0.00  0.00    +0.400 HD
ATOM      4  O   LIG    1       -1.946   2.408  -5.953  0.00  0.00    -0.530 OA
ENDROOT
BRANCH   1   9
ATOM      5  C   LIG    1       -0.194   1.208  -2.360  0.00  0.00    +0.130 A 
ATOM      6  C   LIG    1        0.952   0.427  -2.429  0.00  0.00    -0.050 A 
ATOM      7  C   LIG    1        1.472   0.062  -3.657  0.00  0.00    +0.050 A 
ATOM      8  C   LIG    1        0.862   0.480  -4.822  0.00  0.00    +0.000 A 
ATOM      9  C   LIG    1       -0.288   1.269  -4.762  0.00  0.00    -0.100 A 
ATOM     10  C   LIG    1       -0.815   1.633  -3.522  0.00  0.00    +0.060 A 
BRANCH   5  11
ATOM     11  O   LIG    1       -0.704   1.559  -1.150  0.00  0.00    -0.310 OA
BRANCH  11  12
ATOM     12  C   LIG    1       -0.013   1.086   0.008  0.00  0.00    +0.180 C 
BRANCH  12  14
ATOM     13  C   LIG    1        0.011   1.072   2.506  0.00  0.00    +0.040 C 
ATOM     14  C   LIG    1       -0.729   1.579   1.267  0.00  0.00    +0.020 C 
ENDBRANCH  12  14
ENDBRANCH  11  12
ENDBRANCH   5  11
ENDBRANCH   1   9
BRANCH   2  15
ATOM     15  C   LIG    1       -1.085   1.813  -8.438  0.00  0.00    +0.280 C 
BRANCH  15  16
ATOM     16  C   LIG    1       -0.310   1.280  -9.645  0.00  0.00    +0.260 C 
BRANCH  16  17
ATOM     17  N   LIG    1        1.093   1.688  -9.544  0.00  0.00    -0.710 N 
ATOM     18  H   LIG    1        1.333   2.478  -9.034  0.00  0.00    +0.410 HD
ATOM     19  C   LIG    1        2.051   0.967 -10.159  0.00  0.00    +0.650 C 
ATOM     20  O   LIG    1        1.751  -0.022 -10.798  0.00  0.00    -0.560 OA
BRANCH  19  21
ATOM     21  O   LIG    1        3.341   1.342 -10.066  0.00  0.00    -0.370 OA
BRANCH  21  22
ATOM     22  C   LIG    1        4.319   0.518 -10.754  0.00  0.00    +0.140 C 
ATOM     23  C   LIG    1        4.264  -0.907 -10.201  0.00  0.00    +0.040 C 
ATOM     24  C   LIG    1        5.718   1.097 -10.536  0.00  0.00    +0.080 C 
ATOM     25  C   LIG    1        4.004   0.496 -12.251  0.00  0.00    +0.040 C 
ENDBRANCH  21  22
ENDBRANCH  19  21
ENDBRANCH  16  17
BRANCH  16  26
ATOM     26  C   LIG    1       -0.914   1.847 -10.931  0.00  0.00    -0.020 C 
ATOM     27  C   LIG    1       -2.380   1.420 -11.037  0.00  0.00    +0.030 C 
ATOM     28  C   LIG    1       -0.140   1.313 -12.137  0.00  0.00    +0.030 C 
ENDBRANCH  16  26
ENDBRANCH  15  16
ENDBRANCH   2  15
TORSDOF 10
