REMARK  Name = ZINCqH0000034ozB.0
REMARK                            x       y       z     vdW  Elec       q    Type
REMARK                         _______ _______ _______ _____ _____    ______ ____
ROOT
ATOM      1  N   LIG    1        4.882  -3.433   1.634  0.00  0.00    -0.730 N 
ATOM      2  H   LIG    1        5.460  -2.669   1.786  0.00  0.00    +0.390 HD
ENDROOT
BRANCH   1   7
ATOM      3  C   LIG    1        1.811  -1.775   0.457  0.00  0.00    +0.030 A 
ATOM      4  C   LIG    1        0.988  -2.880   0.241  0.00  0.00    -0.010 A 
ATOM      5  C   LIG    1        1.461  -4.153   0.490  0.00  0.00    +0.060 A 
ATOM      6  C   LIG    1        2.751  -4.337   0.951  0.00  0.00    -0.060 A 
ATOM      7  C   LIG    1        3.579  -3.242   1.168  0.00  0.00    +0.230 A 
ATOM      8  C   LIG    1        3.114  -1.960   0.917  0.00  0.00    -0.070 A 
BRANCH   3  13
ATOM      9  N   LIG    1        1.836   0.761   0.661  0.00  0.00    -0.470 N 
ATOM     10  C   LIG    1        1.047   1.752   0.163  0.00  0.00    +0.370 A 
ATOM     11  N   LIG    1        0.113   1.185  -0.553  0.00  0.00    -0.290 NA
ATOM     12  N   LIG    1        0.261  -0.091  -0.541  0.00  0.00    -0.280 NA
ATOM     13  C   LIG    1        1.305  -0.410   0.191  0.00  0.00    +0.220 A 
BRANCH   9  15
ATOM     14  C   LIG    1        4.269   1.015   0.655  0.00  0.00    +0.040 C 
ATOM     15  C   LIG    1        3.011   0.916   1.522  0.00  0.00    +0.290 C 
ENDBRANCH   9  15
ENDBRANCH   3  13
ENDBRANCH   1   7
BRANCH   1  16
ATOM     16  C   LIG    1        5.376  -4.788   1.894  0.00  0.00    +0.330 C 
BRANCH  16  17
ATOM     17  C   LIG    1        6.799  -4.718   2.385  0.00  0.00    -0.110 A 
ATOM     18  C   LIG    1        7.843  -4.971   1.517  0.00  0.00    +0.050 A 
ATOM     19  C   LIG    1        9.149  -4.902   1.965  0.00  0.00    +0.000 A 
ATOM     20  C   LIG    1        9.414  -4.591   3.286  0.00  0.00    +0.060 A 
ATOM     21  C   LIG    1        8.374  -4.342   4.161  0.00  0.00    -0.020 A 
ATOM     22  C   LIG    1        7.062  -4.405   3.712  0.00  0.00    +0.180 A 
BRANCH  22  23
ATOM     23  N   LIG    1        6.004  -4.154   4.598  0.00  0.00    -0.330 N 
ATOM     24  C   LIG    1        6.120  -3.846   5.909  0.00  0.00    +0.230 A 
ATOM     25  C   LIG    1        4.872  -3.678   6.404  0.00  0.00    -0.110 A 
ATOM     26  C   LIG    1        3.963  -3.899   5.364  0.00  0.00    +0.240 A 
ATOM     27  N   LIG    1        4.640  -4.184   4.282  0.00  0.00    -0.270 NA
ENDBRANCH  22  23
ENDBRANCH  16  17
ENDBRANCH   1  16
TORSDOF 6
