REMARK  Name = ZINCrH000004tJJZ.0
REMARK                            x       y       z     vdW  Elec       q    Type
REMARK                         _______ _______ _______ _____ _____    ______ ____
ROOT
ATOM      1  C   LIG    1       -2.421   0.673   0.008  0.00  0.00    -0.090 A 
ATOM      2  C   LIG    1       -2.946   0.219  -1.187  0.00  0.00    +0.010 A 
ATOM      3  C   LIG    1       -3.980  -0.700  -1.187  0.00  0.00    +0.030 A 
ATOM      4  C   LIG    1       -4.498  -1.158   0.008  0.00  0.00    +0.030 A 
ATOM      5  C   LIG    1       -3.976  -0.699   1.211  0.00  0.00    +0.160 A 
ATOM      6  C   LIG    1       -2.935   0.219   1.207  0.00  0.00    +0.000 A 
ENDROOT
BRANCH   5   7
ATOM      7  N   LIG    1       -4.499  -1.161   2.424  0.00  0.00    -0.680 N 
ATOM      8  H   LIG    1       -3.914  -1.290   3.187  0.00  0.00    +0.410 HD
ATOM      9  C   LIG    1       -5.816  -1.428   2.532  0.00  0.00    +0.720 C 
ATOM     10  N   LIG    1       -6.336  -1.783   3.723  0.00  0.00    -0.630 N 
ATOM     11  C   LIG    1       -5.584  -1.924   4.979  0.00  0.00    +0.230 C 
ATOM     12  C   LIG    1       -6.586  -2.369   6.065  0.00  0.00    +0.040 C 
ATOM     13  C   LIG    1       -7.732  -3.008   5.238  0.00  0.00    +0.030 C 
ATOM     14  C   LIG    1       -7.752  -2.100   3.982  0.00  0.00    +0.270 C 
ATOM     15  O   LIG    1       -6.535  -1.347   1.554  0.00  0.00    -0.570 OA
ENDBRANCH   5   7
BRANCH   1  16
ATOM     16  C   LIG    1       -1.291   1.670   0.003  0.00  0.00    +0.320 C 
BRANCH  16  19
ATOM     17  O   LIG    1        1.127   2.862  -0.011  0.00  0.00    -0.540 OA
ATOM     18  C   LIG    1        1.146   1.649  -0.009  0.00  0.00    +0.510 C 
ATOM     19  N   LIG    1       -0.011   0.957   0.001  0.00  0.00    -0.730 N 
ATOM     20  H   LIG    1        0.004  -0.013   0.002  0.00  0.00    +0.400 HD
BRANCH  18  21
ATOM     21  C   LIG    1        2.462   0.916  -0.018  0.00  0.00    +0.060 C 
BRANCH  21  22
ATOM     22  C   LIG    1        3.610   1.928  -0.029  0.00  0.00    +0.110 C 
BRANCH  22  23
ATOM     23  C   LIG    1        4.926   1.195  -0.038  0.00  0.00    -0.120 A 
ATOM     24  C   LIG    1        5.622   1.038  -1.221  0.00  0.00    +0.040 A 
ATOM     25  C   LIG    1        6.830   0.366  -1.230  0.00  0.00    +0.000 A 
ATOM     26  C   LIG    1        7.343  -0.151  -0.055  0.00  0.00    +0.040 A 
ATOM     27  C   LIG    1        6.649   0.004   1.130  0.00  0.00    -0.010 A 
ATOM     28  C   LIG    1        5.442   0.683   1.141  0.00  0.00    +0.100 A 
ATOM     29  F   LIG    1        4.766   0.841   2.300  0.00  0.00    -0.140 F 
ENDBRANCH  22  23
ENDBRANCH  21  22
ENDBRANCH  18  21
ENDBRANCH  16  19
ENDBRANCH   1  16
TORSDOF 6
