REMARK  Name = ZINCvU0000000JSm.0
REMARK                            x       y       z     vdW  Elec       q    Type
REMARK                         _______ _______ _______ _____ _____    ______ ____
ROOT
ATOM      1  C   LIG    1        6.065  -0.671  -0.269  0.00  0.00    -0.150 A 
ATOM      2  C   LIG    1        6.090  -2.067  -0.272  0.00  0.00    +0.180 A 
ATOM      3  C   LIG    1        7.292  -2.732  -0.395  0.00  0.00    -0.690 A 
ATOM      4  C   LIG    1        8.473  -2.019  -0.506  0.00  0.00    +0.180 A 
ATOM      5  C   LIG    1        8.458  -0.636  -0.500  0.00  0.00    +0.020 A 
ATOM      6  C   LIG    1        7.261   0.043  -0.382  0.00  0.00    +0.070 A 
ATOM      7 CL   LIG    1        7.242   1.779  -0.373  0.00  0.00    -0.010 Cl
ENDROOT
BRANCH   1  10
ATOM      8  N   LIG    1        3.629  -0.644  -0.034  0.00  0.00    -0.660 N 
ATOM      9  H   LIG    1        3.649  -1.611   0.042  0.00  0.00    +0.410 HD
ATOM     10  C   LIG    1        4.781   0.048  -0.142  0.00  0.00    +0.560 C 
ATOM     11  O   LIG    1        4.762   1.264  -0.135  0.00  0.00    -0.490 OA
BRANCH   8  17
ATOM     12  C   LIG    1        1.288  -0.543   0.577  0.00  0.00    +0.100 A 
ATOM     13  C   LIG    1        0.079   0.131   0.578  0.00  0.00    -0.060 A 
ATOM     14  C   LIG    1       -0.021   1.373  -0.022  0.00  0.00    +0.040 A 
ATOM     15  C   LIG    1        1.084   1.946  -0.624  0.00  0.00    +0.000 A 
ATOM     16  C   LIG    1        2.295   1.279  -0.629  0.00  0.00    +0.060 A 
ATOM     17  C   LIG    1        2.403   0.033  -0.030  0.00  0.00    +0.120 A 
BRANCH  12  18
ATOM     18  O   LIG    1        1.388  -1.764   1.166  0.00  0.00    -0.320 OA
BRANCH  18  20
ATOM     19  C   LIG    1        0.510  -3.664   2.375  0.00  0.00    +0.070 C 
ATOM     20  C   LIG    1        0.205  -2.293   1.768  0.00  0.00    +0.180 C 
ENDBRANCH  18  20
ENDBRANCH  12  18
ENDBRANCH   8  17
ENDBRANCH   1  10
BRANCH   3  21
ATOM     21  S   LIG    1        7.325  -4.493  -0.405  0.00  0.00    +2.680 S 
ATOM     22  O   LIG    1        8.524  -4.869  -1.069  0.00  0.00    -0.940 OA
ATOM     23  O   LIG    1        6.037  -4.916  -0.830  0.00  0.00    -0.940 OA
BRANCH  21  24
ATOM     24  N   LIG    1        7.485  -4.989   1.167  0.00  0.00    -0.940 N 
BRANCH  24  25
ATOM     25  C   LIG    1        8.753  -5.076   1.746  0.00  0.00    +0.130 A 
ATOM     26  C   LIG    1        9.061  -4.313   2.865  0.00  0.00    +0.010 A 
ATOM     27  C   LIG    1       10.314  -4.404   3.438  0.00  0.00    +0.020 A 
ATOM     28  C   LIG    1       11.266  -5.246   2.893  0.00  0.00    +0.020 A 
ATOM     29  C   LIG    1       10.965  -6.003   1.775  0.00  0.00    +0.020 A 
ATOM     30  C   LIG    1        9.712  -5.920   1.200  0.00  0.00    +0.020 A 
ENDBRANCH  24  25
BRANCH  24  31
ATOM     31  C   LIG    1        6.297  -5.338   1.950  0.00  0.00    +0.300 C 
ATOM     32  C   LIG    1        6.066  -6.849   1.880  0.00  0.00    +0.020 C 
ENDBRANCH  24  31
ENDBRANCH  21  24
ENDBRANCH   3  21
TORSDOF 8
