REMARK  Name = ZINCrg00001JduSz.0
REMARK                            x       y       z     vdW  Elec       q    Type
REMARK                         _______ _______ _______ _____ _____    ______ ____
ROOT
ATOM      1  N   LIG    1        1.732   1.270  -0.731  0.00  0.00    -0.720 N 
ATOM      2  H   LIG    1        1.957   2.101  -0.283  0.00  0.00    +0.400 HD
ATOM      3  C   LIG    1        2.707   0.511  -1.270  0.00  0.00    +0.570 C 
ATOM      4  O   LIG    1        2.425  -0.530  -1.832  0.00  0.00    -0.540 OA
ENDROOT
BRANCH   1  10
ATOM      5  C   LIG    1       -2.215   0.256  -3.192  0.00  0.00    +0.550 C 
ATOM      6  N   LIG    1       -1.688   0.975  -2.181  0.00  0.00    -0.600 N 
ATOM      7  C   LIG    1       -2.535   1.449  -1.078  0.00  0.00    +0.250 C 
ATOM      8  C   LIG    1       -1.920   0.990   0.248  0.00  0.00    +0.180 C 
ATOM      9  C   LIG    1       -0.466   1.465   0.323  0.00  0.00    +0.050 C 
ATOM     10  C   LIG    1        0.335   0.841  -0.822  0.00  0.00    +0.250 C 
ATOM     11  C   LIG    1       -0.255   1.298  -2.160  0.00  0.00    +0.270 C 
ATOM     12  O   LIG    1       -3.381  -0.085  -3.152  0.00  0.00    -0.540 OA
BRANCH   5  14
ATOM     13  C   LIG    1       -1.922  -0.742  -5.385  0.00  0.00    +0.140 C 
ATOM     14  C   LIG    1       -1.379  -0.114  -4.345  0.00  0.00    -0.090 C 
ENDBRANCH   5  14
BRANCH   8  15
ATOM     15  O   LIG    1       -1.962  -0.436   0.325  0.00  0.00    -0.560 OA
ATOM     16  H   LIG    1       -2.854  -0.806   0.281  0.00  0.00    +0.380 HD
ENDBRANCH   8  15
ENDBRANCH   1  10
BRANCH   3  17
ATOM     17  C   LIG    1        4.114   0.943  -1.179  0.00  0.00    -0.180 A 
ATOM     18  C   LIG    1        4.433   2.189  -0.635  0.00  0.00    +0.060 A 
ATOM     19  C   LIG    1        5.750   2.587  -0.552  0.00  0.00    -0.020 A 
ATOM     20  C   LIG    1        6.761   1.756  -1.006  0.00  0.00    +0.060 A 
ATOM     21  C   LIG    1        6.462   0.521  -1.546  0.00  0.00    +0.010 A 
ATOM     22  C   LIG    1        5.141   0.101  -1.632  0.00  0.00    +0.230 A 
BRANCH  22  23
ATOM     23  N   LIG    1        4.838  -1.146  -2.171  0.00  0.00    -0.670 N 
ATOM     24  H   LIG    1        4.087  -1.654  -1.826  0.00  0.00    +0.420 HD
ATOM     25  C   LIG    1        5.587  -1.649  -3.173  0.00  0.00    +0.710 C 
ATOM     26  N   LIG    1        5.235  -2.809  -3.761  0.00  0.00    -0.730 N 
ATOM     27  H   LIG    1        4.443  -3.283  -3.464  0.00  0.00    +0.400 HD
ATOM     28  O   LIG    1        6.580  -1.055  -3.545  0.00  0.00    -0.580 OA
BRANCH  26  29
ATOM     29  C   LIG    1        6.050  -3.355  -4.849  0.00  0.00    +0.240 C 
ATOM     30  C   LIG    1        5.620  -2.722  -6.175  0.00  0.00    +0.020 C 
ATOM     31  C   LIG    1        5.856  -4.871  -4.921  0.00  0.00    +0.040 C 
ENDBRANCH  26  29
ENDBRANCH  22  23
ENDBRANCH   3  17
TORSDOF 6
