REMARK  Name = ZINCpk00000ebcHx.0
REMARK                            x       y       z     vdW  Elec       q    Type
REMARK                         _______ _______ _______ _____ _____    ______ ____
ROOT
ATOM      1  N   LIG    1       -0.701   1.560   1.216  0.00  0.00    -0.530 NA
ATOM      2  C   LIG    1       -0.013   1.086   0.008  0.00  0.00    +0.170 C 
ATOM      3  C   LIG    1       -0.755   1.594  -1.233  0.00  0.00    +0.300 C 
ATOM      4  N   LIG    1       -0.893   3.055  -1.129  0.00  0.00    -0.610 N 
ATOM      5  C   LIG    1       -1.450   3.614   0.112  0.00  0.00    +0.280 C 
ATOM      6  C   LIG    1       -0.519   3.859  -2.143  0.00  0.00    +0.550 C 
ATOM      7  O   LIG    1       -0.061   3.380  -3.159  0.00  0.00    -0.540 OA
ATOM      8  C   LIG    1       -0.681   3.026   1.300  0.00  0.00    +0.170 C 
ENDROOT
BRANCH   6   9
ATOM      9  C   LIG    1       -0.670   5.353  -2.015  0.00  0.00    -0.070 C 
ATOM     10  C   LIG    1       -1.718   6.035  -2.897  0.00  0.00    +0.070 C 
ATOM     11  C   LIG    1       -0.229   6.211  -3.203  0.00  0.00    +0.090 C 
BRANCH  11  12
ATOM     12  C   LIG    1        0.390   7.552  -2.900  0.00  0.00    -0.210 A 
ATOM     13  C   LIG    1        1.636   7.950  -3.248  0.00  0.00    +0.250 A 
ATOM     14  N   LIG    1        1.806   9.210  -2.795  0.00  0.00    -0.380 N 
ATOM     15  N   LIG    1        0.627   9.598  -2.146  0.00  0.00    -0.290 NA
ATOM     16  C   LIG    1        3.012  10.026  -2.952  0.00  0.00    +0.360 C 
ATOM     17  C   LIG    1       -0.223   8.606  -2.215  0.00  0.00    +0.230 A 
ENDBRANCH  11  12
ENDBRANCH   6   9
BRANCH   1  18
ATOM     18  C   LIG    1       -0.123   0.955   2.423  0.00  0.00    +0.280 C 
BRANCH  18  25
ATOM     19  C   LIG    1        1.079   3.544   3.965  0.00  0.00    +0.160 C 
ATOM     20  C   LIG    1       -0.162   2.768   4.322  0.00  0.00    +0.020 A 
ATOM     21  N   LIG    1       -0.972   3.005   5.313  0.00  0.00    -0.360 NA
ATOM     22  O   LIG    1       -1.879   2.207   5.347  0.00  0.00    +0.100 OA
ATOM     23  C   LIG    1       -1.789   1.315   4.351  0.00  0.00    -0.010 A 
ATOM     24  C   LIG    1       -2.735   0.176   4.071  0.00  0.00    +0.190 C 
ATOM     25  C   LIG    1       -0.680   1.641   3.644  0.00  0.00    -0.210 A 
ENDBRANCH  18  25
ENDBRANCH   1  18
TORSDOF 4
