REMARK  Name = ZINCtV00001bB3k2.0
REMARK                            x       y       z     vdW  Elec       q    Type
REMARK                         _______ _______ _______ _____ _____    ______ ____
ROOT
ATOM      1  C   LIG    1       -1.014   3.200  -1.830  0.00  0.00    +0.350 C 
ENDROOT
BRANCH   1   2
ATOM      2  C   LIG    1       -2.051   3.276  -0.739  0.00  0.00    -0.080 A 
ATOM      3  C   LIG    1       -2.929   4.340  -0.693  0.00  0.00    +0.010 A 
ATOM      4  C   LIG    1       -3.881   4.412   0.307  0.00  0.00    +0.010 A 
ATOM      5  C   LIG    1       -3.960   3.419   1.266  0.00  0.00    +0.000 A 
ATOM      6  C   LIG    1       -3.091   2.347   1.227  0.00  0.00    +0.020 A 
ATOM      7  C   LIG    1       -2.126   2.272   0.225  0.00  0.00    -0.030 A 
BRANCH   7   8
ATOM      8  C   LIG    1       -1.186   1.125   0.180  0.00  0.00    -0.060 A 
ATOM      9  C   LIG    1       -1.647  -0.144  -0.160  0.00  0.00    +0.020 A 
ATOM     10  C   LIG    1       -0.767  -1.207  -0.205  0.00  0.00    -0.010 A 
ATOM     11  C   LIG    1        0.571  -1.012   0.086  0.00  0.00    -0.080 A 
ATOM     12  C   LIG    1        1.035   0.246   0.424  0.00  0.00    +0.000 A 
ATOM     13  C   LIG    1        1.527  -2.176   0.035  0.00  0.00    +0.090 C 
ATOM     14  C   LIG    1        0.164   1.315   0.472  0.00  0.00    -0.060 A 
ATOM     15  C   LIG    1        0.670   2.686   0.840  0.00  0.00    +0.090 C 
ENDBRANCH   7   8
ENDBRANCH   1   2
BRANCH   1  16
ATOM     16  N   LIG    1       -1.200   4.316  -2.760  0.00  0.00    -0.570 N 
ATOM     17  C   LIG    1       -0.663   5.521  -2.482  0.00  0.00    +0.550 C 
ATOM     18  O   LIG    1        0.049   5.660  -1.506  0.00  0.00    -0.520 OA
BRANCH  16  21
ATOM     19  C   LIG    1       -2.131   3.214  -6.151  0.00  0.00    +0.040 A 
ATOM     20  C   LIG    1       -1.396   3.395  -4.981  0.00  0.00    +0.060 A 
ATOM     21  C   LIG    1       -1.934   4.131  -3.936  0.00  0.00    +0.140 A 
ATOM     22  C   LIG    1       -3.205   4.681  -4.055  0.00  0.00    +0.040 A 
ATOM     23  C   LIG    1       -3.932   4.506  -5.218  0.00  0.00    +0.060 A 
ATOM     24  C   LIG    1       -3.405   3.775  -6.264  0.00  0.00    -0.020 A 
ATOM     25 CL   LIG    1       -4.326   3.552  -7.718  0.00  0.00    -0.050 Cl
BRANCH  19  27
ATOM     26  C   LIG    1       -1.131   1.833  -8.122  0.00  0.00    +0.090 C 
ATOM     27  C   LIG    1       -1.581   2.455  -7.234  0.00  0.00    -0.170 C 
ENDBRANCH  19  27
ENDBRANCH  16  21
BRANCH  17  28
ATOM     28  C   LIG    1       -0.939   6.668  -3.360  0.00  0.00    -0.100 C 
ATOM     29  C   LIG    1       -0.370   7.846  -3.114  0.00  0.00    +0.160 C 
ENDBRANCH  17  28
ENDBRANCH   1  16
TORSDOF 6
