REMARK  Name = ZINCqH0000038LcO.0
REMARK                            x       y       z     vdW  Elec       q    Type
REMARK                         _______ _______ _______ _____ _____    ______ ____
ROOT
ATOM      1  C   LIG    1       -2.929   4.572   0.054  0.00  0.00    +0.520 C 
ATOM      2  N   LIG    1       -1.590   4.726   0.042  0.00  0.00    -0.650 N 
ATOM      3  H   LIG    1       -1.204   5.616   0.043  0.00  0.00    +0.410 HD
ATOM      4  O   LIG    1       -3.411   3.459   0.053  0.00  0.00    -0.490 OA
ENDROOT
BRANCH   2   5
ATOM      5  C   LIG    1       -0.759   3.606   0.029  0.00  0.00    +0.300 A 
ATOM      6  C   LIG    1       -1.162   2.306   0.019  0.00  0.00    -0.100 A 
ATOM      7  C   LIG    1       -0.018   1.503   0.010  0.00  0.00    +0.100 A 
ATOM      8  N   LIG    1        1.032   2.283   0.004  0.00  0.00    -0.290 NA
ATOM      9  N   LIG    1        0.594   3.614   0.016  0.00  0.00    -0.390 N 
ATOM     10  C   LIG    1        1.449   4.803   0.015  0.00  0.00    +0.340 C 
BRANCH   7  11
ATOM     11  C   LIG    1        0.002  -0.004   0.002  0.00  0.00    +0.080 C 
ATOM     12  C   LIG    1       -1.215  -0.545  -0.777  0.00  0.00    +0.030 C 
ATOM     13  C   LIG    1       -1.638  -1.810   0.011  0.00  0.00    +0.020 C 
ATOM     14  C   LIG    1       -1.409  -1.389   1.484  0.00  0.00    +0.020 C 
ATOM     15  C   LIG    1       -0.121  -0.541   1.439  0.00  0.00    +0.020 C 
ENDBRANCH   7  11
ENDBRANCH   2   5
BRANCH   1  16
ATOM     16  C   LIG    1       -3.826   5.783   0.068  0.00  0.00    +0.160 C 
BRANCH  16  23
ATOM     17  C   LIG    1       -5.635   5.261  -2.481  0.00  0.00    +0.140 C 
ATOM     18  C   LIG    1       -6.066   5.109  -1.044  0.00  0.00    +0.090 A 
ATOM     19  N   LIG    1       -7.250   4.736  -0.634  0.00  0.00    -0.290 NA
ATOM     20  N   LIG    1       -7.246   4.726   0.767  0.00  0.00    -0.360 N 
ATOM     21  C   LIG    1       -6.017   5.101   1.180  0.00  0.00    +0.110 A 
ATOM     22  C   LIG    1       -5.562   5.230   2.611  0.00  0.00    +0.130 C 
ATOM     23  C   LIG    1       -5.266   5.340   0.080  0.00  0.00    -0.230 A 
BRANCH  20  24
ATOM     24  C   LIG    1       -8.375   4.372   1.630  0.00  0.00    +0.330 C 
BRANCH  24  25
ATOM     25  C   LIG    1       -9.192   5.628   1.942  0.00  0.00    -0.030 C 
ATOM     26  C   LIG    1       -8.342   6.598   2.764  0.00  0.00    +0.030 C 
ATOM     27  C   LIG    1      -10.439   5.240   2.739  0.00  0.00    +0.030 C 
ENDBRANCH  24  25
ENDBRANCH  20  24
ENDBRANCH  16  23
ENDBRANCH   1  16
TORSDOF 6
