REMARK  Name = ZINCnE000001SaTT.0
REMARK                            x       y       z     vdW  Elec       q    Type
REMARK                         _______ _______ _______ _____ _____    ______ ____
ROOT
ATOM      1  S   LIG    1       -0.020   1.652   0.011  0.00  0.00    +2.560 S 
ATOM      2  O   LIG    1       -0.818   2.117  -1.069  0.00  0.00    -1.000 OA
ATOM      3  O   LIG    1        1.379   1.896   0.047  0.00  0.00    -1.020 OA
ENDROOT
BRANCH   1   4
ATOM      4  C   LIG    1       -0.783   2.085   1.599  0.00  0.00    -0.450 C 
ATOM      5  C   LIG    1       -2.193   1.495   1.665  0.00  0.00    +0.080 C 
ATOM      6  C   LIG    1       -3.038   2.061   0.522  0.00  0.00    +0.050 C 
ATOM      7  C   LIG    1       -3.116   3.583   0.651  0.00  0.00    -0.020 C 
ATOM      8  C   LIG    1       -1.706   4.174   0.585  0.00  0.00    +0.030 C 
ATOM      9  C   LIG    1       -0.862   3.608   1.728  0.00  0.00    +0.060 C 
BRANCH   7  10
ATOM     10  C   LIG    1       -3.961   4.149  -0.492  0.00  0.00    +0.450 C 
ATOM     11  F   LIG    1       -4.032   5.542  -0.374  0.00  0.00    -0.190 F 
ATOM     12  F   LIG    1       -5.250   3.609  -0.431  0.00  0.00    -0.190 F 
ATOM     13  F   LIG    1       -3.372   3.815  -1.716  0.00  0.00    -0.170 F 
ENDBRANCH   7  10
ENDBRANCH   1   4
BRANCH   1  16
ATOM     14  O   LIG    1        0.856  -0.043  -2.050  0.00  0.00    -0.620 OA
ATOM     15  C   LIG    1        0.334  -0.657  -1.144  0.00  0.00    +0.530 C 
ATOM     16  N   LIG    1       -0.145   0.003  -0.070  0.00  0.00    -1.130 NA
BRANCH  15  17
ATOM     17  C   LIG    1        0.221  -2.158  -1.218  0.00  0.00    +0.080 C 
BRANCH  17  18
ATOM     18  C   LIG    1        0.827  -2.644  -2.509  0.00  0.00    -0.080 C 
ATOM     19  C   LIG    1        2.063  -3.031  -2.491  0.00  0.00    -0.080 C 
ATOM     20  C   LIG    1        2.804  -3.535  -3.695  0.00  0.00    +0.050 C 
ATOM     21  C   LIG    1        1.817  -3.913  -4.802  0.00  0.00    +0.000 C 
ATOM     22  C   LIG    1        0.832  -2.752  -4.991  0.00  0.00    +0.010 C 
ATOM     23  C   LIG    1       -0.036  -2.645  -3.736  0.00  0.00    +0.060 C 
ENDBRANCH  17  18
ENDBRANCH  15  17
ENDBRANCH   1  16
TORSDOF 5
