REMARK  Name = ZINCtV000002ETYB.0
REMARK                            x       y       z     vdW  Elec       q    Type
REMARK                         _______ _______ _______ _____ _____    ______ ____
ROOT
ATOM      1  C   LIG    1       -4.824  -4.229  -0.404  0.00  0.00    +0.190 A 
ATOM      2  C   LIG    1       -4.852  -2.837  -0.402  0.00  0.00    -0.010 A 
ATOM      3  C   LIG    1       -3.679  -2.124  -0.300  0.00  0.00    +0.110 A 
ATOM      4  C   LIG    1       -2.459  -2.799  -0.198  0.00  0.00    -0.140 A 
ATOM      5  C   LIG    1       -2.434  -4.197  -0.206  0.00  0.00    +0.180 A 
ATOM      6  C   LIG    1       -3.610  -4.904  -0.302  0.00  0.00    -0.030 A 
ENDROOT
BRANCH   1  12
ATOM      7  C   LIG    1       -9.102  -5.187   1.679  0.00  0.00    +0.020 C 
ATOM      8  C   LIG    1       -8.146  -5.535   0.537  0.00  0.00    +0.000 C 
ATOM      9  C   LIG    1       -8.857  -5.332  -0.804  0.00  0.00    +0.020 C 
ATOM     10  C   LIG    1       -7.876  -5.626  -1.942  0.00  0.00    +0.000 C 
ATOM     11  C   LIG    1       -6.655  -4.713  -1.806  0.00  0.00    +0.190 C 
ATOM     12  N   LIG    1       -6.010  -4.946  -0.508  0.00  0.00    -0.500 N 
ATOM     13  C   LIG    1       -8.560  -5.366  -3.286  0.00  0.00    +0.020 C 
ATOM     14  C   LIG    1       -6.918  -4.625   0.601  0.00  0.00    +0.190 C 
ENDBRANCH   1  12
BRANCH   4  15
ATOM     15  C   LIG    1       -1.200  -2.037  -0.088  0.00  0.00    +0.570 C 
ATOM     16  N   LIG    1       -1.226  -0.690  -0.086  0.00  0.00    -0.660 N 
ATOM     17  H   LIG    1       -2.075  -0.221  -0.077  0.00  0.00    +0.420 HD
ATOM     18  O   LIG    1       -0.140  -2.626   0.000  0.00  0.00    -0.490 OA
BRANCH  16  19
ATOM     19  C   LIG    1       -0.027   0.033  -0.097  0.00  0.00    +0.180 A 
ATOM     20  C   LIG    1        1.129  -0.546  -0.600  0.00  0.00    +0.080 A 
ATOM     21  C   LIG    1        2.312   0.170  -0.610  0.00  0.00    -0.000 A 
ATOM     22  C   LIG    1        2.343   1.463  -0.117  0.00  0.00    -0.040 A 
ATOM     23  C   LIG    1        1.192   2.043   0.385  0.00  0.00    +0.100 A 
ATOM     24 CL   LIG    1        3.830   2.360  -0.131  0.00  0.00    -0.030 Cl
ATOM     25 CL   LIG    1        3.759  -0.554  -1.240  0.00  0.00    -0.030 Cl
ATOM     26  C   LIG    1        0.007   1.332   0.397  0.00  0.00    -0.060 A 
ATOM     27 CL   LIG    1       -1.439   2.062   1.022  0.00  0.00    -0.040 Cl
ENDBRANCH  16  19
ENDBRANCH   4  15
BRANCH   6  28
ATOM     28  N   LIG    1       -3.585  -6.384  -0.305  0.00  0.00    +0.030 N 
ATOM     29  O   LIG    1       -4.629  -7.011  -0.301  0.00  0.00    -0.090 OA
ATOM     30  O   LIG    1       -2.520  -6.975  -0.311  0.00  0.00    -0.190 OA
ENDBRANCH   6  28
TORSDOF 4
