REMARK  Name = ZINCb80000002lSq.1
REMARK                            x       y       z     vdW  Elec       q    Type
REMARK                         _______ _______ _______ _____ _____    ______ ____
ROOT
ATOM      1  C   LIG    1        1.296   1.457   0.007  0.00  0.00    +0.100 C 
ATOM      2  N   LIG    1       -0.074   0.940   0.124  0.00  0.00    -0.670 NA
ATOM      3  H   LIG    1       -0.075  -0.067   0.199  0.00  0.00    +0.350 HD
ATOM      4  C   LIG    1       -0.884   1.384  -1.021  0.00  0.00    +0.180 C 
ATOM      5  C   LIG    1       -1.105   2.894  -0.910  0.00  0.00    +0.260 C 
ATOM      6  N   LIG    1        0.170   3.571  -0.689  0.00  0.00    -0.720 N 
ATOM      7  H   LIG    1        0.225   4.524  -0.863  0.00  0.00    +0.400 HD
ATOM      8  C   LIG    1        2.009   0.752  -1.149  0.00  0.00    +0.020 C 
ATOM      9  C   LIG    1        1.265   2.936  -0.258  0.00  0.00    +0.530 C 
ATOM     10  O   LIG    1        2.275   3.581  -0.071  0.00  0.00    -0.540 OA
ENDROOT
BRANCH   1  11
ATOM     11  C   LIG    1        2.053   1.190   1.309  0.00  0.00    +0.050 C 
BRANCH  11  13
ATOM     12  C   LIG    1        2.039   1.532   3.784  0.00  0.00    +0.000 C 
ATOM     13  C   LIG    1        1.274   1.785   2.484  0.00  0.00    +0.000 C 
ENDBRANCH  11  13
ENDBRANCH   1  11
TORSDOF 2
