REMARK  Name = ZINCvU00000006kx.0
REMARK                            x       y       z     vdW  Elec       q    Type
REMARK                         _______ _______ _______ _____ _____    ______ ____
ROOT
ATOM      1  C   LIG    1        2.465   5.495   0.008  0.00  0.00    -0.200 A 
ATOM      2  C   LIG    1        2.372   4.129   0.002  0.00  0.00    +0.050 A 
ATOM      3  S   LIG    1        3.921   3.421  -0.010  0.00  0.00    +0.310 S 
ATOM      4  C   LIG    1        4.726   4.981  -0.016  0.00  0.00    -0.250 A 
ATOM      5  C   LIG    1        6.230   5.181  -0.029  0.00  0.00    +0.120 C 
ATOM      6  C   LIG    1        6.539   6.620   0.392  0.00  0.00    +0.000 C 
ATOM      7  C   LIG    1        5.678   7.579  -0.436  0.00  0.00    +0.030 C 
ATOM      8  C   LIG    1        4.218   7.449   0.003  0.00  0.00    +0.090 C 
ATOM      9  C   LIG    1        3.834   5.978  -0.002  0.00  0.00    -0.040 A 
ENDROOT
BRANCH   2  10
ATOM     10  N   LIG    1        1.183   3.421   0.009  0.00  0.00    -0.630 N 
ATOM     11  H   LIG    1        0.337   3.894   0.020  0.00  0.00    +0.420 HD
ATOM     12  C   LIG    1        1.201   2.073   0.002  0.00  0.00    +0.550 C 
ATOM     13  O   LIG    1        2.264   1.479  -0.012  0.00  0.00    -0.510 OA
BRANCH  12  14
ATOM     14  C   LIG    1       -0.016   1.348   0.009  0.00  0.00    -0.130 C 
ATOM     15  C   LIG    1        0.002  -0.004   0.002  0.00  0.00    +0.190 C 
BRANCH  15  16
ATOM     16  C   LIG    1       -1.258  -0.755   0.010  0.00  0.00    -0.160 A 
ATOM     17  C   LIG    1       -2.482  -0.075   0.031  0.00  0.00    +0.130 A 
ATOM     18  C   LIG    1       -3.662  -0.783   0.032  0.00  0.00    -0.110 A 
ATOM     19  C   LIG    1       -3.644  -2.175   0.025  0.00  0.00    +0.190 A 
ATOM     20  C   LIG    1       -2.437  -2.860   0.010  0.00  0.00    -0.110 A 
ATOM     21  C   LIG    1       -1.243  -2.161   0.002  0.00  0.00    +0.200 A 
BRANCH  19  22
ATOM     22  O   LIG    1       -4.812  -2.865   0.032  0.00  0.00    -0.310 OA
ATOM     23  C   LIG    1       -6.018  -2.099   0.047  0.00  0.00    +0.250 C 
ENDBRANCH  19  22
BRANCH  21  24
ATOM     24  O   LIG    1       -0.062  -2.829  -0.012  0.00  0.00    -0.300 OA
ATOM     25  C   LIG    1       -0.125  -4.256  -0.019  0.00  0.00    +0.250 C 
ENDBRANCH  21  24
ENDBRANCH  15  16
ENDBRANCH  12  14
ENDBRANCH   2  10
BRANCH   1  26
ATOM     26  C   LIG    1        1.299   6.380   0.025  0.00  0.00    +0.540 C 
ATOM     27  O   LIG    1        0.825   6.742   1.085  0.00  0.00    -0.490 OA
BRANCH  26  28
ATOM     28  O   LIG    1        0.750   6.794  -1.136  0.00  0.00    -0.350 OA
BRANCH  28  30
ATOM     29  C   LIG    1       -0.883   8.033  -2.451  0.00  0.00    +0.070 C 
ATOM     30  C   LIG    1       -0.404   7.671  -1.044  0.00  0.00    +0.200 C 
ENDBRANCH  28  30
ENDBRANCH  26  28
ENDBRANCH   1  26
BRANCH   6  31
ATOM     31  C   LIG    1        8.020   6.918   0.145  0.00  0.00    +0.000 C 
ATOM     32  C   LIG    1        8.876   6.037   1.057  0.00  0.00    +0.000 C 
ENDBRANCH   6  31
TORSDOF 9
