REMARK  Name = ZINCrg000000oju3.0
REMARK                            x       y       z     vdW  Elec       q    Type
REMARK                         _______ _______ _______ _____ _____    ______ ____
ROOT
ATOM      1  N   LIG    1       -0.721   1.571  -1.179  0.00  0.00    -0.610 N 
ATOM      2  C   LIG    1       -0.386   2.756  -1.726  0.00  0.00    +0.530 C 
ATOM      3  O   LIG    1        0.502   3.421  -1.236  0.00  0.00    -0.530 OA
ATOM      4  C   LIG    1       -1.794   0.768  -1.771  0.00  0.00    +0.280 C 
ENDROOT
BRANCH   2   5
ATOM      5  C   LIG    1       -1.115   3.256  -2.947  0.00  0.00    +0.000 C 
ATOM      6  C   LIG    1       -2.605   3.525  -2.631  0.00  0.00    +0.080 C 
ATOM      7  C   LIG    1       -2.938   4.759  -3.439  0.00  0.00    +0.520 C 
ATOM      8  N   LIG    1       -1.809   5.373  -3.833  0.00  0.00    -0.610 N 
ATOM      9  O   LIG    1       -4.061   5.139  -3.695  0.00  0.00    -0.520 OA
ATOM     10  C   LIG    1       -0.619   4.662  -3.351  0.00  0.00    +0.310 C 
BRANCH   8  11
ATOM     11  C   LIG    1       -1.771   6.594  -4.641  0.00  0.00    +0.280 C 
ATOM     12  C   LIG    1       -2.537   7.722  -3.928  0.00  0.00    +0.070 C 
ATOM     13  C   LIG    1       -2.774   8.869  -4.930  0.00  0.00    -0.310 C 
ATOM     14  S   LIG    1       -2.825   8.065  -6.572  0.00  0.00    +2.400 S 
ATOM     15  O   LIG    1       -4.146   8.135  -7.091  0.00  0.00    -0.930 OA
ATOM     16  O   LIG    1       -1.730   8.521  -7.354  0.00  0.00    -0.930 OA
ATOM     17  C   LIG    1       -2.489   6.358  -5.995  0.00  0.00    -0.320 C 
ENDBRANCH   8  11
ENDBRANCH   2   5
BRANCH   1  18
ATOM     18  C   LIG    1       -0.013   1.086   0.008  0.00  0.00    +0.340 C 
BRANCH  18  22
ATOM     19  C   LIG    1       -2.013   2.464   3.524  0.00  0.00    +0.140 A 
ATOM     20  C   LIG    1       -2.368   1.250   2.954  0.00  0.00    -0.030 A 
ATOM     21  C   LIG    1       -1.720   0.807   1.817  0.00  0.00    +0.070 A 
ATOM     22  C   LIG    1       -0.718   1.572   1.248  0.00  0.00    -0.150 A 
ATOM     23  C   LIG    1       -0.359   2.779   1.818  0.00  0.00    +0.080 A 
ATOM     24  C   LIG    1       -1.008   3.230   2.951  0.00  0.00    -0.080 A 
BRANCH  19  25
ATOM     25  O   LIG    1       -2.649   2.902   4.642  0.00  0.00    -0.320 OA
BRANCH  25  27
ATOM     26  C   LIG    1       -3.056   4.485   6.422  0.00  0.00    +0.070 C 
ATOM     27  C   LIG    1       -2.232   4.161   5.174  0.00  0.00    +0.170 C 
ENDBRANCH  25  27
ENDBRANCH  19  25
ENDBRANCH  18  22
ENDBRANCH   1  18
TORSDOF 6
