REMARK  Name = ZINCrH000004jrTk.0
REMARK                            x       y       z     vdW  Elec       q    Type
REMARK                         _______ _______ _______ _____ _____    ______ ____
ROOT
ATOM      1  C   LIG    1        3.775  -3.345   0.277  0.00  0.00    +0.520 C 
ATOM      2  N   LIG    1        5.037  -3.818   0.257  0.00  0.00    -0.670 N 
ATOM      3  H   LIG    1        5.786  -3.202   0.277  0.00  0.00    +0.420 HD
ATOM      4  O   LIG    1        2.838  -4.112   0.197  0.00  0.00    -0.490 OA
ENDROOT
BRANCH   1   7
ATOM      5  N   LIG    1        2.268  -1.404   0.419  0.00  0.00    -0.620 N 
ATOM      6  H   LIG    1        1.519  -2.017   0.354  0.00  0.00    +0.420 HD
ATOM      7  C   LIG    1        3.530  -1.877   0.399  0.00  0.00    +0.510 C 
ATOM      8  O   LIG    1        4.467  -1.110   0.479  0.00  0.00    -0.480 OA
BRANCH   5  14
ATOM      9  N   LIG    1        0.827   0.577   0.565  0.00  0.00    -0.380 N 
ATOM     10  N   LIG    1        1.047   1.955   0.685  0.00  0.00    -0.280 NA
ATOM     11  C   LIG    1        2.337   2.167   0.724  0.00  0.00    +0.080 A 
ATOM     12  C   LIG    1        2.990   0.935   0.629  0.00  0.00    -0.100 A 
ATOM     13  C   LIG    1        3.006   3.511   0.849  0.00  0.00    +0.160 C 
ATOM     14  C   LIG    1        2.039  -0.035   0.532  0.00  0.00    +0.300 A 
BRANCH   9  16
ATOM     15  C   LIG    1       -0.909  -0.195  -0.976  0.00  0.00    +0.040 C 
ATOM     16  C   LIG    1       -0.477  -0.086   0.488  0.00  0.00    +0.320 C 
ENDBRANCH   9  16
ENDBRANCH   5  14
ENDBRANCH   1   7
BRANCH   2  17
ATOM     17  C   LIG    1        5.277  -5.262   0.206  0.00  0.00    +0.160 C 
ATOM     18  C   LIG    1        4.628  -6.036   1.366  0.00  0.00    +0.030 C 
ATOM     19  C   LIG    1        5.932  -5.793   2.150  0.00  0.00    +0.010 C 
ATOM     20  C   LIG    1        6.637  -5.681   0.788  0.00  0.00    +0.050 C 
BRANCH  17  21
ATOM     21  C   LIG    1        4.987  -5.864  -1.170  0.00  0.00    +0.090 C 
BRANCH  21  22
ATOM     22  C   LIG    1        3.572  -5.537  -1.573  0.00  0.00    -0.030 A 
ATOM     23  C   LIG    1        2.535  -6.366  -1.189  0.00  0.00    +0.060 A 
ATOM     24  C   LIG    1        1.236  -6.063  -1.554  0.00  0.00    +0.040 A 
ATOM     25  C   LIG    1        0.975  -4.937  -2.314  0.00  0.00    -0.030 A 
ATOM     26  C   LIG    1        2.014  -4.110  -2.704  0.00  0.00    +0.030 A 
ATOM     27 CL   LIG    1       -0.655  -4.561  -2.777  0.00  0.00    -0.070 Cl
ATOM     28  C   LIG    1        3.312  -4.410  -2.334  0.00  0.00    -0.030 A 
ATOM     29 CL   LIG    1        4.616  -3.373  -2.822  0.00  0.00    -0.060 Cl
ENDBRANCH  21  22
ENDBRANCH  17  21
ENDBRANCH   2  17
TORSDOF 6
