REMARK  Name = ZINCqH0000038qA2.0
REMARK                            x       y       z     vdW  Elec       q    Type
REMARK                         _______ _______ _______ _____ _____    ______ ____
ROOT
ATOM      1  C   LIG    1        3.023  -5.839  -1.495  0.00  0.00    +0.010 C 
ENDROOT
BRANCH   1   2
ATOM      2  C   LIG    1        3.934  -7.068  -1.510  0.00  0.00    +0.260 C 
BRANCH   2   4
ATOM      3  C   LIG    1        4.883  -8.601  -3.149  0.00  0.00    +0.510 C 
ATOM      4  N   LIG    1        4.114  -7.525  -2.890  0.00  0.00    -0.740 N 
ATOM      5  H   LIG    1        3.680  -7.053  -3.618  0.00  0.00    +0.400 HD
ATOM      6  O   LIG    1        5.426  -9.191  -2.239  0.00  0.00    -0.530 OA
BRANCH   3   7
ATOM      7  C   LIG    1        5.069  -9.071  -4.569  0.00  0.00    +0.100 C 
BRANCH   7  14
ATOM      8  C   LIG    1        3.955 -11.700  -4.126  0.00  0.00    +0.080 C 
ATOM      9  C   LIG    1        5.433 -11.539  -4.372  0.00  0.00    -0.070 A 
ATOM     10  C   LIG    1        6.255 -12.650  -4.392  0.00  0.00    +0.000 A 
ATOM     11  C   LIG    1        7.612 -12.503  -4.612  0.00  0.00    +0.010 A 
ATOM     12  C   LIG    1        8.146 -11.244  -4.818  0.00  0.00    -0.010 A 
ATOM     13  C   LIG    1        7.323 -10.134  -4.805  0.00  0.00    +0.020 A 
ATOM     14  C   LIG    1        5.966 -10.281  -4.584  0.00  0.00    -0.070 A 
ENDBRANCH   7  14
ENDBRANCH   3   7
ENDBRANCH   2   4
ENDBRANCH   1   2
BRANCH   1  15
ATOM     15  C   LIG    1        2.834  -5.362  -0.053  0.00  0.00    +0.110 C 
BRANCH  15  16
ATOM     16  C   LIG    1        1.937  -4.151  -0.038  0.00  0.00    -0.220 A 
ATOM     17  C   LIG    1        2.342  -2.860  -0.035  0.00  0.00    +0.240 A 
ATOM     18  N   LIG    1        1.237  -2.082  -0.021  0.00  0.00    -0.320 N 
ATOM     19  N   LIG    1        0.118  -2.925  -0.008  0.00  0.00    -0.290 NA
ATOM     20  C   LIG    1        0.538  -4.164  -0.024  0.00  0.00    +0.090 A 
ATOM     21  C   LIG    1       -0.334  -5.393  -0.021  0.00  0.00    +0.160 C 
BRANCH  18  22
ATOM     22  C   LIG    1        1.214  -0.680  -0.013  0.00  0.00    +0.160 A 
ATOM     23  C   LIG    1        0.002  -0.004   0.002  0.00  0.00    +0.020 A 
ATOM     24  C   LIG    1       -0.017   1.377   0.010  0.00  0.00    +0.040 A 
ATOM     25  C   LIG    1        1.171   2.086   0.002  0.00  0.00    +0.000 A 
ATOM     26  C   LIG    1        2.380   1.415  -0.013  0.00  0.00    +0.040 A 
ATOM     27  C   LIG    1        2.405   0.034  -0.021  0.00  0.00    -0.010 A 
ENDBRANCH  18  22
ENDBRANCH  15  16
ENDBRANCH   1  15
TORSDOF 7
