REMARK  Name = ZINCpe00000VVH6N.0
REMARK                            x       y       z     vdW  Elec       q    Type
REMARK                         _______ _______ _______ _____ _____    ______ ____
ROOT
ATOM      1  C   LIG    1       -8.053  -1.042   2.122  0.00  0.00    +0.290 C 
ATOM      2  C   LIG    1       -6.760  -0.223   2.147  0.00  0.00    +0.190 C 
ATOM      3  N   LIG    1       -5.763  -0.915   2.975  0.00  0.00    -0.520 NA
ATOM      4  C   LIG    1       -5.495  -2.263   2.451  0.00  0.00    +0.160 C 
ATOM      5  C   LIG    1       -6.801  -3.062   2.424  0.00  0.00    +0.250 C 
ATOM      6  O   LIG    1       -7.768  -2.358   1.639  0.00  0.00    -0.390 OA
ENDROOT
BRANCH   1  10
ATOM      7  C   LIG    1      -10.482   0.011  -0.368  0.00  0.00    +0.180 A 
ATOM      8  N   LIG    1      -10.321   1.087   0.353  0.00  0.00    -0.280 NA
ATOM      9  N   LIG    1       -9.472   0.856   1.291  0.00  0.00    -0.280 NA
ATOM     10  C   LIG    1       -9.052  -0.377   1.210  0.00  0.00    +0.180 A 
ATOM     11  N   LIG    1       -9.678  -0.948   0.152  0.00  0.00    -0.560 N 
ATOM     12  H   LIG    1       -9.573  -1.858  -0.166  0.00  0.00    +0.430 HD
BRANCH   7  13
ATOM     13  C   LIG    1      -11.390  -0.137  -1.562  0.00  0.00    +0.150 C 
BRANCH  13  15
ATOM     14  C   LIG    1      -13.738   0.105  -2.381  0.00  0.00    +0.020 C 
ATOM     15  C   LIG    1      -12.816   0.255  -1.169  0.00  0.00    +0.020 C 
ENDBRANCH  13  15
ENDBRANCH   7  13
ENDBRANCH   1  10
BRANCH   3  16
ATOM     16  C   LIG    1       -4.523  -0.133   3.072  0.00  0.00    +0.220 C 
BRANCH  16  17
ATOM     17  C   LIG    1       -3.623  -0.744   4.115  0.00  0.00    +0.520 C 
ATOM     18  N   LIG    1       -2.374  -0.269   4.289  0.00  0.00    -0.730 N 
ATOM     19  H   LIG    1       -2.054   0.466   3.743  0.00  0.00    +0.400 HD
ATOM     20  O   LIG    1       -4.023  -1.663   4.798  0.00  0.00    -0.520 OA
BRANCH  18  21
ATOM     21  C   LIG    1       -1.499  -0.863   5.303  0.00  0.00    +0.330 C 
BRANCH  21  22
ATOM     22  C   LIG    1       -0.169  -0.156   5.295  0.00  0.00    -0.170 A 
ATOM     23  C   LIG    1        0.042   0.952   6.101  0.00  0.00    +0.080 A 
ATOM     24  C   LIG    1        1.285   1.568   6.064  0.00  0.00    -0.030 A 
ATOM     25  C   LIG    1        2.262   1.062   5.229  0.00  0.00    +0.270 A 
ATOM     26  N   LIG    1        2.024   0.009   4.472  0.00  0.00    -0.490 NA
ATOM     27  C   LIG    1        0.856  -0.601   4.480  0.00  0.00    +0.280 A 
ENDBRANCH  21  22
ENDBRANCH  18  21
ENDBRANCH  16  17
ENDBRANCH   3  16
TORSDOF 7
