REMARK  Name = ZINCpe00000VVH6N.1
REMARK                            x       y       z     vdW  Elec       q    Type
REMARK                         _______ _______ _______ _____ _____    ______ ____
ROOT
ATOM      1  C   LIG    1        0.814  -1.105   5.289  0.00  0.00    +0.300 C 
ATOM      2  C   LIG    1        0.244  -0.634   6.630  0.00  0.00    +0.180 C 
ATOM      3  N   LIG    1        0.058  -1.795   7.513  0.00  0.00    -0.520 NA
ATOM      4  C   LIG    1        1.332  -2.497   7.725  0.00  0.00    +0.160 C 
ATOM      5  C   LIG    1        1.890  -2.950   6.374  0.00  0.00    +0.250 C 
ATOM      6  O   LIG    1        2.035  -1.813   5.518  0.00  0.00    -0.370 OA
ENDROOT
BRANCH   1   9
ATOM      7  C   LIG    1        0.849   1.538   2.823  0.00  0.00    +0.290 A 
ATOM      8  N   LIG    1        0.337   0.465   3.369  0.00  0.00    -0.530 NA
ATOM      9  C   LIG    1        1.081   0.088   4.409  0.00  0.00    +0.230 A 
ATOM     10  N   LIG    1        2.075   0.925   4.544  0.00  0.00    -0.290 NA
ATOM     11  N   LIG    1        1.946   1.879   3.522  0.00  0.00    -0.480 N 
ATOM     12  H   LIG    1        2.531   2.633   3.353  0.00  0.00    +0.440 HD
BRANCH   7  13
ATOM     13  C   LIG    1        0.302   2.268   1.623  0.00  0.00    +0.160 C 
BRANCH  13  15
ATOM     14  C   LIG    1        0.459   2.522  -0.857  0.00  0.00    +0.030 C 
ATOM     15  C   LIG    1        1.015   1.781   0.361  0.00  0.00    +0.010 C 
ENDBRANCH  13  15
ENDBRANCH   7  13
ENDBRANCH   1   9
BRANCH   3  16
ATOM     16  C   LIG    1       -0.541  -1.392   8.792  0.00  0.00    +0.220 C 
BRANCH  16  17
ATOM     17  C   LIG    1       -1.946  -0.901   8.557  0.00  0.00    +0.510 C 
ATOM     18  N   LIG    1       -2.650  -0.359   9.571  0.00  0.00    -0.730 N 
ATOM     19  H   LIG    1       -2.252  -0.286  10.452  0.00  0.00    +0.400 HD
ATOM     20  O   LIG    1       -2.444  -0.993   7.455  0.00  0.00    -0.510 OA
BRANCH  18  21
ATOM     21  C   LIG    1       -4.015   0.119   9.341  0.00  0.00    +0.330 C 
BRANCH  21  22
ATOM     22  C   LIG    1       -4.575   0.674  10.626  0.00  0.00    -0.160 A 
ATOM     23  C   LIG    1       -5.266  -0.146  11.503  0.00  0.00    +0.080 A 
ATOM     24  C   LIG    1       -5.759   0.407  12.676  0.00  0.00    -0.030 A 
ATOM     25  C   LIG    1       -5.556   1.751  12.922  0.00  0.00    +0.270 A 
ATOM     26  N   LIG    1       -4.898   2.504  12.062  0.00  0.00    -0.480 NA
ATOM     27  C   LIG    1       -4.411   2.010  10.941  0.00  0.00    +0.280 A 
ENDBRANCH  21  22
ENDBRANCH  18  21
ENDBRANCH  16  17
ENDBRANCH   3  16
TORSDOF 7
