REMARK  Name = ZINCrD00000lcYf5.0
REMARK                            x       y       z     vdW  Elec       q    Type
REMARK                         _______ _______ _______ _____ _____    ______ ____
ROOT
ATOM      1  C   LIG    1       -1.506  10.034   0.373  0.00  0.00    -0.150 A 
ATOM      2  C   LIG    1       -2.502   9.273   0.991  0.00  0.00    +0.100 A 
ATOM      3  C   LIG    1       -2.470   7.900   0.905  0.00  0.00    -0.010 A 
ATOM      4  C   LIG    1       -1.448   7.268   0.204  0.00  0.00    +0.170 A 
ATOM      5  C   LIG    1       -0.451   8.023  -0.409  0.00  0.00    +0.010 A 
ATOM      6  C   LIG    1       -0.480   9.397  -0.331  0.00  0.00    +0.070 A 
ENDROOT
BRANCH   1   9
ATOM      7  C   LIG    1        0.887  11.518   0.213  0.00  0.00    +0.290 C 
ATOM      8  N   LIG    1       -0.396  12.214   0.335  0.00  0.00    -0.610 N 
ATOM      9  C   LIG    1       -1.536  11.507   0.463  0.00  0.00    +0.560 C 
ATOM     10  O   LIG    1       -2.590  12.082   0.654  0.00  0.00    -0.530 OA
BRANCH   8  11
ATOM     11  C   LIG    1       -0.440  13.678   0.316  0.00  0.00    +0.350 C 
BRANCH  11  12
ATOM     12  C   LIG    1       -0.310  14.202   1.723  0.00  0.00    -0.120 A 
ATOM     13  C   LIG    1       -1.441  14.413   2.488  0.00  0.00    +0.050 A 
ATOM     14  C   LIG    1       -1.324  14.889   3.780  0.00  0.00    -0.020 A 
ATOM     15  C   LIG    1       -0.070  15.165   4.305  0.00  0.00    +0.110 A 
ATOM     16  C   LIG    1        1.064  14.958   3.533  0.00  0.00    -0.020 A 
ATOM     17  C   LIG    1        0.941  14.477   2.244  0.00  0.00    +0.040 A 
BRANCH  15  18
ATOM     18  O   LIG    1        0.047  15.639   5.573  0.00  0.00    -0.500 OA
ATOM     19  H   LIG    1        0.026  16.604   5.636  0.00  0.00    +0.390 HD
ENDBRANCH  15  18
ENDBRANCH  11  12
ENDBRANCH   8  11
ENDBRANCH   1   9
BRANCH   4  20
ATOM     20  N   LIG    1       -1.418   5.878   0.119  0.00  0.00    -0.660 N 
ATOM     21  H   LIG    1       -1.743   5.340   0.858  0.00  0.00    +0.420 HD
ATOM     22  C   LIG    1       -0.939   5.280  -0.990  0.00  0.00    +0.580 C 
ATOM     23  O   LIG    1       -0.611   5.951  -1.948  0.00  0.00    -0.510 OA
BRANCH  22  24
ATOM     24  C   LIG    1       -0.812   3.805  -1.040  0.00  0.00    +0.070 A 
ATOM     25  C   LIG    1       -0.316   3.194  -2.189  0.00  0.00    +0.040 A 
ATOM     26  C   LIG    1       -0.203   1.812  -2.221  0.00  0.00    +0.070 A 
ATOM     27  C   LIG    1       -0.590   1.091  -1.103  0.00  0.00    +0.000 A 
ATOM     28  C   LIG    1       -1.080   1.766   0.005  0.00  0.00    +0.270 A 
ATOM     29  N   LIG    1       -1.171   3.078   0.010  0.00  0.00    -0.460 NA
ENDBRANCH  22  24
ENDBRANCH   4  20
TORSDOF 6
