REMARK  Name = ZINCrg000000tLZ5.0
REMARK                            x       y       z     vdW  Elec       q    Type
REMARK                         _______ _______ _______ _____ _____    ______ ____
ROOT
ATOM      1  C   LIG    1        2.209   1.275  -1.101  0.00  0.00    +0.010 C 
ATOM      2  C   LIG    1        1.435   2.003   0.001  0.00  0.00    +0.070 C 
ATOM      3  C   LIG    1       -0.019   1.511   0.012  0.00  0.00    +0.180 C 
ATOM      4  C   LIG    1       -0.003   0.003  -0.003  0.00  0.00    +0.190 A 
ATOM      5  N   LIG    1       -0.969  -0.820   0.278  0.00  0.00    -0.280 NA
ATOM      6  N   LIG    1       -0.560  -2.035   0.151  0.00  0.00    -0.270 NA
ATOM      7  C   LIG    1        0.704  -2.044  -0.223  0.00  0.00    +0.230 A 
ATOM      8  N   LIG    1        1.089  -0.744  -0.331  0.00  0.00    -0.460 N 
ATOM      9  C   LIG    1        2.389  -0.198  -0.717  0.00  0.00    +0.320 C 
ENDROOT
BRANCH   1  11
ATOM     10  O   LIG    1        4.066   2.523  -0.350  0.00  0.00    -0.480 OA
ATOM     11  C   LIG    1        3.561   1.918  -1.272  0.00  0.00    +0.550 C 
ATOM     12  N   LIG    1        4.210   1.821  -2.450  0.00  0.00    -0.530 N 
ATOM     13  C   LIG    1        5.578   2.344  -2.633  0.00  0.00    +0.310 C 
ATOM     14  C   LIG    1        5.647   3.078  -3.977  0.00  0.00    +0.060 C 
ATOM     15  C   LIG    1        5.367   2.096  -5.121  0.00  0.00    +0.340 C 
ATOM     16  N   LIG    1        4.157   1.341  -4.808  0.00  0.00    -0.390 N 
ATOM     17  N   LIG    1        3.311   0.612  -5.644  0.00  0.00    -0.050 NA
ATOM     18  N   LIG    1        2.376   0.130  -4.891  0.00  0.00    -0.020 NA
ATOM     19  N   LIG    1        2.558   0.486  -3.666  0.00  0.00    -0.340 NA
ATOM     20  C   LIG    1        3.630   1.217  -3.562  0.00  0.00    +0.460 A 
ENDBRANCH   1  11
BRANCH   7  21
ATOM     21  C   LIG    1        1.542  -3.237  -0.476  0.00  0.00    -0.020 A 
ATOM     22  C   LIG    1        2.928  -3.112  -0.565  0.00  0.00    +0.040 A 
ATOM     23  C   LIG    1        3.705  -4.229  -0.795  0.00  0.00    -0.010 A 
ATOM     24  C   LIG    1        3.110  -5.470  -0.949  0.00  0.00    +0.110 A 
ATOM     25  C   LIG    1        1.732  -5.598  -0.867  0.00  0.00    +0.000 A 
ATOM     26  F   LIG    1        3.874  -6.560  -1.179  0.00  0.00    -0.130 F 
ATOM     27  C   LIG    1        0.947  -4.489  -0.631  0.00  0.00    +0.110 A 
ENDBRANCH   7  21
TORSDOF 2
