REMARK  Name = ZINCvU0000000GWg.0
REMARK                            x       y       z     vdW  Elec       q    Type
REMARK                         _______ _______ _______ _____ _____    ______ ____
ROOT
ATOM      1  C   LIG    1       -0.058   1.358  -0.112  0.00  0.00    +0.530 C 
ATOM      2  N   LIG    1       -0.016   0.011  -0.068  0.00  0.00    -0.610 N 
ATOM      3  C   LIG    1        1.258  -0.709  -0.211  0.00  0.00    +0.300 C 
ATOM      4  C   LIG    1        1.553  -1.435   1.111  0.00  0.00    +0.120 C 
ATOM      5  C   LIG    1        0.295  -2.133   1.583  0.00  0.00    -0.170 A 
ATOM      6  C   LIG    1       -0.952  -1.852   1.159  0.00  0.00    -0.120 A 
ATOM      7  C   LIG    1       -1.937  -2.633   1.755  0.00  0.00    +0.030 A 
ATOM      8  C   LIG    1       -1.505  -3.530   2.636  0.00  0.00    -0.040 A 
ATOM      9  S   LIG    1        0.244  -3.432   2.768  0.00  0.00    +0.110 S 
ATOM     10  C   LIG    1       -1.243  -0.776   0.120  0.00  0.00    +0.390 C 
ATOM     11  O   LIG    1       -1.127   1.931  -0.105  0.00  0.00    -0.490 OA
ENDROOT
BRANCH  10  12
ATOM     12  C   LIG    1       -2.354   0.118   0.608  0.00  0.00    -0.150 A 
ATOM     13  C   LIG    1       -3.524   0.296  -0.006  0.00  0.00    +0.000 A 
ATOM     14  C   LIG    1       -4.391   1.167   0.631  0.00  0.00    +0.010 A 
ATOM     15  C   LIG    1       -3.925   1.696   1.764  0.00  0.00    -0.050 A 
ATOM     16  S   LIG    1       -2.308   1.080   2.080  0.00  0.00    +0.130 S 
ENDBRANCH  10  12
BRANCH   1  17
ATOM     17  C   LIG    1        1.222   2.150  -0.176  0.00  0.00    +0.100 C 
BRANCH  17  18
ATOM     18  S   LIG    1        0.836   3.917  -0.225  0.00  0.00    +0.090 S 
BRANCH  18  24
ATOM     19  N   LIG    1        2.800   5.910  -0.356  0.00  0.00    -0.420 N 
ATOM     20  C   LIG    1        4.169   5.944  -0.391  0.00  0.00    +0.200 A 
ATOM     21  N   LIG    1        4.588   4.710  -0.362  0.00  0.00    -0.280 NA
ATOM     22  N   LIG    1        3.588   3.904  -0.306  0.00  0.00    -0.290 NA
ATOM     23  C   LIG    1        5.031   7.178  -0.457  0.00  0.00    +0.200 C 
ATOM     24  C   LIG    1        2.465   4.585  -0.295  0.00  0.00    +0.140 A 
BRANCH  19  29
ATOM     25  C   LIG    1       -0.744  10.343  -0.430  0.00  0.00    +0.100 C 
ATOM     26  C   LIG    1        0.197   9.166  -0.410  0.00  0.00    -0.060 A 
ATOM     27  C   LIG    1        0.263   8.354   0.707  0.00  0.00    +0.030 A 
ATOM     28  C   LIG    1        1.124   7.274   0.728  0.00  0.00    +0.040 A 
ATOM     29  C   LIG    1        1.925   7.005  -0.374  0.00  0.00    +0.090 A 
ATOM     30  C   LIG    1        1.861   7.826  -1.492  0.00  0.00    +0.040 A 
ATOM     31  C   LIG    1        0.994   8.901  -1.509  0.00  0.00    +0.030 A 
ENDBRANCH  19  29
ENDBRANCH  18  24
ENDBRANCH  17  18
ENDBRANCH   1  17
TORSDOF 5
