REMARK  Name = ZINCrD000000COoz.0
REMARK                            x       y       z     vdW  Elec       q    Type
REMARK                         _______ _______ _______ _____ _____    ______ ____
ROOT
ATOM      1  O   LIG    1        2.438  -8.464   1.347  0.00  0.00    -0.510 OA
ATOM      2  C   LIG    1        2.476  -7.747   2.324  0.00  0.00    +0.510 C 
ATOM      3  C   LIG    1        2.996  -6.338   2.193  0.00  0.00    +0.340 C 
ATOM      4  N   LIG    1        2.344  -5.490   3.202  0.00  0.00    -0.560 N 
ATOM      5  C   LIG    1        2.187  -6.013   4.496  0.00  0.00    +0.110 A 
ATOM      6  C   LIG    1        2.162  -5.189   5.603  0.00  0.00    +0.060 A 
ATOM      7  C   LIG    1        2.004  -5.737   6.864  0.00  0.00    +0.010 A 
ATOM      8  C   LIG    1        1.867  -7.104   7.016  0.00  0.00    +0.030 A 
ATOM      9  C   LIG    1        1.883  -7.935   5.910  0.00  0.00    +0.000 A 
ATOM     10  C   LIG    1        2.039  -7.396   4.644  0.00  0.00    +0.130 A 
ATOM     11  C   LIG    1        1.916  -4.249   2.897  0.00  0.00    +0.520 C 
ATOM     12  O   LIG    1        1.381  -3.567   3.744  0.00  0.00    -0.480 OA
ATOM     13  N   LIG    1        2.053  -8.218   3.512  0.00  0.00    -0.650 N 
ATOM     14  H   LIG    1        1.755  -9.138   3.584  0.00  0.00    +0.420 HD
ENDROOT
BRANCH  11  15
ATOM     15  C   LIG    1        2.103  -3.710   1.502  0.00  0.00    +0.220 C 
BRANCH  15  16
ATOM     16  N   LIG    1        1.539  -2.356   1.421  0.00  0.00    -0.510 NA
BRANCH  16  17
ATOM     17  C   LIG    1        1.261  -1.983   0.028  0.00  0.00    +0.280 C 
BRANCH  17  18
ATOM     18  C   LIG    1        0.070  -2.761  -0.471  0.00  0.00    -0.180 A 
ATOM     19  C   LIG    1       -1.205  -2.419  -0.283  0.00  0.00    +0.030 A 
ATOM     20  C   LIG    1       -2.130  -3.289  -0.835  0.00  0.00    +0.010 A 
ATOM     21  C   LIG    1       -1.605  -4.337  -1.472  0.00  0.00    -0.040 A 
ATOM     22  S   LIG    1        0.150  -4.254  -1.397  0.00  0.00    +0.080 S 
ENDBRANCH  17  18
ENDBRANCH  16  17
BRANCH  16  23
ATOM     23  C   LIG    1        2.429  -1.377   2.060  0.00  0.00    +0.300 C 
BRANCH  23  24
ATOM     24  C   LIG    1        1.718  -0.053   2.178  0.00  0.00    -0.020 A 
ATOM     25  C   LIG    1        0.965   0.345   3.219  0.00  0.00    -0.020 A 
ATOM     26  C   LIG    1        0.494   1.643   2.911  0.00  0.00    -0.070 A 
ATOM     27  C   LIG    1        0.988   1.959   1.700  0.00  0.00    +0.160 A 
ATOM     28  O   LIG    1        1.728   0.928   1.261  0.00  0.00    -0.180 OA
ENDBRANCH  23  24
ENDBRANCH  16  23
ENDBRANCH  15  16
ENDBRANCH  11  15
TORSDOF 6
