REMARK  Name = ZINCkj000005jUf6.0
REMARK                            x       y       z     vdW  Elec       q    Type
REMARK                         _______ _______ _______ _____ _____    ______ ____
ROOT
ATOM      1  C   LIG    1        7.074   1.049  -1.521  0.00  0.00    +0.110 C 
ATOM      2  C   LIG    1        5.674   1.661  -1.448  0.00  0.00    +0.150 C 
ATOM      3  C   LIG    1        4.920   1.070  -0.247  0.00  0.00    +0.330 C 
ATOM      4  N   LIG    1        3.630   1.766  -0.125  0.00  0.00    -0.630 N 
ATOM      5  C   LIG    1        3.633   3.237  -0.119  0.00  0.00    +0.310 C 
ATOM      6  C   LIG    1        4.448   3.725  -1.321  0.00  0.00    +0.270 C 
ATOM      7  C   LIG    1        2.478   1.075  -0.016  0.00  0.00    +0.570 C 
ATOM      8  O   LIG    1        2.500  -0.139   0.047  0.00  0.00    -0.490 OA
ATOM      9  N   LIG    1        5.784   3.116  -1.286  0.00  0.00    -0.510 N 
ATOM     10  H   LIG    1        6.222   3.321  -0.401  0.00  0.00    +0.430 HD
ATOM     11  H   LIG    1        6.345   3.495  -2.034  0.00  0.00    +0.430 HD
ENDROOT
BRANCH   7  12
ATOM     12  C   LIG    1        1.186   1.794   0.028  0.00  0.00    -0.110 A 
ATOM     13  C   LIG    1        1.015   2.875   0.894  0.00  0.00    +0.030 A 
ATOM     14  C   LIG    1       -0.192   3.544   0.932  0.00  0.00    +0.060 A 
ATOM     15  C   LIG    1       -1.233   3.147   0.114  0.00  0.00    +0.030 A 
ATOM     16  C   LIG    1       -1.071   2.075  -0.756  0.00  0.00    +0.150 A 
ATOM     17  C   LIG    1        0.135   1.394  -0.798  0.00  0.00    +0.050 A 
BRANCH  16  18
ATOM     18  N   LIG    1       -2.129   1.680  -1.587  0.00  0.00    -0.420 N 
ATOM     19  C   LIG    1       -3.371   2.256  -1.654  0.00  0.00    +0.130 A 
ATOM     20  C   LIG    1       -4.070   1.569  -2.577  0.00  0.00    +0.170 A 
ATOM     21  N   LIG    1       -3.282   0.599  -3.063  0.00  0.00    -0.480 NA
ATOM     22  C   LIG    1       -2.115   0.659  -2.482  0.00  0.00    +0.400 A 
ENDBRANCH  16  18
ENDBRANCH   7  12
TORSDOF 2
