REMARK  Name = ZINCrD00000l62hb.0
REMARK                            x       y       z     vdW  Elec       q    Type
REMARK                         _______ _______ _______ _____ _____    ______ ____
ROOT
ATOM      1  C   LIG    1       -2.286  -0.405   1.500  0.00  0.00    -0.250 A 
ATOM      2  C   LIG    1       -3.273  -1.060   2.151  0.00  0.00    +0.200 A 
ATOM      3  N   LIG    1       -3.612  -2.207   1.606  0.00  0.00    -0.480 NA
ATOM      4  C   LIG    1       -2.966  -2.568   0.538  0.00  0.00    +0.300 A 
ATOM      5  C   LIG    1       -3.932  -0.519   3.394  0.00  0.00    +0.190 C 
ATOM      6  S   LIG    1       -1.804  -1.387   0.119  0.00  0.00    +0.190 S 
ENDROOT
BRANCH   1  13
ATOM      7  N   LIG    1       -0.698   1.558   1.213  0.00  0.00    -0.490 N 
ATOM      8  C   LIG    1       -0.446   2.711   1.865  0.00  0.00    +0.480 A 
ATOM      9  N   LIG    1       -1.286   2.780   2.917  0.00  0.00    -0.470 N 
ATOM     10  H   LIG    1       -1.335   3.499   3.566  0.00  0.00    +0.470 HD
ATOM     11  N   LIG    1       -2.074   1.620   2.906  0.00  0.00    -0.260 NA
ATOM     12  S   LIG    1        0.730   3.878   1.433  0.00  0.00    -0.570 S 
ATOM     13  C   LIG    1       -1.712   0.896   1.881  0.00  0.00    +0.370 A 
BRANCH   7  14
ATOM     14  C   LIG    1       -0.013   1.086   0.008  0.00  0.00    +0.370 C 
BRANCH  14  16
ATOM     15  C   LIG    1       -0.098   2.269  -2.126  0.00  0.00    +0.100 C 
ATOM     16  C   LIG    1       -0.742   1.585  -1.213  0.00  0.00    -0.090 C 
ENDBRANCH  14  16
ENDBRANCH   7  14
ENDBRANCH   1  13
BRANCH   4  17
ATOM     17  N   LIG    1       -3.188  -3.744  -0.161  0.00  0.00    -0.620 N 
ATOM     18  H   LIG    1       -2.663  -3.945  -0.952  0.00  0.00    +0.430 HD
ATOM     19  C   LIG    1       -4.132  -4.610   0.258  0.00  0.00    +0.610 C 
ATOM     20  O   LIG    1       -4.790  -4.359   1.250  0.00  0.00    -0.440 OA
BRANCH  19  21
ATOM     21  C   LIG    1       -4.368  -5.860  -0.485  0.00  0.00    -0.000 A 
ATOM     22  N   LIG    1       -3.743  -6.262  -1.571  0.00  0.00    -0.200 NA
ATOM     23  N   LIG    1       -4.174  -7.400  -1.980  0.00  0.00    -0.400 N 
ATOM     24  H   LIG    1       -3.837  -7.863  -2.763  0.00  0.00    +0.450 HD
ATOM     25  C   LIG    1       -5.174  -7.872  -1.171  0.00  0.00    +0.060 A 
ATOM     26  C   LIG    1       -5.967  -9.015  -1.162  0.00  0.00    +0.010 A 
ATOM     27  C   LIG    1       -6.910  -9.183  -0.172  0.00  0.00    +0.060 A 
ATOM     28  C   LIG    1       -7.078  -8.223   0.818  0.00  0.00    +0.000 A 
ATOM     29  C   LIG    1       -6.310  -7.092   0.827  0.00  0.00    +0.090 A 
ATOM     30  C   LIG    1       -5.352  -6.903  -0.164  0.00  0.00    -0.100 A 
ENDBRANCH  19  21
ENDBRANCH   4  17
TORSDOF 5
