REMARK  Name = ZINCtV000002ziic.0
REMARK                            x       y       z     vdW  Elec       q    Type
REMARK                         _______ _______ _______ _____ _____    ______ ____
ROOT
ATOM      1  C   LIG    1        1.949   4.241  -0.098  0.00  0.00    +0.150 C 
ATOM      2  C   LIG    1        2.553   3.030   0.071  0.00  0.00    -0.040 C 
ENDROOT
BRANCH   2   3
ATOM      3  C   LIG    1        4.011   2.904  -0.102  0.00  0.00    +0.170 A 
ATOM      4  N   LIG    1        4.679   1.806   0.040  0.00  0.00    -0.450 NA
ATOM      5  C   LIG    1        6.008   1.849  -0.155  0.00  0.00    +0.090 A 
ATOM      6  C   LIG    1        6.950   0.800  -0.066  0.00  0.00    +0.070 A 
ATOM      7  C   LIG    1        8.271   1.036  -0.293  0.00  0.00    +0.030 A 
ATOM      8  C   LIG    1        8.720   2.307  -0.619  0.00  0.00    +0.040 A 
ATOM      9  C   LIG    1        7.826   3.350  -0.715  0.00  0.00    +0.060 A 
ATOM     10  C   LIG    1        6.470   3.130  -0.484  0.00  0.00    -0.170 A 
ATOM     11  S   LIG    1        5.091   4.226  -0.524  0.00  0.00    +0.070 S 
ENDBRANCH   2   3
BRANCH   2  12
ATOM     12  C   LIG    1        1.748   1.848   0.426  0.00  0.00    +0.180 A 
ATOM     13  N   LIG    1        1.714   0.748  -0.251  0.00  0.00    -0.440 NA
ATOM     14  C   LIG    1        0.928  -0.244   0.202  0.00  0.00    +0.080 A 
ATOM     15  C   LIG    1        0.719  -1.528  -0.349  0.00  0.00    +0.070 A 
ATOM     16  C   LIG    1       -0.124  -2.410   0.254  0.00  0.00    +0.030 A 
ATOM     17  C   LIG    1       -0.793  -2.070   1.420  0.00  0.00    +0.040 A 
ATOM     18  C   LIG    1       -0.608  -0.826   1.982  0.00  0.00    +0.050 A 
ATOM     19  C   LIG    1        0.249   0.092   1.379  0.00  0.00    -0.170 A 
ATOM     20  S   LIG    1        0.698   1.734   1.831  0.00  0.00    +0.080 S 
ENDBRANCH   2  12
BRANCH   1  24
ATOM     21  C   LIG    1       -2.275   4.523  -0.057  0.00  0.00    +0.240 A 
ATOM     22  C   LIG    1       -1.504   5.607   0.354  0.00  0.00    -0.080 A 
ATOM     23  C   LIG    1       -0.135   5.520   0.343  0.00  0.00    +0.100 A 
ATOM     24  C   LIG    1        0.486   4.339  -0.083  0.00  0.00    -0.160 A 
ATOM     25  C   LIG    1       -0.295   3.253  -0.502  0.00  0.00    +0.090 A 
ATOM     26  C   LIG    1       -1.663   3.348  -0.482  0.00  0.00    -0.080 A 
BRANCH  21  28
ATOM     27  C   LIG    1       -4.312   5.853   0.401  0.00  0.00    +0.280 C 
ATOM     28  N   LIG    1       -3.664   4.617  -0.045  0.00  0.00    -0.630 N 
ATOM     29  C   LIG    1       -4.479   3.478  -0.477  0.00  0.00    +0.290 C 
ENDBRANCH  21  28
ENDBRANCH   1  24
TORSDOF 4
