REMARK  Name = ZINCpe00000c92k0.0
REMARK                            x       y       z     vdW  Elec       q    Type
REMARK                         _______ _______ _______ _____ _____    ______ ____
ROOT
ATOM      1  N   LIG    1       -0.667   1.580  -1.212  0.00  0.00    -0.520 NA
ATOM      2  C   LIG    1       -2.029   1.031  -1.274  0.00  0.00    +0.190 C 
ATOM      3  C   LIG    1       -2.760   1.622  -2.482  0.00  0.00    +0.190 C 
ATOM      4  N   LIG    1       -2.012   1.308  -3.707  0.00  0.00    -0.530 NA
ATOM      5  C   LIG    1       -0.650   1.857  -3.645  0.00  0.00    +0.190 C 
ATOM      6  C   LIG    1        0.081   1.266  -2.438  0.00  0.00    +0.190 C 
ENDROOT
BRANCH   4   7
ATOM      7  C   LIG    1       -2.723   1.794  -4.897  0.00  0.00    +0.130 C 
ATOM      8  C   LIG    1       -2.125   1.181  -6.191  0.00  0.00    +0.060 C 
ATOM      9  C   LIG    1       -3.317   1.214  -7.171  0.00  0.00    +0.250 C 
ATOM     10  N   LIG    1       -4.545   1.274  -6.364  0.00  0.00    -0.620 N 
ATOM     11  C   LIG    1       -5.801   1.337  -6.848  0.00  0.00    +0.610 C 
ATOM     12  O   LIG    1       -6.746   1.384  -6.083  0.00  0.00    -0.530 OA
ATOM     13  C   LIG    1       -4.174   1.254  -4.937  0.00  0.00    +0.280 C 
BRANCH  11  14
ATOM     14  C   LIG    1       -6.028   1.350  -8.296  0.00  0.00    -0.270 A 
ATOM     15  C   LIG    1       -7.250   1.407  -8.906  0.00  0.00    +0.100 A 
ATOM     16  C   LIG    1       -7.172   1.410 -10.279  0.00  0.00    +0.000 A 
ATOM     17  C   LIG    1       -5.932   1.348 -10.777  0.00  0.00    -0.070 A 
ATOM     18  S   LIG    1       -4.774   1.288  -9.526  0.00  0.00    +0.210 S 
ENDBRANCH  11  14
ENDBRANCH   4   7
BRANCH   1  19
ATOM     19  C   LIG    1        0.043   1.094  -0.022  0.00  0.00    +0.210 C 
BRANCH  19  21
ATOM     20  O   LIG    1       -1.585   2.366   1.117  0.00  0.00    -0.520 OA
ATOM     21  C   LIG    1       -0.617   1.641   1.216  0.00  0.00    +0.540 C 
ATOM     22  N   LIG    1       -0.133   1.326   2.434  0.00  0.00    -0.650 N 
ATOM     23  C   LIG    1        0.972   0.507   2.955  0.00  0.00    +0.270 C 
ATOM     24  C   LIG    1        0.152   0.307   4.234  0.00  0.00    +0.020 C 
ATOM     25  C   LIG    1       -0.481   1.645   3.827  0.00  0.00    +0.270 C 
ENDBRANCH  19  21
ENDBRANCH   1  19
TORSDOF 4
