REMARK  Name = ZINCpk00000xVFUB.0
REMARK                            x       y       z     vdW  Elec       q    Type
REMARK                         _______ _______ _______ _____ _____    ______ ____
ROOT
ATOM      1  N   LIG    1       -0.925   3.764  -0.113  0.00  0.00    -0.590 N 
ATOM      2  C   LIG    1       -0.718   3.048   0.993  0.00  0.00    +0.520 C 
ATOM      3  C   LIG    1       -0.472   1.566   0.988  0.00  0.00    +0.060 C 
ATOM      4  C   LIG    1       -0.069   1.111  -0.417  0.00  0.00    +0.040 C 
ATOM      5  C   LIG    1       -1.069   1.694  -1.422  0.00  0.00    -0.020 C 
ATOM      6  O   LIG    1       -0.728   3.624   2.060  0.00  0.00    -0.550 OA
ATOM      7  C   LIG    1       -0.895   3.212  -1.461  0.00  0.00    +0.320 C 
ENDROOT
BRANCH   7   8
ATOM      8  C   LIG    1       -2.009   3.821  -2.273  0.00  0.00    -0.260 A 
ATOM      9  C   LIG    1       -1.893   4.351  -3.513  0.00  0.00    +0.250 A 
ATOM     10  N   LIG    1       -3.114   4.785  -3.890  0.00  0.00    -0.370 N 
ATOM     11  N   LIG    1       -4.008   4.521  -2.845  0.00  0.00    -0.290 NA
ATOM     12  C   LIG    1       -3.445   5.425  -5.166  0.00  0.00    +0.360 C 
ATOM     13  C   LIG    1       -3.345   3.943  -1.876  0.00  0.00    +0.250 A 
ENDBRANCH   7   8
BRANCH   1  15
ATOM     14  C   LIG    1        0.121   5.962   0.124  0.00  0.00    +0.010 C 
ATOM     15  C   LIG    1       -1.200   5.195   0.038  0.00  0.00    +0.270 C 
ENDBRANCH   1  15
BRANCH   5  16
ATOM     16  C   LIG    1       -0.803   1.107  -2.810  0.00  0.00    +0.290 C 
BRANCH  16  17
ATOM     17  N   LIG    1       -1.070  -0.333  -2.791  0.00  0.00    -0.710 N 
ATOM     18  H   LIG    1       -1.367  -0.760  -1.973  0.00  0.00    +0.410 HD
BRANCH  17  19
ATOM     19  C   LIG    1       -0.897  -1.087  -3.946  0.00  0.00    +0.370 A 
ATOM     20  C   LIG    1       -0.474  -0.472  -5.125  0.00  0.00    +0.190 A 
ATOM     21  N   LIG    1       -0.304  -1.187  -6.221  0.00  0.00    -0.390 NA
ATOM     22  C   LIG    1       -0.543  -2.486  -6.210  0.00  0.00    +0.220 A 
ATOM     23  C   LIG    1       -0.971  -3.108  -5.038  0.00  0.00    +0.200 A 
ATOM     24  N   LIG    1       -1.138  -2.389  -3.929  0.00  0.00    -0.480 NA
BRANCH  23  25
ATOM     25  C   LIG    1       -1.231  -4.516  -5.026  0.00  0.00    +0.260 C 
ATOM     26  N   LIG    1       -1.437  -5.633  -5.016  0.00  0.00    -0.370 NA
ENDBRANCH  23  25
ENDBRANCH  17  19
ENDBRANCH  16  17
ENDBRANCH   5  16
TORSDOF 6
