REMARK  Name = ZINCqH0000032Nga.0
REMARK                            x       y       z     vdW  Elec       q    Type
REMARK                         _______ _______ _______ _____ _____    ______ ____
ROOT
ATOM      1  C   LIG    1        2.400   2.061  -0.508  0.00  0.00    +0.450 A 
ATOM      2  C   LIG    1        3.412   3.000  -0.752  0.00  0.00    -0.230 A 
ATOM      3  C   LIG    1        4.745   2.552  -0.827  0.00  0.00    +0.340 A 
ATOM      4  N   LIG    1        5.526   3.650  -1.062  0.00  0.00    -0.450 N 
ATOM      5  C   LIG    1        4.744   4.773  -1.150  0.00  0.00    +0.100 A 
ATOM      6  C   LIG    1        5.256   6.167  -1.405  0.00  0.00    +0.140 C 
ATOM      7  N   LIG    1        4.989   1.253  -0.674  0.00  0.00    -0.550 NA
ATOM      8  C   LIG    1        4.006   0.406  -0.452  0.00  0.00    +0.540 A 
ATOM      9  C   LIG    1        3.455   4.446  -0.963  0.00  0.00    -0.160 A 
ATOM     10  C   LIG    1        2.279   5.388  -0.970  0.00  0.00    +0.120 C 
ATOM     11  N   LIG    1        2.744   0.785  -0.369  0.00  0.00    -0.530 NA
ENDROOT
BRANCH   1  13
ATOM     12  C   LIG    1        0.111   1.536  -0.190  0.00  0.00    +0.520 C 
ATOM     13  N   LIG    1        1.071   2.454  -0.420  0.00  0.00    -0.650 N 
ATOM     14  H   LIG    1        0.834   3.389  -0.523  0.00  0.00    +0.420 HD
ATOM     15  O   LIG    1        0.395   0.358  -0.153  0.00  0.00    -0.460 OA
BRANCH  12  16
ATOM     16  C   LIG    1       -1.317   1.974   0.013  0.00  0.00    -0.110 C 
ATOM     17  C   LIG    1       -2.341   0.842  -0.173  0.00  0.00    +0.060 C 
ATOM     18  C   LIG    1       -3.232   1.872  -0.888  0.00  0.00    +0.020 C 
ATOM     19  C   LIG    1       -1.941   2.636  -1.227  0.00  0.00    +0.040 C 
BRANCH  16  21
ATOM     20  C   LIG    1       -1.170   1.899   2.506  0.00  0.00    +0.010 C 
ATOM     21  C   LIG    1       -1.514   2.776   1.301  0.00  0.00    +0.050 C 
ENDBRANCH  16  21
ENDBRANCH  12  16
ENDBRANCH   1  13
BRANCH   4  22
ATOM     22  C   LIG    1        6.983   3.627  -1.214  0.00  0.00    +0.310 C 
BRANCH  22  23
ATOM     23  C   LIG    1        7.339   3.424  -2.688  0.00  0.00    +0.160 C 
ATOM     24  C   LIG    1        8.868   3.283  -2.843  0.00  0.00    +0.020 C 
ATOM     25  C   LIG    1        9.141   4.074  -4.152  0.00  0.00    +0.010 C 
ATOM     26  C   LIG    1        8.076   5.194  -4.046  0.00  0.00    +0.200 C 
ATOM     27  O   LIG    1        6.930   4.566  -3.449  0.00  0.00    -0.370 OA
ENDBRANCH  22  23
ENDBRANCH   4  22
TORSDOF 5
