REMARK  Name = ZINCpk00000y6wHJ.0
REMARK                            x       y       z     vdW  Elec       q    Type
REMARK                         _______ _______ _______ _____ _____    ______ ____
ROOT
ATOM      1  C   LIG    1        6.946  -0.124   1.371  0.00  0.00    +0.530 C 
ATOM      2  N   LIG    1        7.599   0.101   2.529  0.00  0.00    -0.620 N 
ATOM      3  C   LIG    1        6.993   0.090   3.873  0.00  0.00    +0.260 C 
ATOM      4  C   LIG    1        7.928   0.973   4.736  0.00  0.00    +0.180 C 
ATOM      5  C   LIG    1        9.322   0.604   4.162  0.00  0.00    +0.280 C 
ATOM      6  C   LIG    1        9.034   0.391   2.660  0.00  0.00    +0.290 C 
ATOM      7  O   LIG    1        7.548  -0.091   0.319  0.00  0.00    -0.520 OA
ENDROOT
BRANCH   5   8
ATOM      8  N   LIG    1       10.271   1.703   4.359  0.00  0.00    -0.290 N 
ATOM      9  C   LIG    1       10.430   2.770   3.543  0.00  0.00    +0.130 A 
ATOM     10  C   LIG    1       11.403   3.529   4.099  0.00  0.00    +0.150 A 
ATOM     11  N   LIG    1       11.787   2.897   5.214  0.00  0.00    -0.270 NA
ATOM     12  N   LIG    1       11.094   1.821   5.342  0.00  0.00    -0.070 NA
ENDBRANCH   5   8
BRANCH   4  13
ATOM     13  O   LIG    1        7.834   0.620   6.117  0.00  0.00    -0.540 OA
ATOM     14  H   LIG    1        6.952   0.741   6.495  0.00  0.00    +0.390 HD
ENDBRANCH   4  13
BRANCH   1  15
ATOM     15  C   LIG    1        5.468  -0.417   1.384  0.00  0.00    +0.070 C 
BRANCH  15  16
ATOM     16  C   LIG    1        4.978  -0.632  -0.049  0.00  0.00    +0.130 C 
BRANCH  16  22
ATOM     17  C   LIG    1       -1.336   2.102   0.020  0.00  0.00    +0.100 C 
ATOM     18  C   LIG    1       -0.017   1.374   0.010  0.00  0.00    -0.060 A 
ATOM     19  C   LIG    1        1.167   2.098   0.002  0.00  0.00    -0.020 A 
ATOM     20  C   LIG    1        2.374   1.456  -0.013  0.00  0.00    +0.050 A 
ATOM     21  C   LIG    1        2.416   0.060  -0.021  0.00  0.00    -0.110 A 
ATOM     22  C   LIG    1        3.499  -0.925  -0.036  0.00  0.00    -0.170 A 
ATOM     23  C   LIG    1        2.926  -2.139  -0.037  0.00  0.00    +0.230 A 
ATOM     24  N   LIG    1        1.564  -2.011  -0.023  0.00  0.00    -0.600 N 
ATOM     25  H   LIG    1        0.935  -2.750  -0.021  0.00  0.00    +0.420 HD
ATOM     26  C   LIG    1        1.218  -0.678  -0.013  0.00  0.00    +0.100 A 
ATOM     27  C   LIG    1        0.002  -0.004   0.002  0.00  0.00    -0.010 A 
ENDBRANCH  16  22
ENDBRANCH  15  16
ENDBRANCH   1  15
TORSDOF 5
