REMARK  Name = ZINCpk000005Vhfq.0
REMARK                            x       y       z     vdW  Elec       q    Type
REMARK                         _______ _______ _______ _____ _____    ______ ____
ROOT
ATOM      1  C   LIG    1       -3.925   5.457   4.072  0.00  0.00    +0.120 A 
ATOM      2  C   LIG    1       -2.862   5.383   3.185  0.00  0.00    +0.150 A 
ATOM      3  C   LIG    1       -1.916   4.385   3.321  0.00  0.00    -0.680 A 
ATOM      4  C   LIG    1       -2.020   3.463   4.346  0.00  0.00    +0.130 A 
ATOM      5  C   LIG    1       -3.074   3.532   5.239  0.00  0.00    -0.020 A 
ATOM      6  C   LIG    1       -4.030   4.527   5.107  0.00  0.00    +0.130 A 
ENDROOT
BRANCH   6   7
ATOM      7  N   LIG    1       -5.098   4.599   6.008  0.00  0.00    -0.480 N 
ATOM      8  C   LIG    1       -5.039   3.487   6.991  0.00  0.00    +0.190 C 
ATOM      9  C   LIG    1       -5.914   4.002   8.162  0.00  0.00    +0.040 C 
ATOM     10  C   LIG    1       -5.577   5.511   8.207  0.00  0.00    +0.020 C 
ATOM     11  C   LIG    1       -5.037   5.844   6.804  0.00  0.00    +0.180 C 
ENDBRANCH   6   7
BRANCH   1  14
ATOM     12  O   LIG    1       -3.467   7.768   2.835  0.00  0.00    -0.490 OA
ATOM     13  C   LIG    1       -4.567   7.625   3.325  0.00  0.00    +0.500 C 
ATOM     14  N   LIG    1       -4.888   6.465   3.932  0.00  0.00    -0.660 N 
ATOM     15  H   LIG    1       -5.786   6.329   4.273  0.00  0.00    +0.420 HD
BRANCH  13  16
ATOM     16  C   LIG    1       -5.575   8.743   3.254  0.00  0.00    +0.190 C 
ATOM     17 CL   LIG    1       -4.853  10.149   2.388  0.00  0.00    -0.120 Cl
ENDBRANCH  13  16
ENDBRANCH   1  14
BRANCH   3  18
ATOM     18  S   LIG    1       -0.570   4.290   2.188  0.00  0.00    +2.690 S 
ATOM     19  O   LIG    1       -0.410   5.593   1.645  0.00  0.00    -0.940 OA
ATOM     20  O   LIG    1        0.472   3.595   2.860  0.00  0.00    -0.950 OA
BRANCH  18  21
ATOM     21  N   LIG    1       -1.049   3.317   0.937  0.00  0.00    -1.000 NA
ATOM     22  C   LIG    1       -0.822   1.864   0.978  0.00  0.00    +0.260 C 
ATOM     23  C   LIG    1       -0.147   1.443  -0.333  0.00  0.00    +0.220 C 
ATOM     24  O   LIG    1       -0.910   1.937  -1.436  0.00  0.00    -0.380 OA
ATOM     25  C   LIG    1       -0.994   3.362  -1.499  0.00  0.00    +0.220 C 
ATOM     26  C   LIG    1       -1.714   3.881  -0.249  0.00  0.00    +0.270 C 
ENDBRANCH  18  21
ENDBRANCH   3  18
TORSDOF 5
