REMARK  Name = ZINCkj000005lrCU.1
REMARK                            x       y       z     vdW  Elec       q    Type
REMARK                         _______ _______ _______ _____ _____    ______ ____
ROOT
ATOM      1  C   LIG    1       -2.602  -2.081  -1.604  0.00  0.00    +0.510 C 
ATOM      2  N   LIG    1       -1.546  -1.278  -1.365  0.00  0.00    -0.700 N 
ATOM      3  H   LIG    1       -1.008  -0.952  -2.103  0.00  0.00    +0.420 HD
ATOM      4  O   LIG    1       -3.274  -2.490  -0.681  0.00  0.00    -0.500 OA
ENDROOT
BRANCH   1   5
ATOM      5  C   LIG    1       -2.947  -2.472  -3.018  0.00  0.00    +0.190 C 
BRANCH   5   6
ATOM      6  N   LIG    1       -4.345  -2.919  -3.075  0.00  0.00    -0.630 N 
ATOM      7  H   LIG    1       -4.576  -3.180  -4.022  0.00  0.00    +0.440 HD
ATOM      8  H   LIG    1       -4.950  -2.170  -2.776  0.00  0.00    +0.450 HD
ATOM      9  H   LIG    1       -4.468  -3.715  -2.467  0.00  0.00    +0.450 HD
ENDBRANCH   5   6
BRANCH   5  10
ATOM     10  C   LIG    1       -2.028  -3.608  -3.472  0.00  0.00    +0.130 C 
BRANCH  10  11
ATOM     11  C   LIG    1       -2.293  -3.920  -4.946  0.00  0.00    +0.450 C 
ATOM     12  F   LIG    1       -3.628  -4.306  -5.108  0.00  0.00    -0.180 F 
ATOM     13  F   LIG    1       -1.454  -4.960  -5.361  0.00  0.00    -0.150 F 
ATOM     14  F   LIG    1       -2.041  -2.780  -5.717  0.00  0.00    -0.170 F 
ENDBRANCH  10  11
ENDBRANCH   5  10
ENDBRANCH   1   5
BRANCH   2  15
ATOM     15  C   LIG    1       -1.210  -0.899   0.009  0.00  0.00    +0.440 C 
BRANCH  15  16
ATOM     16  C   LIG    1        0.002  -0.004   0.002  0.00  0.00    +0.210 A 
ATOM     17  N   LIG    1        1.244  -0.406  -0.012  0.00  0.00    -0.460 NA
ATOM     18  C   LIG    1        2.054   0.663  -0.014  0.00  0.00    +0.270 A 
ATOM     19  C   LIG    1        1.286   1.769  -0.001  0.00  0.00    -0.110 A 
ATOM     20  N   LIG    1       -0.016   1.346   0.009  0.00  0.00    -0.530 N 
ATOM     21  H   LIG    1       -0.805   1.911   0.016  0.00  0.00    +0.430 HD
BRANCH  19  22
ATOM     22  C   LIG    1        1.766   3.197   0.002  0.00  0.00    +0.550 C 
ATOM     23  F   LIG    1        0.827   4.007  -0.645  0.00  0.00    -0.180 F 
ATOM     24  F   LIG    1        2.992   3.278  -0.669  0.00  0.00    -0.160 F 
ATOM     25  F   LIG    1        1.928   3.633   1.321  0.00  0.00    -0.160 F 
ENDBRANCH  19  22
ENDBRANCH  15  16
ENDBRANCH   2  15
TORSDOF 7
