REMARK  Name = ZINCkj000005lrCU.0
REMARK                            x       y       z     vdW  Elec       q    Type
REMARK                         _______ _______ _______ _____ _____    ______ ____
ROOT
ATOM      1  C   LIG    1       -0.121   1.007  -2.468  0.00  0.00    +0.510 C 
ATOM      2  N   LIG    1       -0.420  -0.252  -2.846  0.00  0.00    -0.700 N 
ATOM      3  H   LIG    1       -1.041  -0.781  -2.322  0.00  0.00    +0.420 HD
ATOM      4  O   LIG    1        0.656   1.669  -3.123  0.00  0.00    -0.500 OA
ENDROOT
BRANCH   1   5
ATOM      5  C   LIG    1       -0.753   1.593  -1.232  0.00  0.00    +0.190 C 
BRANCH   5   6
ATOM      6  N   LIG    1       -0.669   3.058  -1.286  0.00  0.00    -0.630 N 
ATOM      7  H   LIG    1       -1.092   3.450  -0.458  0.00  0.00    +0.440 HD
ATOM      8  H   LIG    1       -1.157   3.393  -2.104  0.00  0.00    +0.450 HD
ATOM      9  H   LIG    1        0.299   3.339  -1.335  0.00  0.00    +0.450 HD
ENDBRANCH   5   6
BRANCH   5  10
ATOM     10  C   LIG    1       -0.013   1.086   0.008  0.00  0.00    +0.130 C 
BRANCH  10  11
ATOM     11  C   LIG    1       -0.729   1.579   1.267  0.00  0.00    +0.450 C 
ATOM     12  F   LIG    1       -0.748   2.978   1.274  0.00  0.00    -0.180 F 
ATOM     13  F   LIG    1       -0.052   1.116   2.400  0.00  0.00    -0.150 F 
ATOM     14  F   LIG    1       -2.041   1.095   1.277  0.00  0.00    -0.170 F 
ENDBRANCH  10  11
ENDBRANCH   5  10
ENDBRANCH   1   5
BRANCH   2  15
ATOM     15  C   LIG    1        0.194  -0.821  -4.048  0.00  0.00    +0.440 C 
BRANCH  15  16
ATOM     16  C   LIG    1       -0.303  -2.230  -4.247  0.00  0.00    +0.180 A 
ATOM     17  N   LIG    1        0.200  -3.299  -3.693  0.00  0.00    -0.420 NA
ATOM     18  C   LIG    1       -0.495  -4.374  -4.095  0.00  0.00    -0.090 A 
ATOM     19  C   LIG    1       -1.460  -3.955  -4.935  0.00  0.00    +0.250 A 
ATOM     20  N   LIG    1       -1.339  -2.595  -5.032  0.00  0.00    -0.550 N 
ATOM     21  H   LIG    1       -1.893  -2.005  -5.566  0.00  0.00    +0.430 HD
BRANCH  18  22
ATOM     22  C   LIG    1       -0.237  -5.800  -3.682  0.00  0.00    +0.550 C 
ATOM     23  F   LIG    1       -1.439  -6.515  -3.699  0.00  0.00    -0.170 F 
ATOM     24  F   LIG    1        0.301  -5.822  -2.390  0.00  0.00    -0.170 F 
ATOM     25  F   LIG    1        0.668  -6.387  -4.573  0.00  0.00    -0.170 F 
ENDBRANCH  18  22
ENDBRANCH  15  16
ENDBRANCH   2  15
TORSDOF 7
