REMARK  Name = ZINCvU0000000Fy5.0
REMARK                            x       y       z     vdW  Elec       q    Type
REMARK                         _______ _______ _______ _____ _____    ______ ____
ROOT
ATOM      1  N   LIG    1        5.590   2.740   0.352  0.00  0.00    -0.590 N 
ATOM      2  C   LIG    1        6.196   2.584   1.546  0.00  0.00    +0.570 C 
ATOM      3  O   LIG    1        5.974   3.369   2.447  0.00  0.00    -0.530 OA
ATOM      4  C   LIG    1        5.931   1.855  -0.764  0.00  0.00    +0.300 C 
ENDROOT
BRANCH   2   5
ATOM      5  C   LIG    1        7.130   1.458   1.759  0.00  0.00    -0.120 A 
ATOM      6  C   LIG    1        7.879   0.958   0.693  0.00  0.00    +0.050 A 
ATOM      7  C   LIG    1        8.752  -0.090   0.900  0.00  0.00    +0.020 A 
ATOM      8  C   LIG    1        8.878  -0.652   2.159  0.00  0.00    -0.060 A 
ATOM      9  C   LIG    1        8.134  -0.164   3.218  0.00  0.00    +0.030 A 
ATOM     10  C   LIG    1        7.261   0.887   3.026  0.00  0.00    +0.080 A 
BRANCH   8  11
ATOM     11  C   LIG    1        9.829  -1.801   2.376  0.00  0.00    +0.120 C 
BRANCH  11  12
ATOM     12  S   LIG    1        8.959  -3.368   2.094  0.00  0.00    -0.090 S 
BRANCH  12  13
ATOM     13  C   LIG    1       10.209  -4.574   2.389  0.00  0.00    -0.090 A 
ATOM     14  C   LIG    1       11.493  -4.174   2.738  0.00  0.00    +0.010 A 
ATOM     15  C   LIG    1       12.469  -5.122   2.973  0.00  0.00    +0.050 A 
ATOM     16  C   LIG    1       12.172  -6.468   2.851  0.00  0.00    -0.040 A 
ATOM     17  C   LIG    1       10.895  -6.869   2.498  0.00  0.00    +0.050 A 
ATOM     18 CL   LIG    1       13.404  -7.657   3.140  0.00  0.00    -0.070 Cl
ATOM     19  C   LIG    1        9.913  -5.926   2.267  0.00  0.00    +0.050 A 
ENDBRANCH  12  13
ENDBRANCH  11  12
ENDBRANCH   8  11
ENDBRANCH   2   5
BRANCH   1  20
ATOM     20  C   LIG    1        4.590   3.795   0.170  0.00  0.00    +0.340 C 
BRANCH  20  23
ATOM     21  N   LIG    1        2.142   4.055   0.415  0.00  0.00    -0.670 N 
ATOM     22  H   LIG    1        2.231   4.952   0.058  0.00  0.00    +0.410 HD
ATOM     23  C   LIG    1        3.224   3.256   0.510  0.00  0.00    +0.500 C 
ATOM     24  O   LIG    1        3.098   2.104   0.868  0.00  0.00    -0.510 OA
BRANCH  21  30
ATOM     25  C   LIG    1       -2.311   4.979   2.284  0.00  0.00    +0.090 C 
ATOM     26  C   LIG    1       -1.287   4.015   1.742  0.00  0.00    -0.070 A 
ATOM     27  C   LIG    1       -1.587   2.668   1.651  0.00  0.00    -0.010 A 
ATOM     28  C   LIG    1       -0.649   1.779   1.160  0.00  0.00    +0.020 A 
ATOM     29  C   LIG    1        0.588   2.236   0.748  0.00  0.00    +0.010 A 
ATOM     30  C   LIG    1        0.890   3.589   0.832  0.00  0.00    +0.150 A 
ATOM     31  C   LIG    1       -0.052   4.478   1.331  0.00  0.00    -0.120 A 
ATOM     32  C   LIG    1        0.272   5.947   1.425  0.00  0.00    +0.090 C 
ENDBRANCH  21  30
ENDBRANCH  20  23
ENDBRANCH   1  20
TORSDOF 7
