REMARK  Name = ZINCpk00000xI0z2.0
REMARK                            x       y       z     vdW  Elec       q    Type
REMARK                         _______ _______ _______ _____ _____    ______ ____
ROOT
ATOM      1  C   LIG    1        3.186   1.092   0.103  0.00  0.00    +0.140 C 
ATOM      2  C   LIG    1        1.779   1.631   0.070  0.00  0.00    -0.110 A 
ATOM      3  C   LIG    1        0.718   0.778   0.066  0.00  0.00    +0.110 A 
ATOM      4  C   LIG    1       -0.587   1.294   0.030  0.00  0.00    -0.010 A 
ATOM      5  C   LIG    1       -0.788   2.630   0.011  0.00  0.00    +0.280 A 
ATOM      6  N   LIG    1        0.268   3.495   0.016  0.00  0.00    -0.450 N 
ATOM      7  C   LIG    1        0.032   4.826  -0.009  0.00  0.00    +0.560 A 
ATOM      8  C   LIG    1        1.137   5.709  -0.004  0.00  0.00    -0.310 A 
ATOM      9  C   LIG    1        2.440   5.167   0.027  0.00  0.00    +0.350 A 
ATOM     10  N   LIG    1        3.318   6.214   0.025  0.00  0.00    -0.410 N 
ATOM     11  C   LIG    1        2.599   7.400  -0.005  0.00  0.00    -0.030 A 
ATOM     12  C   LIG    1        4.779   6.102   0.051  0.00  0.00    +0.350 C 
ATOM     13  N   LIG    1        2.597   3.846   0.050  0.00  0.00    -0.540 NA
ATOM     14  C   LIG    1        1.268   7.110  -0.023  0.00  0.00    +0.110 A 
ATOM     15  O   LIG    1       -1.108   5.256  -0.035  0.00  0.00    -0.510 OA
ATOM     16  C   LIG    1        1.552   3.022   0.045  0.00  0.00    +0.430 A 
ENDROOT
BRANCH  11  17
ATOM     17  C   LIG    1        3.178   8.746  -0.016  0.00  0.00    +0.590 C 
ATOM     18  N   LIG    1        2.375   9.825   0.071  0.00  0.00    -0.710 N 
ATOM     19  H   LIG    1        1.422   9.711   0.215  0.00  0.00    +0.410 HD
ATOM     20  O   LIG    1        4.383   8.890  -0.104  0.00  0.00    -0.540 OA
BRANCH  18  21
ATOM     21  C   LIG    1        2.940  11.171  -0.053  0.00  0.00    +0.300 C 
BRANCH  21  22
ATOM     22  C   LIG    1        1.823  12.208   0.082  0.00  0.00    +0.140 C 
ATOM     23  C   LIG    1        2.408  13.628  -0.047  0.00  0.00    +0.010 C 
ATOM     24  C   LIG    1        1.649  14.243  -1.248  0.00  0.00    +0.000 C 
ATOM     25  C   LIG    1        0.380  13.356  -1.319  0.00  0.00    +0.210 C 
ATOM     26  O   LIG    1        0.870  12.040  -0.981  0.00  0.00    -0.370 OA
ENDBRANCH  21  22
ENDBRANCH  18  21
ENDBRANCH  11  17
TORSDOF 3
