REMARK  Name = ZINCvU0000000AGs.0
REMARK                            x       y       z     vdW  Elec       q    Type
REMARK                         _______ _______ _______ _____ _____    ______ ____
ROOT
ATOM      1  C   LIG    1       -7.662   0.813   0.047  0.00  0.00    +0.290 C 
ENDROOT
BRANCH   1   2
ATOM      2  C   LIG    1       -9.148   1.025   0.181  0.00  0.00    -0.140 A 
ATOM      3  C   LIG    1       -9.746   0.964   1.425  0.00  0.00    +0.050 A 
ATOM      4  C   LIG    1      -11.110   1.159   1.548  0.00  0.00    +0.000 A 
ATOM      5  C   LIG    1      -11.876   1.413   0.426  0.00  0.00    +0.060 A 
ATOM      6  C   LIG    1      -11.280   1.474  -0.820  0.00  0.00    -0.010 A 
ATOM      7  C   LIG    1       -9.914   1.286  -0.943  0.00  0.00    +0.120 A 
ATOM      8  F   LIG    1       -9.330   1.351  -2.159  0.00  0.00    -0.130 F 
ENDBRANCH   1   2
BRANCH   1   9
ATOM      9  N   LIG    1       -7.181   0.007   1.172  0.00  0.00    -0.720 N 
ATOM     10  H   LIG    1       -6.815   0.441   1.958  0.00  0.00    +0.400 HD
ATOM     11  C   LIG    1       -7.247  -1.338   1.114  0.00  0.00    +0.560 C 
ATOM     12  O   LIG    1       -7.706  -1.882   0.128  0.00  0.00    -0.500 OA
BRANCH  11  13
ATOM     13  C   LIG    1       -6.762  -2.151   2.248  0.00  0.00    -0.170 A 
ATOM     14  C   LIG    1       -6.229  -1.530   3.379  0.00  0.00    +0.110 A 
ATOM     15  C   LIG    1       -5.781  -2.295   4.436  0.00  0.00    -0.130 A 
ATOM     16  C   LIG    1       -5.851  -3.677   4.374  0.00  0.00    +0.120 A 
ATOM     17  C   LIG    1       -6.372  -4.301   3.257  0.00  0.00    +0.000 A 
ATOM     18  I   LIG    1       -4.987  -1.364   6.136  0.00  0.00    -0.010 I 
ATOM     19  C   LIG    1       -6.829  -3.547   2.191  0.00  0.00    +0.180 A 
ATOM     20  F   LIG    1       -7.338  -4.157   1.099  0.00  0.00    -0.100 F 
ENDBRANCH  11  13
ENDBRANCH   1   9
BRANCH   1  21
ATOM     21  C   LIG    1       -6.952   2.168   0.051  0.00  0.00    +0.310 C 
BRANCH  21  24
ATOM     22  O   LIG    1       -5.120   4.149   0.051  0.00  0.00    -0.510 OA
ATOM     23  C   LIG    1       -4.668   3.018   0.042  0.00  0.00    +0.590 C 
ATOM     24  N   LIG    1       -5.502   1.959   0.041  0.00  0.00    -0.730 N 
ATOM     25  H   LIG    1       -5.141   1.058   0.035  0.00  0.00    +0.400 HD
BRANCH  23  26
ATOM     26  C   LIG    1       -3.219   2.809   0.033  0.00  0.00    -0.000 A 
ATOM     27  C   LIG    1       -2.264   3.798   0.044  0.00  0.00    +0.100 A 
ATOM     28  C   LIG    1       -1.004   3.172   0.029  0.00  0.00    -0.220 A 
ATOM     29  C   LIG    1       -1.207   1.804   0.017  0.00  0.00    +0.080 A 
ATOM     30  C   LIG    1       -0.013   1.076   0.008  0.00  0.00    +0.020 A 
ATOM     31  C   LIG    1        1.102   1.798   0.001  0.00  0.00    +0.000 A 
ATOM     32  S   LIG    1        0.723   3.512   0.014  0.00  0.00    +0.140 S 
ATOM     33  N   LIG    1       -2.579   1.587   0.023  0.00  0.00    -0.540 N 
ATOM     34  H   LIG    1       -3.015   0.721   0.020  0.00  0.00    +0.420 HD
ENDBRANCH  23  26
ENDBRANCH  21  24
ENDBRANCH   1  21
TORSDOF 6
