REMARK  Name = ZINCrH00000No4VI.0
REMARK                            x       y       z     vdW  Elec       q    Type
REMARK                         _______ _______ _______ _____ _____    ______ ____
ROOT
ATOM      1  C   LIG    1        0.688  -1.298   5.093  0.00  0.00    +0.310 C 
ATOM      2  C   LIG    1        1.610  -1.254   6.120  0.00  0.00    -0.180 C 
ENDROOT
BRANCH   1   6
ATOM      3  N   LIG    1        0.015   1.066   2.421  0.00  0.00    -0.430 N 
ATOM      4  C   LIG    1        1.025   1.734   3.052  0.00  0.00    +0.020 A 
ATOM      5  C   LIG    1        1.440   1.014   4.107  0.00  0.00    -0.010 A 
ATOM      6  C   LIG    1        0.615  -0.202   4.130  0.00  0.00    -0.220 A 
ATOM      7  C   LIG    1        1.586   3.067   2.630  0.00  0.00    +0.140 C 
ATOM      8  C   LIG    1       -0.250  -0.092   3.053  0.00  0.00    +0.110 A 
ATOM      9  C   LIG    1       -1.301  -1.096   2.657  0.00  0.00    +0.160 C 
BRANCH   3  10
ATOM     10  C   LIG    1       -0.687   1.546   1.228  0.00  0.00    +0.320 C 
BRANCH  10  11
ATOM     11  C   LIG    1        0.033   1.043  -0.024  0.00  0.00    +0.170 C 
BRANCH  11  13
ATOM     12  C   LIG    1       -0.057   1.095  -2.419  0.00  0.00    +0.220 C 
ATOM     13  O   LIG    1       -0.651   1.511  -1.188  0.00  0.00    -0.390 OA
ENDBRANCH  11  13
ENDBRANCH  10  11
ENDBRANCH   3  10
ENDBRANCH   1   6
BRANCH   2  14
ATOM     14  C   LIG    1        1.683  -2.357   7.088  0.00  0.00    +0.590 C 
ATOM     15  N   LIG    1        2.583  -2.314   8.091  0.00  0.00    -0.670 N 
ATOM     16  H   LIG    1        3.224  -1.588   8.136  0.00  0.00    +0.420 HD
ATOM     17  O   LIG    1        0.932  -3.309   6.985  0.00  0.00    -0.510 OA
BRANCH  15  18
ATOM     18  C   LIG    1        2.591  -3.318   9.068  0.00  0.00    +0.140 A 
ATOM     19  C   LIG    1        2.275  -4.625   8.724  0.00  0.00    +0.100 A 
ATOM     20  C   LIG    1        2.283  -5.615   9.688  0.00  0.00    +0.050 A 
ATOM     21  C   LIG    1        2.607  -5.306  10.998  0.00  0.00    +0.080 A 
ATOM     22  C   LIG    1        2.924  -4.001  11.346  0.00  0.00    +0.050 A 
ATOM     23  F   LIG    1        3.240  -3.701  12.625  0.00  0.00    -0.110 F 
ATOM     24  F   LIG    1        2.616  -6.276  11.938  0.00  0.00    -0.120 F 
ATOM     25  C   LIG    1        2.921  -3.008  10.383  0.00  0.00    +0.070 A 
ATOM     26  F   LIG    1        3.235  -1.738  10.720  0.00  0.00    -0.120 F 
ENDBRANCH  15  18
ENDBRANCH   2  14
BRANCH   2  27
ATOM     27  C   LIG    1        2.494  -0.134   6.242  0.00  0.00    +0.270 C 
ATOM     28  N   LIG    1        3.195   0.754   6.338  0.00  0.00    -0.420 NA
ENDBRANCH   2  27
TORSDOF 7
