REMARK  Name = ZINCrg000000sRPm.2
REMARK                            x       y       z     vdW  Elec       q    Type
REMARK                         _______ _______ _______ _____ _____    ______ ____
ROOT
ATOM      1  C   LIG    1        2.254  -0.083  -0.905  0.00  0.00    +0.160 C 
ENDROOT
BRANCH   1   2
ATOM      2  N   LIG    1        2.374   0.897   0.183  0.00  0.00    -0.500 NA
ATOM      3  C   LIG    1        3.696   1.536   0.173  0.00  0.00    +0.170 C 
ATOM      4  C   LIG    1        3.837   2.439   1.400  0.00  0.00    +0.030 C 
ATOM      5  C   LIG    1        2.735   3.502   1.375  0.00  0.00    +0.010 C 
ATOM      6  C   LIG    1        1.370   2.810   1.337  0.00  0.00    +0.040 C 
ATOM      7  C   LIG    1        1.300   1.896   0.112  0.00  0.00    +0.130 C 
BRANCH   7   8
ATOM      8  C   LIG    1       -0.035   1.198   0.082  0.00  0.00    +0.520 C 
ATOM      9  N   LIG    1       -1.100   1.805  -0.478  0.00  0.00    -0.620 N 
ATOM     10  C   LIG    1       -0.965   3.108  -1.147  0.00  0.00    +0.250 C 
ATOM     11  C   LIG    1       -1.613   3.003  -2.537  0.00  0.00    +0.220 C 
ATOM     12  O   LIG    1       -2.942   2.497  -2.397  0.00  0.00    -0.380 OA
ATOM     13  C   LIG    1       -3.012   1.177  -1.853  0.00  0.00    +0.220 C 
ATOM     14  C   LIG    1       -2.435   1.186  -0.433  0.00  0.00    +0.260 C 
ATOM     15  O   LIG    1       -0.149   0.088   0.556  0.00  0.00    -0.520 OA
ENDBRANCH   7   8
ENDBRANCH   1   2
BRANCH   1  16
ATOM     16  C   LIG    1        3.445  -1.042  -0.860  0.00  0.00    +0.220 C 
BRANCH  16  17
ATOM     17  O   LIG    1        3.481  -1.698   0.409  0.00  0.00    -0.530 OA
ATOM     18  H   LIG    1        2.689  -2.217   0.607  0.00  0.00    +0.380 HD
ENDBRANCH  16  17
BRANCH  16  19
ATOM     19  C   LIG    1        3.301  -2.086  -1.969  0.00  0.00    +0.160 C 
BRANCH  19  20
ATOM     20  O   LIG    1        4.468  -2.911  -2.002  0.00  0.00    -0.300 OA
BRANCH  20  24
ATOM     21  C   LIG    1        4.569  -5.903  -4.845  0.00  0.00    -0.070 A 
ATOM     22  C   LIG    1        5.645  -5.731  -3.970  0.00  0.00    +0.110 A 
ATOM     23  C   LIG    1        5.607  -4.732  -3.023  0.00  0.00    -0.010 A 
ATOM     24  C   LIG    1        4.501  -3.895  -2.937  0.00  0.00    +0.160 A 
ATOM     25  C   LIG    1        3.426  -4.066  -3.801  0.00  0.00    -0.070 A 
ATOM     26  C   LIG    1        3.458  -5.059  -4.755  0.00  0.00    +0.110 A 
BRANCH  21  28
ATOM     27  N   LIG    1        4.632  -7.763  -6.614  0.00  0.00    -0.420 NA
ATOM     28  C   LIG    1        4.604  -6.941  -5.831  0.00  0.00    +0.250 C 
ENDBRANCH  21  28
ENDBRANCH  20  24
ENDBRANCH  19  20
ENDBRANCH  16  19
ENDBRANCH   1  16
TORSDOF 8
