REMARK  Name = ZINCrD00000F5LvH.0
REMARK                            x       y       z     vdW  Elec       q    Type
REMARK                         _______ _______ _______ _____ _____    ______ ____
ROOT
ATOM      1  C   LIG    1       -2.169  -0.573   0.290  0.00  0.00    +0.040 C 
ATOM      2  C   LIG    1       -0.944  -1.163   0.346  0.00  0.00    +0.190 C 
ENDROOT
BRANCH   1   3
ATOM      3  N   LIG    1       -3.326  -1.362   0.264  0.00  0.00    -0.330 N 
ATOM      4  N   LIG    1       -4.372  -1.376   1.204  0.00  0.00    -0.050 NA
ATOM      5  N   LIG    1       -5.233  -2.242   0.793  0.00  0.00    -0.030 NA
ATOM      6  N   LIG    1       -4.840  -2.785  -0.302  0.00  0.00    -0.310 NA
ATOM      7  C   LIG    1       -3.679  -2.286  -0.674  0.00  0.00    +0.290 A 
BRANCH   7   8
ATOM      8  C   LIG    1       -2.906  -2.658  -1.879  0.00  0.00    -0.040 A 
ATOM      9  C   LIG    1       -1.913  -1.806  -2.365  0.00  0.00    +0.020 A 
ATOM     10  C   LIG    1       -1.191  -2.162  -3.486  0.00  0.00    +0.020 A 
ATOM     11  C   LIG    1       -1.458  -3.353  -4.135  0.00  0.00    +0.040 A 
ATOM     12  C   LIG    1       -2.445  -4.200  -3.662  0.00  0.00    +0.020 A 
ATOM     13  C   LIG    1       -3.170  -3.859  -2.539  0.00  0.00    +0.080 A 
ENDBRANCH   7   8
ENDBRANCH   1   3
BRANCH   2  14
ATOM     14  C   LIG    1        0.216  -0.371   0.515  0.00  0.00    -0.030 A 
ATOM     15  C   LIG    1        1.504  -0.839   0.680  0.00  0.00    +0.030 A 
ATOM     16  C   LIG    1        2.326   0.291   0.810  0.00  0.00    -0.060 A 
ATOM     17  C   LIG    1        1.528   1.378   0.722  0.00  0.00    +0.220 A 
ATOM     18  O   LIG    1        0.261   0.977   0.545  0.00  0.00    -0.160 OA
ENDBRANCH   2  14
BRANCH   1  20
ATOM     19  O   LIG    1       -2.602   1.497   1.258  0.00  0.00    -0.500 OA
ATOM     20  C   LIG    1       -2.277   0.887   0.256  0.00  0.00    +0.570 C 
ATOM     21  N   LIG    1       -2.017   1.555  -0.885  0.00  0.00    -0.710 N 
ATOM     22  H   LIG    1       -1.830   1.067  -1.702  0.00  0.00    +0.400 HD
BRANCH  21  23
ATOM     23  C   LIG    1       -2.018   3.020  -0.892  0.00  0.00    +0.240 C 
ATOM     24  C   LIG    1       -3.447   3.529  -1.093  0.00  0.00    +0.000 C 
ATOM     25  C   LIG    1       -3.448   5.059  -1.100  0.00  0.00    +0.020 C 
ATOM     26  C   LIG    1       -2.563   5.564  -2.241  0.00  0.00    +0.010 C 
ATOM     27  C   LIG    1       -1.134   5.055  -2.041  0.00  0.00    +0.020 C 
ATOM     28  C   LIG    1       -1.133   3.525  -2.034  0.00  0.00    +0.010 C 
ENDBRANCH  21  23
ENDBRANCH   1  20
TORSDOF 5
