REMARK  Name = ZINCqH0000000nWt.0
REMARK                            x       y       z     vdW  Elec       q    Type
REMARK                         _______ _______ _______ _____ _____    ______ ____
ROOT
ATOM      1  N   LIG    1       -3.461  -3.026   0.003  0.00  0.00    -0.660 N 
ATOM      2  H   LIG    1       -2.506  -2.868  -0.070  0.00  0.00    +0.420 HD
ATOM      3  C   LIG    1       -4.317  -1.985   0.006  0.00  0.00    +0.610 C 
ATOM      4  O   LIG    1       -5.516  -2.185   0.015  0.00  0.00    -0.500 OA
ENDROOT
BRANCH   1  10
ATOM      5  C   LIG    1       -3.216  -5.303   0.790  0.00  0.00    +0.100 A 
ATOM      6  C   LIG    1       -3.708  -6.595   0.893  0.00  0.00    +0.030 A 
ATOM      7  C   LIG    1       -4.916  -6.923   0.306  0.00  0.00    +0.010 A 
ATOM      8  C   LIG    1       -5.639  -5.965  -0.379  0.00  0.00    +0.040 A 
ATOM      9  C   LIG    1       -5.159  -4.672  -0.481  0.00  0.00    +0.040 A 
ATOM     10  C   LIG    1       -3.949  -4.334   0.104  0.00  0.00    +0.150 A 
BRANCH   5  13
ATOM     11  C   LIG    1       -3.233  -4.281   3.403  0.00  0.00    +0.090 C 
ATOM     12  C   LIG    1       -1.950  -4.526   2.651  0.00  0.00    +0.520 C 
ATOM     13  N   LIG    1       -1.989  -4.969   1.379  0.00  0.00    -0.580 N 
ATOM     14  C   LIG    1       -0.748  -5.103   0.612  0.00  0.00    +0.300 C 
ATOM     15  O   LIG    1       -0.883  -4.324   3.191  0.00  0.00    -0.530 OA
ENDBRANCH   5  13
ENDBRANCH   1  10
BRANCH   3  16
ATOM     16  C   LIG    1       -3.799  -0.603  -0.002  0.00  0.00    -0.010 A 
ATOM     17  N   LIG    1       -2.530  -0.241  -0.012  0.00  0.00    -0.260 NA
ATOM     18  N   LIG    1       -2.436   1.040  -0.017  0.00  0.00    -0.230 N 
ATOM     19  C   LIG    1       -3.674   1.599  -0.004  0.00  0.00    +0.180 A 
ATOM     20  C   LIG    1       -4.570   0.585  -0.000  0.00  0.00    +0.010 A 
BRANCH  18  21
ATOM     21  C   LIG    1       -1.231   1.756  -0.028  0.00  0.00    +0.140 A 
ATOM     22  C   LIG    1       -1.248   3.144  -0.026  0.00  0.00    +0.020 A 
ATOM     23  C   LIG    1       -0.059   3.848  -0.043  0.00  0.00    +0.070 A 
ATOM     24  C   LIG    1        1.147   3.171  -0.056  0.00  0.00    +0.030 A 
ATOM     25  C   LIG    1        1.167   1.787  -0.052  0.00  0.00    -0.020 A 
ATOM     26 CL   LIG    1        2.683   0.942  -0.068  0.00  0.00    -0.050 Cl
ATOM     27  C   LIG    1       -0.019   1.078  -0.035  0.00  0.00    +0.050 A 
ENDBRANCH  18  21
ENDBRANCH   3  16
TORSDOF 4
