REMARK  Name = ZINCvU00000008nx.0
REMARK                            x       y       z     vdW  Elec       q    Type
REMARK                         _______ _______ _______ _____ _____    ______ ____
ROOT
ATOM      1  C   LIG    1        0.341   6.743   0.035  0.00  0.00    +0.560 C 
ATOM      2  N   LIG    1        1.077   5.614   0.022  0.00  0.00    -0.470 N 
ATOM      3  N   LIG    1        0.569   4.316   0.014  0.00  0.00    -0.230 NA
ATOM      4  C   LIG    1        1.476   3.397   0.006  0.00  0.00    +0.170 C 
ATOM      5  C   LIG    1        2.845   4.038  -0.003  0.00  0.00    +0.100 C 
ATOM      6  C   LIG    1        2.547   5.551   0.008  0.00  0.00    +0.330 C 
ATOM      7  O   LIG    1        0.890   7.825   0.036  0.00  0.00    -0.480 OA
ENDROOT
BRANCH   4   8
ATOM      8  C   LIG    1        1.217   1.953   0.001  0.00  0.00    -0.150 A 
ATOM      9  C   LIG    1       -0.017   1.373   0.010  0.00  0.00    +0.070 A 
ATOM     10  C   LIG    1        0.002  -0.004   0.002  0.00  0.00    +0.010 A 
ATOM     11  C   LIG    1        1.219  -0.557  -0.013  0.00  0.00    -0.030 A 
ATOM     12  S   LIG    1        2.450   0.699  -0.018  0.00  0.00    +0.160 S 
ENDBRANCH   4   8
BRANCH   6  13
ATOM     13  C   LIG    1        3.094   6.208  -1.234  0.00  0.00    -0.030 A 
ATOM     14  C   LIG    1        4.245   6.898  -1.316  0.00  0.00    -0.030 A 
ATOM     15  C   LIG    1        4.366   7.335  -2.655  0.00  0.00    -0.060 A 
ATOM     16  C   LIG    1        3.281   6.886  -3.311  0.00  0.00    +0.170 A 
ATOM     17  O   LIG    1        2.517   6.199  -2.446  0.00  0.00    -0.170 OA
ENDBRANCH   6  13
BRANCH   1  18
ATOM     18  C   LIG    1       -1.164   6.662   0.049  0.00  0.00    +0.240 C 
BRANCH  18  19
ATOM     19  N   LIG    1       -1.727   8.019   0.062  0.00  0.00    -0.510 NA
ATOM     20  C   LIG    1       -1.427   8.725  -1.191  0.00  0.00    +0.200 C 
BRANCH  19  22
ATOM     21  C   LIG    1       -3.441   7.331   1.670  0.00  0.00    +0.070 C 
ATOM     22  C   LIG    1       -3.174   7.985   0.313  0.00  0.00    +0.230 C 
BRANCH  22  23
ATOM     23  C   LIG    1       -3.715   9.392   0.319  0.00  0.00    +0.100 A 
ATOM     24  N   LIG    1       -3.164  10.373   0.927  0.00  0.00    -0.430 NA
ATOM     25  C   LIG    1       -3.757  11.579   0.843  0.00  0.00    +0.080 A 
ATOM     26  C   LIG    1       -3.370  12.813   1.403  0.00  0.00    +0.080 A 
ATOM     27  C   LIG    1       -4.125  13.929   1.200  0.00  0.00    +0.030 A 
ATOM     28  C   LIG    1       -5.284  13.874   0.440  0.00  0.00    +0.040 A 
ATOM     29  C   LIG    1       -5.687  12.681  -0.119  0.00  0.00    +0.060 A 
ATOM     30  C   LIG    1       -4.928  11.530   0.078  0.00  0.00    -0.180 A 
ATOM     31  S   LIG    1       -5.145   9.873  -0.478  0.00  0.00    +0.090 S 
ENDBRANCH  22  23
ENDBRANCH  19  22
ENDBRANCH  18  19
ENDBRANCH   1  18
TORSDOF 6
