REMARK  Name = ZINCrg00000Aun5m.0
REMARK                            x       y       z     vdW  Elec       q    Type
REMARK                         _______ _______ _______ _____ _____    ______ ____
ROOT
ATOM      1  C   LIG    1       -2.401   3.481   6.684  0.00  0.00    +0.570 C 
ATOM      2  N   LIG    1       -1.258   3.513   7.396  0.00  0.00    -0.730 N 
ATOM      3  H   LIG    1       -0.420   3.253   6.981  0.00  0.00    +0.410 HD
ATOM      4  O   LIG    1       -3.451   3.806   7.204  0.00  0.00    -0.510 OA
ENDROOT
BRANCH   1  10
ATOM      5  C   LIG    1       -0.013   1.086   0.008  0.00  0.00    +0.140 C 
ATOM      6  C   LIG    1       -0.718   1.572   1.248  0.00  0.00    +0.080 A 
ATOM      7  C   LIG    1       -0.122   1.830   2.422  0.00  0.00    -0.040 A 
ATOM      8  C   LIG    1       -1.170   2.276   3.344  0.00  0.00    -0.120 A 
ATOM      9  C   LIG    1       -1.177   2.679   4.676  0.00  0.00    +0.130 A 
ATOM     10  C   LIG    1       -2.379   3.051   5.272  0.00  0.00    -0.160 A 
ATOM     11  C   LIG    1       -3.570   3.018   4.530  0.00  0.00    +0.030 A 
ATOM     12  C   LIG    1       -3.565   2.624   3.224  0.00  0.00    +0.010 A 
ATOM     13 CL   LIG    1       -5.064   3.484   5.282  0.00  0.00    -0.030 Cl
ATOM     14  C   LIG    1       -2.373   2.248   2.610  0.00  0.00    +0.130 A 
ATOM     15  N   LIG    1       -2.061   1.821   1.341  0.00  0.00    -0.590 N 
ATOM     16  H   LIG    1       -2.699   1.710   0.619  0.00  0.00    +0.420 HD
ENDBRANCH   1  10
BRANCH   2  17
ATOM     17  C   LIG    1       -1.280   3.939   8.798  0.00  0.00    +0.410 C 
BRANCH  17  18
ATOM     18  C   LIG    1        0.117   3.886   9.361  0.00  0.00    +0.120 C 
ATOM     19  N   LIG    1        1.210   3.523   8.739  0.00  0.00    -0.280 NA
ATOM     20  O   LIG    1        2.348   3.559   9.629  0.00  0.00    -0.180 OA
ATOM     21  C   LIG    1        1.771   3.240  10.870  0.00  0.00    +0.130 C 
ATOM     22  C   LIG    1        2.239   3.663  12.240  0.00  0.00    +0.310 C 
ATOM     23  N   LIG    1        0.958   3.738  13.012  0.00  0.00    -0.630 N 
ATOM     24  C   LIG    1       -0.142   4.002  12.037  0.00  0.00    +0.300 C 
ATOM     25  C   LIG    1        0.823   3.593  14.345  0.00  0.00    +0.530 C 
ATOM     26  O   LIG    1       -0.275   3.675  14.856  0.00  0.00    -0.500 OA
ATOM     27  C   LIG    1        0.543   4.236  10.725  0.00  0.00    -0.040 C 
BRANCH  25  28
ATOM     28  C   LIG    1        2.034   3.329  15.201  0.00  0.00    +0.220 C 
BRANCH  28  29
ATOM     29  O   LIG    1        1.635   3.215  16.569  0.00  0.00    -0.550 OA
ATOM     30  H   LIG    1        2.366   3.044  17.179  0.00  0.00    +0.390 HD
ENDBRANCH  28  29
ENDBRANCH  25  28
ENDBRANCH  17  18
ENDBRANCH   2  17
TORSDOF 5
