REMARK  Name = ZINCrH00000No51T.0
REMARK                            x       y       z     vdW  Elec       q    Type
REMARK                         _______ _______ _______ _____ _____    ______ ____
ROOT
ATOM      1  O   LIG    1        8.358   5.370   4.539  0.00  0.00    -0.540 OA
ATOM      2  C   LIG    1        7.150   5.429   4.399  0.00  0.00    +0.550 C 
ATOM      3  N   LIG    1        6.518   4.533   3.616  0.00  0.00    -0.610 N 
ATOM      4  C   LIG    1        7.277   3.544   2.835  0.00  0.00    +0.300 C 
ATOM      5  C   LIG    1        6.799   3.603   1.380  0.00  0.00    +0.180 C 
ATOM      6  N   LIG    1        5.340   3.438   1.340  0.00  0.00    -0.530 NA
ATOM      7  C   LIG    1        4.660   4.538   2.037  0.00  0.00    +0.180 C 
ATOM      8  C   LIG    1        5.050   4.518   3.518  0.00  0.00    +0.280 C 
ENDROOT
BRANCH   2   9
ATOM      9  C   LIG    1        6.385   6.473   5.082  0.00  0.00    -0.080 C 
ATOM     10  C   LIG    1        7.027   7.433   5.778  0.00  0.00    +0.120 C 
BRANCH  10  11
ATOM     11  C   LIG    1        6.258   8.483   6.464  0.00  0.00    -0.110 A 
ATOM     12  C   LIG    1        4.862   8.492   6.393  0.00  0.00    +0.070 A 
ATOM     13  C   LIG    1        4.147   9.475   7.044  0.00  0.00    +0.010 A 
ATOM     14  C   LIG    1        4.808  10.460   7.757  0.00  0.00    +0.060 A 
ATOM     15  C   LIG    1        6.190  10.464   7.830  0.00  0.00    -0.020 A 
ATOM     16  C   LIG    1        6.921   9.482   7.188  0.00  0.00    +0.120 A 
ATOM     17  F   LIG    1        8.270   9.487   7.259  0.00  0.00    -0.130 F 
ENDBRANCH  10  11
ENDBRANCH   2   9
BRANCH   6  18
ATOM     18  C   LIG    1        4.861   3.316  -0.044  0.00  0.00    +0.300 C 
BRANCH  18  19
ATOM     19  C   LIG    1        3.411   2.906  -0.039  0.00  0.00    +0.100 A 
ATOM     20  N   LIG    1        2.431   3.728  -0.028  0.00  0.00    -0.460 NA
ATOM     21  C   LIG    1        1.184   3.220  -0.026  0.00  0.00    +0.080 A 
ATOM     22  C   LIG    1       -0.059   3.884  -0.014  0.00  0.00    +0.070 A 
ATOM     23  C   LIG    1       -1.221   3.174  -0.015  0.00  0.00    +0.030 A 
ATOM     24  C   LIG    1       -1.205   1.786  -0.031  0.00  0.00    +0.040 A 
ATOM     25  C   LIG    1       -0.006   1.110  -0.037  0.00  0.00    +0.060 A 
ATOM     26  C   LIG    1        1.193   1.820  -0.037  0.00  0.00    -0.190 A 
ATOM     27  S   LIG    1        2.871   1.287  -0.050  0.00  0.00    +0.130 S 
ENDBRANCH  18  19
ENDBRANCH   6  18
TORSDOF 4
