REMARK  Name = ZINCpk00000eaT1n.0
REMARK                            x       y       z     vdW  Elec       q    Type
REMARK                         _______ _______ _______ _____ _____    ______ ____
ROOT
ATOM      1  O   LIG    1        3.333   8.077  -0.300  0.00  0.00    -0.330 OA
ENDROOT
BRANCH   1   2
ATOM      2  C   LIG    1        4.383   8.904  -0.414  0.00  0.00    +0.450 C 
ATOM      3  O   LIG    1        5.505   8.456  -0.441  0.00  0.00    -0.490 OA
BRANCH   2   4
ATOM      4  C   LIG    1        4.164  10.392  -0.509  0.00  0.00    +0.420 C 
BRANCH   4   5
ATOM      5  N   LIG    1        5.458  11.070  -0.625  0.00  0.00    -0.570 N 
ATOM      6  C   LIG    1        6.176  11.502   0.418  0.00  0.00    +0.710 C 
ATOM      7  N   LIG    1        7.327  12.088   0.042  0.00  0.00    -0.720 N 
ATOM      8  H   LIG    1        8.001  12.469   0.625  0.00  0.00    +0.440 HD
ATOM      9  C   LIG    1        7.362  12.041  -1.430  0.00  0.00    +0.120 C 
ATOM     10  C   LIG    1        7.393  13.454  -2.016  0.00  0.00    +0.090 C 
ATOM     11  C   LIG    1        8.567  11.232  -1.915  0.00  0.00    +0.090 C 
ATOM     12  O   LIG    1        5.830  11.375   1.576  0.00  0.00    -0.540 OA
ATOM     13  C   LIG    1        6.068  11.341  -1.795  0.00  0.00    +0.540 C 
ATOM     14  O   LIG    1        5.666  11.079  -2.909  0.00  0.00    -0.450 OA
ENDBRANCH   4   5
ENDBRANCH   2   4
ENDBRANCH   1   2
BRANCH   1  15
ATOM     15  C   LIG    1        3.619   6.656  -0.214  0.00  0.00    +0.270 C 
BRANCH  15  18
ATOM     16  N   LIG    1        2.346   4.546   0.003  0.00  0.00    -0.660 N 
ATOM     17  H   LIG    1        3.193   4.077   0.073  0.00  0.00    +0.420 HD
ATOM     18  C   LIG    1        2.326   5.890  -0.092  0.00  0.00    +0.520 C 
ATOM     19  O   LIG    1        1.269   6.483  -0.079  0.00  0.00    -0.490 OA
BRANCH  16  27
ATOM     20  C   LIG    1        2.313   1.982   1.238  0.00  0.00    +0.110 C 
ATOM     21  C   LIG    1        1.086   2.571   0.592  0.00  0.00    -0.110 A 
ATOM     22  C   LIG    1       -0.101   1.863   0.587  0.00  0.00    -0.020 A 
ATOM     23  C   LIG    1       -1.227   2.402  -0.012  0.00  0.00    +0.020 A 
ATOM     24  C   LIG    1       -1.170   3.653  -0.596  0.00  0.00    +0.050 A 
ATOM     25  C   LIG    1        0.013   4.366  -0.594  0.00  0.00    +0.030 A 
ATOM     26 CL   LIG    1       -0.178   0.294   1.325  0.00  0.00    -0.060 Cl
ATOM     27  C   LIG    1        1.146   3.826   0.000  0.00  0.00    +0.160 A 
ENDBRANCH  16  27
ENDBRANCH  15  18
ENDBRANCH   1  15
TORSDOF 6
