REMARK  Name = ZINCpe00000VVGTw.0
REMARK                            x       y       z     vdW  Elec       q    Type
REMARK                         _______ _______ _______ _____ _____    ______ ____
ROOT
ATOM      1  C   LIG    1       -0.019   1.539   0.011  0.00  0.00    +0.190 C 
ATOM      2  C   LIG    1        0.002  -0.004   0.002  0.00  0.00    +0.260 C 
ATOM      3  N   LIG    1        1.303  -0.420  -0.543  0.00  0.00    -0.620 N 
ATOM      4  C   LIG    1        2.075   0.785  -0.895  0.00  0.00    +0.250 C 
ATOM      5  C   LIG    1        1.720  -1.692  -0.695  0.00  0.00    +0.530 C 
ATOM      6  O   LIG    1        0.998  -2.611  -0.369  0.00  0.00    -0.530 OA
ATOM      7  C   LIG    1        1.488   1.907  -0.002  0.00  0.00    +0.190 C 
ENDROOT
BRANCH   7   8
ATOM      8  O   LIG    1        1.697   3.192  -0.591  0.00  0.00    -0.550 OA
ATOM      9  H   LIG    1        2.624   3.466  -0.621  0.00  0.00    +0.390 HD
ENDBRANCH   7   8
BRANCH   1  10
ATOM     10  O   LIG    1       -0.649   2.030   1.195  0.00  0.00    -0.280 OA
BRANCH  10  14
ATOM     11  C   LIG    1       -5.211   3.264   2.427  0.00  0.00    +0.370 C 
ATOM     12  N   LIG    1       -4.041   2.810   1.671  0.00  0.00    -0.370 N 
ATOM     13  C   LIG    1       -2.770   2.717   2.143  0.00  0.00    +0.210 A 
ATOM     14  C   LIG    1       -1.991   2.259   1.132  0.00  0.00    -0.030 A 
ATOM     15  C   LIG    1       -2.810   2.059   0.014  0.00  0.00    +0.180 A 
ATOM     16  N   LIG    1       -4.035   2.388   0.336  0.00  0.00    -0.270 NA
ENDBRANCH  10  14
ENDBRANCH   1  10
BRANCH   5  17
ATOM     17  C   LIG    1        3.084  -1.974  -1.270  0.00  0.00    +0.070 C 
BRANCH  17  18
ATOM     18  C   LIG    1        3.308  -3.487  -1.334  0.00  0.00    +0.110 C 
BRANCH  18  19
ATOM     19  C   LIG    1        4.672  -3.769  -1.909  0.00  0.00    -0.050 A 
ATOM     20  C   LIG    1        4.825  -3.925  -3.275  0.00  0.00    +0.010 A 
ATOM     21  C   LIG    1        6.071  -4.179  -3.809  0.00  0.00    +0.060 A 
ATOM     22  C   LIG    1        7.179  -4.288  -2.965  0.00  0.00    -0.030 A 
ATOM     23  C   LIG    1        7.017  -4.134  -1.587  0.00  0.00    +0.060 A 
ATOM     24  C   LIG    1        5.765  -3.875  -1.068  0.00  0.00    +0.010 A 
BRANCH  22  25
ATOM     25  C   LIG    1        8.475  -4.558  -3.511  0.00  0.00    +0.250 C 
ATOM     26  N   LIG    1        9.503  -4.771  -3.944  0.00  0.00    -0.410 NA
ENDBRANCH  22  25
ENDBRANCH  18  19
ENDBRANCH  17  18
ENDBRANCH   5  17
TORSDOF 7
