REMARK  Name = ZINCpk000000n1SD.0
REMARK                            x       y       z     vdW  Elec       q    Type
REMARK                         _______ _______ _______ _____ _____    ______ ____
ROOT
ATOM      1  N   LIG    1        5.805   3.901  -0.597  0.00  0.00    -0.990 NA
ATOM      2  C   LIG    1        6.279   2.782  -1.425  0.00  0.00    +0.300 C 
ATOM      3  C   LIG    1        5.135   2.333  -2.342  0.00  0.00    +0.300 C 
ATOM      4  N   LIG    1        3.925   2.149  -1.529  0.00  0.00    -0.620 N 
ATOM      5  C   LIG    1        3.448   3.270  -0.706  0.00  0.00    +0.250 C 
ATOM      6  C   LIG    1        3.261   0.976  -1.542  0.00  0.00    +0.730 C 
ATOM      7  N   LIG    1        2.047   0.882  -0.963  0.00  0.00    -0.640 N 
ATOM      8  C   LIG    1        1.132  -0.268  -1.068  0.00  0.00    +0.270 C 
ATOM      9  C   LIG    1        0.236  -0.179   0.192  0.00  0.00    +0.040 C 
ATOM     10  C   LIG    1        0.052   1.355   0.336  0.00  0.00    +0.030 C 
ATOM     11  C   LIG    1        1.417   1.911  -0.122  0.00  0.00    +0.250 C 
ATOM     12  O   LIG    1        3.757   0.003  -2.076  0.00  0.00    -0.580 OA
ATOM     13  C   LIG    1        4.595   3.717   0.216  0.00  0.00    +0.290 C 
ENDROOT
BRANCH   1  14
ATOM     14  S   LIG    1        6.621   5.342  -0.581  0.00  0.00    +2.690 S 
ATOM     15  O   LIG    1        7.955   5.052  -0.973  0.00  0.00    -0.950 OA
ATOM     16  O   LIG    1        6.292   5.976   0.647  0.00  0.00    -0.950 OA
BRANCH  14  20
ATOM     17  C   LIG    1        4.855   7.920  -3.864  0.00  0.00    -0.120 A 
ATOM     18  C   LIG    1        4.324   7.966  -2.571  0.00  0.00    +0.060 A 
ATOM     19  C   LIG    1        4.867   7.179  -1.578  0.00  0.00    +0.120 A 
ATOM     20  C   LIG    1        5.934   6.344  -1.858  0.00  0.00    -0.650 A 
ATOM     21  C   LIG    1        6.469   6.296  -3.133  0.00  0.00    +0.120 A 
ATOM     22  C   LIG    1        5.934   7.073  -4.139  0.00  0.00    +0.050 A 
BRANCH  17  24
ATOM     23  C   LIG    1        4.856   8.703  -6.322  0.00  0.00    +0.090 C 
ATOM     24  C   LIG    1        4.281   8.756  -4.930  0.00  0.00    +0.390 C 
ATOM     25  O   LIG    1        3.345   9.489  -4.689  0.00  0.00    -0.440 OA
ENDBRANCH  17  24
ENDBRANCH  14  20
ENDBRANCH   1  14
TORSDOF 3
