REMARK  Name = ZINCtV00000L6jh1.0
REMARK                            x       y       z     vdW  Elec       q    Type
REMARK                         _______ _______ _______ _____ _____    ______ ____
ROOT
ATOM      1  C   LIG    1       -5.555   4.753   4.040  0.00  0.00    +0.050 A 
ATOM      2  C   LIG    1       -5.298   4.169   5.250  0.00  0.00    -0.060 A 
ATOM      3  C   LIG    1       -4.279   3.135   4.987  0.00  0.00    -0.160 A 
ATOM      4  C   LIG    1       -4.018   3.211   3.628  0.00  0.00    +0.320 A 
ATOM      5  O   LIG    1       -4.788   4.171   3.099  0.00  0.00    -0.140 OA
ENDROOT
BRANCH   1  10
ATOM      6  C   LIG    1       -9.311   9.011   3.121  0.00  0.00    +0.090 C 
ATOM      7  C   LIG    1       -8.327   7.895   3.361  0.00  0.00    -0.070 A 
ATOM      8  C   LIG    1       -7.052   7.974   2.829  0.00  0.00    +0.010 A 
ATOM      9  C   LIG    1       -6.146   6.957   3.045  0.00  0.00    +0.050 A 
ATOM     10  C   LIG    1       -6.518   5.845   3.804  0.00  0.00    -0.030 A 
ATOM     11  C   LIG    1       -7.809   5.769   4.334  0.00  0.00    +0.060 A 
ATOM     12  C   LIG    1       -8.703   6.796   4.114  0.00  0.00    +0.010 A 
ENDBRANCH   1  10
BRANCH   2  13
ATOM     13  C   LIG    1       -5.918   4.501   6.553  0.00  0.00    -0.030 A 
ATOM     14  C   LIG    1       -5.676   5.739   7.149  0.00  0.00    +0.030 A 
ATOM     15  C   LIG    1       -6.261   6.044   8.360  0.00  0.00    +0.010 A 
ATOM     16  C   LIG    1       -7.077   5.121   8.990  0.00  0.00    -0.080 A 
ATOM     17  C   LIG    1       -7.317   3.890   8.407  0.00  0.00    +0.000 A 
ATOM     18  C   LIG    1       -7.708   5.459  10.316  0.00  0.00    +0.090 C 
ATOM     19  C   LIG    1       -6.742   3.575   7.192  0.00  0.00    +0.020 A 
ENDBRANCH   2  13
BRANCH   4  20
ATOM     20  N   LIG    1       -3.118   2.424   2.934  0.00  0.00    -0.630 N 
ATOM     21  H   LIG    1       -2.600   1.750   3.403  0.00  0.00    +0.440 HD
ATOM     22  C   LIG    1       -2.958   2.593   1.606  0.00  0.00    +0.520 C 
ATOM     23  O   LIG    1       -3.605   3.436   1.020  0.00  0.00    -0.480 OA
BRANCH  22  24
ATOM     24  C   LIG    1       -1.977   1.735   0.850  0.00  0.00    +0.000 C 
ATOM     25  C   LIG    1       -0.526   2.021   1.321  0.00  0.00    +0.040 C 
ATOM     26  C   LIG    1        0.319   1.570   0.104  0.00  0.00    +0.020 C 
ATOM     27  C   LIG    1       -0.512   2.007  -1.121  0.00  0.00    +0.010 C 
ATOM     28  C   LIG    1       -1.972   2.112  -0.646  0.00  0.00    +0.050 C 
ENDBRANCH  22  24
ENDBRANCH   4  20
BRANCH   3  29
ATOM     29  C   LIG    1       -3.683   2.244   5.936  0.00  0.00    +0.280 C 
ATOM     30  N   LIG    1       -3.210   1.537   6.688  0.00  0.00    -0.410 NA
ENDBRANCH   3  29
TORSDOF 5
