REMARK  Name = ZINCrH000004rw2C.0
REMARK                            x       y       z     vdW  Elec       q    Type
REMARK                         _______ _______ _______ _____ _____    ______ ____
ROOT
ATOM      1  C   LIG    1       -2.260   4.113   0.200  0.00  0.00    +0.580 C 
ATOM      2  N   LIG    1       -2.411   5.444   0.349  0.00  0.00    -0.610 N 
ATOM      3  C   LIG    1       -1.326   6.442   0.310  0.00  0.00    +0.250 C 
ATOM      4  C   LIG    1       -2.019   7.767  -0.093  0.00  0.00    +0.040 C 
ATOM      5  C   LIG    1       -3.372   7.651   0.658  0.00  0.00    +0.050 C 
ATOM      6  C   LIG    1       -3.685   6.143   0.572  0.00  0.00    +0.180 C 
ATOM      7  C   LIG    1       -4.638   5.871  -0.594  0.00  0.00    +0.030 C 
ATOM      8  O   LIG    1       -3.237   3.393   0.151  0.00  0.00    -0.510 OA
ENDROOT
BRANCH   1  15
ATOM      9  C   LIG    1       -1.773   1.950  -1.659  0.00  0.00    +0.120 C 
ATOM     10  C   LIG    1       -0.659   2.486  -0.798  0.00  0.00    +0.020 A 
ATOM     11  C   LIG    1        0.606   1.943  -0.887  0.00  0.00    -0.010 A 
ATOM     12  C   LIG    1        1.632   2.438  -0.101  0.00  0.00    +0.150 A 
ATOM     13  C   LIG    1        1.396   3.476   0.782  0.00  0.00    -0.670 A 
ATOM     14  C   LIG    1        0.134   4.025   0.885  0.00  0.00    +0.160 A 
ATOM     15  C   LIG    1       -0.905   3.530   0.095  0.00  0.00    -0.150 A 
BRANCH  13  16
ATOM     16  S   LIG    1        2.709   4.099   1.778  0.00  0.00    +2.500 S 
ATOM     17  O   LIG    1        3.606   3.004   1.900  0.00  0.00    -0.930 OA
ATOM     18  O   LIG    1        2.057   4.643   2.917  0.00  0.00    -0.930 OA
ATOM     19  C   LIG    1        3.449   5.419   0.777  0.00  0.00    -0.260 C 
ENDBRANCH  13  16
ENDBRANCH   1  15
BRANCH   6  20
ATOM     20  C   LIG    1       -4.316   5.669   1.883  0.00  0.00    +0.080 C 
BRANCH  20  21
ATOM     21  C   LIG    1       -5.632   6.373   2.090  0.00  0.00    -0.110 A 
ATOM     22  C   LIG    1       -5.682   7.545   2.820  0.00  0.00    +0.040 A 
ATOM     23  C   LIG    1       -6.890   8.190   3.010  0.00  0.00    +0.000 A 
ATOM     24  C   LIG    1       -8.049   7.664   2.471  0.00  0.00    +0.040 A 
ATOM     25  C   LIG    1       -8.001   6.492   1.741  0.00  0.00    -0.020 A 
ATOM     26  C   LIG    1       -6.791   5.848   1.544  0.00  0.00    +0.110 A 
ATOM     27  F   LIG    1       -6.743   4.705   0.826  0.00  0.00    -0.130 F 
ENDBRANCH  20  21
ENDBRANCH   6  20
TORSDOF 4
