REMARK  Name = ZINCrg000000sQME.0
REMARK                            x       y       z     vdW  Elec       q    Type
REMARK                         _______ _______ _______ _____ _____    ______ ____
ROOT
ATOM      1  N   LIG    1        3.499   0.666  -0.027  0.00  0.00    -0.710 N 
ATOM      2  H   LIG    1        3.991  -0.169  -0.036  0.00  0.00    +0.420 HD
ENDROOT
BRANCH   1   6
ATOM      3  N   LIG    1        0.002  -0.004   0.002  0.00  0.00    -0.330 N 
ATOM      4  C   LIG    1       -0.016   1.354   0.009  0.00  0.00    +0.270 A 
ATOM      5  C   LIG    1        1.266   1.784  -0.000  0.00  0.00    -0.120 A 
ATOM      6  C   LIG    1        2.100   0.653  -0.015  0.00  0.00    +0.360 A 
ATOM      7  N   LIG    1        1.341  -0.417  -0.013  0.00  0.00    -0.340 NA
BRANCH   3  14
ATOM      8  C   LIG    1       -0.953  -2.235  -0.001  0.00  0.00    -0.000 A 
ATOM      9  C   LIG    1       -2.079  -3.062   0.005  0.00  0.00    +0.070 A 
ATOM     10  C   LIG    1       -3.342  -2.504   0.019  0.00  0.00    +0.090 A 
ATOM     11  C   LIG    1       -3.498  -1.126   0.028  0.00  0.00    +0.060 A 
ATOM     12  C   LIG    1       -2.393  -0.298   0.028  0.00  0.00    +0.030 A 
ATOM     13  F   LIG    1       -4.430  -3.305   0.024  0.00  0.00    -0.130 F 
ATOM     14  C   LIG    1       -1.117  -0.841   0.008  0.00  0.00    +0.210 A 
BRANCH   8  16
ATOM     15  N   LIG    1        1.401  -3.259  -0.027  0.00  0.00    -0.380 NA
ATOM     16  C   LIG    1        0.360  -2.806  -0.016  0.00  0.00    +0.250 C 
ENDBRANCH   8  16
ENDBRANCH   3  14
ENDBRANCH   1   6
BRANCH   1  17
ATOM     17  C   LIG    1        4.219   1.942  -0.028  0.00  0.00    +0.320 C 
BRANCH  17  18
ATOM     18  C   LIG    1        5.704   1.680  -0.043  0.00  0.00    +0.510 C 
ATOM     19  N   LIG    1        6.570   2.712  -0.046  0.00  0.00    -0.610 N 
ATOM     20  C   LIG    1        6.082   4.099  -0.041  0.00  0.00    +0.270 C 
ATOM     21  C   LIG    1        6.720   4.854  -1.206  0.00  0.00    +0.020 C 
ATOM     22  C   LIG    1        8.242   4.723  -1.124  0.00  0.00    +0.060 C 
ATOM     23  C   LIG    1        8.635   3.247  -1.231  0.00  0.00    -0.020 C 
ATOM     24  C   LIG    1        8.019   2.473  -0.061  0.00  0.00    +0.300 C 
ATOM     25  O   LIG    1        6.118   0.540  -0.052  0.00  0.00    -0.530 OA
BRANCH  23  26
ATOM     26  C   LIG    1       10.136   3.122  -1.183  0.00  0.00    +0.520 C 
ATOM     27  O   LIG    1       10.825   4.114  -1.077  0.00  0.00    -0.540 OA
ATOM     28  N   LIG    1       10.713   1.906  -1.257  0.00  0.00    -0.850 N 
ATOM     29  H   LIG    1       11.679   1.825  -1.226  0.00  0.00    +0.400 HD
ATOM     30  H   LIG    1       10.162   1.112  -1.342  0.00  0.00    +0.400 HD
ENDBRANCH  23  26
ENDBRANCH  17  18
ENDBRANCH   1  17
TORSDOF 6
