REMARK  Name = ZINCnE000001R37f.0
REMARK                            x       y       z     vdW  Elec       q    Type
REMARK                         _______ _______ _______ _____ _____    ______ ____
ROOT
ATOM      1  N   LIG    1        1.641   7.007   0.023  0.00  0.00    -1.020 NA
ENDROOT
BRANCH   1   2
ATOM      2  C   LIG    1        1.310   5.667   0.019  0.00  0.00    +0.480 A 
ATOM      3  N   LIG    1        0.107   5.207   0.029  0.00  0.00    -0.560 NA
ATOM      4  C   LIG    1       -0.056   3.868   0.024  0.00  0.00    +0.160 A 
ATOM      5  C   LIG    1       -1.255   3.125   0.031  0.00  0.00    -0.090 A 
ATOM      6  C   LIG    1       -1.223   1.753   0.017  0.00  0.00    +0.020 A 
ATOM      7  C   LIG    1       -0.013   1.076   0.008  0.00  0.00    -0.040 A 
ATOM      8  C   LIG    1        1.171   1.781   0.000  0.00  0.00    -0.030 A 
ATOM      9  C   LIG    1        2.485   1.043  -0.016  0.00  0.00    +0.080 C 
ATOM     10  C   LIG    1       -2.581   3.842   0.047  0.00  0.00    +0.080 C 
ATOM     11  C   LIG    1        1.157   3.173   0.008  0.00  0.00    -0.180 A 
ATOM     12  S   LIG    1        2.471   4.347   0.001  0.00  0.00    -0.150 S 
ENDBRANCH   1   2
BRANCH   1  13
ATOM     13  S   LIG    1        3.232   7.467   0.010  0.00  0.00    +2.650 S 
ATOM     14  O   LIG    1        3.757   7.062  -1.247  0.00  0.00    -1.000 OA
ATOM     15  O   LIG    1        3.781   7.049   1.252  0.00  0.00    -1.000 OA
BRANCH  13  23
ATOM     16  C   LIG    1        3.260   9.597  -2.543  0.00  0.00    +0.190 C 
ATOM     17  C   LIG    1        3.276  10.057  -1.108  0.00  0.00    +0.170 A 
ATOM     18  N   LIG    1        3.298  11.300  -0.702  0.00  0.00    -0.290 NA
ATOM     19  N   LIG    1        3.312  11.303   0.699  0.00  0.00    -0.360 N 
ATOM     20  C   LIG    1        3.292  10.020   1.117  0.00  0.00    +0.230 A 
ATOM     21 CL   LIG    1        3.300   9.481   2.768  0.00  0.00    +0.030 Cl
ATOM     22  C   LIG    1        3.343  12.489   1.558  0.00  0.00    +0.360 C 
ATOM     23  C   LIG    1        3.266   9.229   0.018  0.00  0.00    -0.740 A 
ENDBRANCH  13  23
ENDBRANCH   1  13
TORSDOF 3
