REMARK  Name = ZINCrH000004nh6h.0
REMARK                            x       y       z     vdW  Elec       q    Type
REMARK                         _______ _______ _______ _____ _____    ______ ____
ROOT
ATOM      1  C   LIG    1       -0.836   1.653   6.049  0.00  0.00    +0.380 A 
ATOM      2  N   LIG    1       -1.921   2.402   5.986  0.00  0.00    -0.500 NA
ATOM      3  C   LIG    1       -2.522   2.821   7.108  0.00  0.00    +0.170 A 
ATOM      4  C   LIG    1       -3.676   3.616   7.077  0.00  0.00    +0.030 A 
ATOM      5  C   LIG    1       -4.250   4.016   8.248  0.00  0.00    +0.070 A 
ATOM      6  C   LIG    1       -3.708   3.645   9.475  0.00  0.00    +0.000 A 
ATOM      7  C   LIG    1       -2.586   2.871   9.540  0.00  0.00    +0.080 A 
ATOM      8  C   LIG    1       -1.972   2.445   8.358  0.00  0.00    -0.140 A 
ATOM      9  C   LIG    1       -0.806   1.639   8.365  0.00  0.00    +0.400 A 
ATOM     10  N   LIG    1       -0.289   1.273   7.202  0.00  0.00    -0.540 NA
ENDROOT
BRANCH   9  11
ATOM     11  N   LIG    1       -0.227   1.243   9.552  0.00  0.00    -0.500 N 
ATOM     12  C   LIG    1       -0.298  -0.209   9.710  0.00  0.00    +0.200 C 
ATOM     13  C   LIG    1        0.328  -0.681  11.035  0.00  0.00    +0.060 C 
ATOM     14  C   LIG    1        1.750  -0.160  11.053  0.00  0.00    -0.040 C 
ATOM     15  C   LIG    1        2.566  -0.370  12.328  0.00  0.00    +0.220 C 
ATOM     16  O   LIG    1        3.546   0.708  12.281  0.00  0.00    -0.390 OA
ATOM     17  C   LIG    1        3.046   1.792  11.464  0.00  0.00    +0.210 C 
ATOM     18  C   LIG    1        1.635   1.396  11.058  0.00  0.00    -0.030 C 
ATOM     19  C   LIG    1        1.137   1.796   9.687  0.00  0.00    +0.220 C 
ENDBRANCH   9  11
BRANCH   1  24
ATOM     20  C   LIG    1       -0.155   1.173   2.380  0.00  0.00    +0.120 A 
ATOM     21  C   LIG    1        0.983   0.379   2.419  0.00  0.00    -0.060 A 
ATOM     22  C   LIG    1        1.532   0.011   3.634  0.00  0.00    +0.040 A 
ATOM     23  C   LIG    1        0.945   0.420   4.813  0.00  0.00    +0.030 A 
ATOM     24  C   LIG    1       -0.202   1.212   4.783  0.00  0.00    -0.010 A 
ATOM     25  C   LIG    1       -0.752   1.588   3.559  0.00  0.00    +0.050 A 
BRANCH  20  27
ATOM     26  C   LIG    1       -0.022   1.073   0.008  0.00  0.00    +0.250 C 
ATOM     27  O   LIG    1       -0.688   1.537   1.184  0.00  0.00    -0.320 OA
ENDBRANCH  20  27
ENDBRANCH   1  24
TORSDOF 3
