REMARK  Name = ZINCpk00000xWKde.1
REMARK                            x       y       z     vdW  Elec       q    Type
REMARK                         _______ _______ _______ _____ _____    ______ ____
ROOT
ATOM      1  C   LIG    1        2.221   0.723  -0.067  0.00  0.00    +0.170 C 
ATOM      2  C   LIG    1        1.426  -0.435   0.593  0.00  0.00    +0.100 C 
ATOM      3  C   LIG    1       -0.042   0.009   0.416  0.00  0.00    +0.340 C 
ATOM      4  N   LIG    1       -0.037   1.468   0.232  0.00  0.00    -0.610 N 
ATOM      5  C   LIG    1       -1.124   2.236   0.020  0.00  0.00    +0.570 C 
ATOM      6  O   LIG    1       -1.005   3.442  -0.082  0.00  0.00    -0.500 OA
ATOM      7  C   LIG    1        1.354   1.950   0.311  0.00  0.00    +0.280 C 
ENDROOT
BRANCH   5   8
ATOM      8  C   LIG    1       -2.459   1.614  -0.089  0.00  0.00    -0.170 A 
ATOM      9  C   LIG    1       -2.576   0.234  -0.095  0.00  0.00    +0.150 A 
ATOM     10  C   LIG    1       -3.848  -0.352  -0.198  0.00  0.00    +0.060 A 
ATOM     11  N   LIG    1       -3.992  -1.682  -0.207  0.00  0.00    -0.400 NA
ATOM     12  C   LIG    1       -5.192  -2.207  -0.304  0.00  0.00    +0.260 A 
ATOM     13  C   LIG    1       -6.321  -1.390  -0.398  0.00  0.00    +0.290 A 
ATOM     14  N   LIG    1       -6.206  -0.081  -0.391  0.00  0.00    -0.430 NA
ATOM     15  C   LIG    1       -4.994   0.478  -0.293  0.00  0.00    +0.120 A 
ATOM     16  C   LIG    1       -4.844   1.875  -0.284  0.00  0.00    +0.030 A 
ATOM     17  C   LIG    1       -3.605   2.427  -0.179  0.00  0.00    +0.170 A 
ATOM     18  F   LIG    1       -3.472   3.772  -0.165  0.00  0.00    -0.100 F 
ENDBRANCH   5   8
BRANCH   3  19
ATOM     19  C   LIG    1       -0.840  -0.349   1.643  0.00  0.00    +0.150 A 
ATOM     20  N   LIG    1       -0.955  -1.538   2.170  0.00  0.00    -0.260 NA
ATOM     21  N   LIG    1       -1.711  -1.479   3.209  0.00  0.00    -0.280 NA
ATOM     22  C   LIG    1       -2.112  -0.250   3.392  0.00  0.00    +0.380 A 
ATOM     23  N   LIG    1       -1.567   0.502   2.405  0.00  0.00    -0.580 N 
ATOM     24  H   LIG    1       -1.676   1.457   2.272  0.00  0.00    +0.430 HD
ENDBRANCH   3  19
BRANCH   1  26
ATOM     25  C   LIG    1        3.465   1.102  -2.080  0.00  0.00    +0.210 C 
ATOM     26  O   LIG    1        2.285   0.558  -1.485  0.00  0.00    -0.370 OA
ENDBRANCH   1  26
TORSDOF 3
