REMARK  Name = ZINCpk00000xWKde.0
REMARK                            x       y       z     vdW  Elec       q    Type
REMARK                         _______ _______ _______ _____ _____    ______ ____
ROOT
ATOM      1  C   LIG    1       -3.055   3.170   0.647  0.00  0.00    +0.170 C 
ATOM      2  C   LIG    1       -3.695   1.832   0.190  0.00  0.00    +0.080 C 
ATOM      3  C   LIG    1       -2.493   0.865   0.167  0.00  0.00    +0.350 C 
ATOM      4  N   LIG    1       -1.277   1.682   0.043  0.00  0.00    -0.590 N 
ATOM      5  C   LIG    1       -0.014   1.211   0.009  0.00  0.00    +0.580 C 
ATOM      6  O   LIG    1        0.188   0.013   0.011  0.00  0.00    -0.510 OA
ATOM      7  C   LIG    1       -1.667   3.102  -0.032  0.00  0.00    +0.250 C 
ENDROOT
BRANCH   5   8
ATOM      8  C   LIG    1        1.124   2.153  -0.037  0.00  0.00    -0.140 A 
ATOM      9  C   LIG    1        1.010   3.335  -0.749  0.00  0.00    +0.140 A 
ATOM     10  C   LIG    1        2.095   4.226  -0.788  0.00  0.00    +0.060 A 
ATOM     11  N   LIG    1        2.015   5.375  -1.468  0.00  0.00    -0.410 NA
ATOM     12  C   LIG    1        3.043   6.192  -1.490  0.00  0.00    +0.260 A 
ATOM     13  C   LIG    1        4.221   5.873  -0.810  0.00  0.00    +0.280 A 
ATOM     14  N   LIG    1        4.324   4.750  -0.136  0.00  0.00    -0.430 NA
ATOM     15  C   LIG    1        3.291   3.901  -0.098  0.00  0.00    +0.120 A 
ATOM     16  C   LIG    1        3.377   2.693   0.615  0.00  0.00    +0.030 A 
ATOM     17  C   LIG    1        2.315   1.844   0.649  0.00  0.00    +0.170 A 
ATOM     18  F   LIG    1        2.405   0.688   1.343  0.00  0.00    -0.110 F 
ENDBRANCH   5   8
BRANCH   3  19
ATOM     19  C   LIG    1       -2.607  -0.066  -1.013  0.00  0.00    +0.220 A 
ATOM     20  N   LIG    1       -2.942  -1.329  -0.955  0.00  0.00    -0.300 NA
ATOM     21  N   LIG    1       -2.926  -1.814  -2.272  0.00  0.00    -0.480 N 
ATOM     22  H   LIG    1       -3.130  -2.717  -2.562  0.00  0.00    +0.440 HD
ATOM     23  C   LIG    1       -2.572  -0.778  -3.053  0.00  0.00    +0.480 A 
ATOM     24  N   LIG    1       -2.389   0.265  -2.285  0.00  0.00    -0.530 NA
ENDBRANCH   3  19
BRANCH   1  26
ATOM     25  C   LIG    1       -3.004   4.531   2.620  0.00  0.00    +0.210 C 
ATOM     26  O   LIG    1       -2.923   3.214   2.070  0.00  0.00    -0.370 OA
ENDBRANCH   1  26
TORSDOF 3
