REMARK  Name = ZINCnE000001EDVE.1
REMARK                            x       y       z     vdW  Elec       q    Type
REMARK                         _______ _______ _______ _____ _____    ______ ____
ROOT
ATOM      1  C   LIG    1        1.635   4.409   0.597  0.00  0.00    +0.240 A 
ATOM      2  C   LIG    1        2.862   4.233  -0.031  0.00  0.00    -0.030 A 
ATOM      3  C   LIG    1        3.492   5.305  -0.633  0.00  0.00    +0.040 A 
ATOM      4  C   LIG    1        2.905   6.556  -0.612  0.00  0.00    -0.040 A 
ATOM      5  C   LIG    1        1.679   6.739   0.015  0.00  0.00    +0.160 A 
ATOM      6  C   LIG    1        1.041   5.663   0.616  0.00  0.00    -0.050 A 
ENDROOT
BRANCH   1  11
ATOM      7  C   LIG    1       -1.741   1.678   3.081  0.00  0.00    +0.120 C 
ATOM      8  C   LIG    1       -0.510   2.093   2.317  0.00  0.00    +0.110 A 
ATOM      9  C   LIG    1        0.507   1.283   1.962  0.00  0.00    -0.370 A 
ATOM     10  C   LIG    1        1.459   2.057   1.256  0.00  0.00    +0.480 A 
ATOM     11  N   LIG    1        0.998   3.323   1.205  0.00  0.00    -0.400 N 
ATOM     12  O   LIG    1        2.505   1.652   0.781  0.00  0.00    -0.630 OA
ATOM     13  N   LIG    1       -0.234   3.355   1.871  0.00  0.00    -0.440 NA
ENDBRANCH   1  11
BRANCH   5  14
ATOM     14  N   LIG    1        1.085   8.006   0.037  0.00  0.00    -0.670 N 
ATOM     15  H   LIG    1        0.121   8.090  -0.018  0.00  0.00    +0.410 HD
ATOM     16  C   LIG    1        1.854   9.108   0.134  0.00  0.00    +0.520 C 
ATOM     17  O   LIG    1        3.063   9.008   0.118  0.00  0.00    -0.510 OA
BRANCH  16  18
ATOM     18  C   LIG    1        1.212  10.466   0.260  0.00  0.00    -0.080 C 
ATOM     19  C   LIG    1        2.293  11.549   0.258  0.00  0.00    +0.090 C 
ATOM     20  C   LIG    1        3.080  11.497   1.534  0.00  0.00    -0.040 C 
ATOM     21  C   LIG    1        2.684  10.889   2.606  0.00  0.00    -0.060 C 
ATOM     22  C   LIG    1        1.387  10.143   2.719  0.00  0.00    +0.040 C 
ATOM     23  C   LIG    1        0.250  10.691  -0.908  0.00  0.00    +0.050 C 
ATOM     24  C   LIG    1        0.444  10.551   1.585  0.00  0.00    +0.040 C 
ENDBRANCH  16  18
ENDBRANCH   5  14
TORSDOF 3
