REMARK  Name = ZINCrH000004tp4M.0
REMARK                            x       y       z     vdW  Elec       q    Type
REMARK                         _______ _______ _______ _____ _____    ______ ____
ROOT
ATOM      1  N   LIG    1       -2.012   1.308  -3.707  0.00  0.00    -0.530 NA
ATOM      2  C   LIG    1       -0.677   1.914  -3.606  0.00  0.00    +0.180 C 
ATOM      3  C   LIG    1        0.059   1.323  -2.401  0.00  0.00    +0.190 C 
ATOM      4  N   LIG    1       -0.723   1.572  -1.182  0.00  0.00    -0.540 NA
ATOM      5  C   LIG    1       -2.058   0.966  -1.283  0.00  0.00    +0.180 C 
ATOM      6  C   LIG    1       -2.794   1.557  -2.488  0.00  0.00    +0.180 C 
ENDROOT
BRANCH   1   7
ATOM      7  C   LIG    1       -2.723   1.794  -4.897  0.00  0.00    +0.230 C 
BRANCH   7  13
ATOM      8  C   LIG    1       -5.078   2.049  -4.050  0.00  0.00    -0.030 A 
ATOM      9  C   LIG    1       -6.410   1.631  -4.003  0.00  0.00    +0.060 A 
ATOM     10  C   LIG    1       -6.811   0.532  -4.735  0.00  0.00    +0.020 A 
ATOM     11  C   LIG    1       -5.897  -0.155  -5.514  0.00  0.00    +0.040 A 
ATOM     12  C   LIG    1       -4.577   0.257  -5.570  0.00  0.00    +0.040 A 
ATOM     13  C   LIG    1       -4.162   1.351  -4.839  0.00  0.00    -0.040 A 
BRANCH   8  15
ATOM     14  N   LIG    1       -4.319   4.093  -2.694  0.00  0.00    -0.400 NA
ATOM     15  C   LIG    1       -4.655   3.188  -3.294  0.00  0.00    +0.250 C 
ENDBRANCH   8  15
ENDBRANCH   7  13
ENDBRANCH   1   7
BRANCH   4  16
ATOM     16  C   LIG    1       -0.013   1.086   0.008  0.00  0.00    +0.240 C 
BRANCH  16  17
ATOM     17  C   LIG    1       -0.718   1.572   1.248  0.00  0.00    -0.090 A 
ATOM     18  C   LIG    1       -0.359   2.779   1.818  0.00  0.00    +0.070 A 
ATOM     19  C   LIG    1       -1.008   3.230   2.951  0.00  0.00    -0.060 A 
ATOM     20  C   LIG    1       -2.013   2.464   3.524  0.00  0.00    +0.100 A 
ATOM     21  C   LIG    1       -2.368   1.250   2.954  0.00  0.00    +0.020 A 
ATOM     22  C   LIG    1       -1.720   0.807   1.817  0.00  0.00    +0.050 A 
BRANCH  20  23
ATOM     23  O   LIG    1       -2.649   2.902   4.642  0.00  0.00    -0.310 OA
BRANCH  23  24
ATOM     24  C   LIG    1       -2.232   4.161   5.174  0.00  0.00    +0.600 C 
ATOM     25  F   LIG    1       -0.876   4.097   5.514  0.00  0.00    -0.160 F 
ATOM     26  F   LIG    1       -2.985   4.458   6.315  0.00  0.00    -0.130 F 
ATOM     27  F   LIG    1       -2.426   5.161   4.215  0.00  0.00    -0.160 F 
ENDBRANCH  23  24
ENDBRANCH  20  23
ENDBRANCH  16  17
ENDBRANCH   4  16
TORSDOF 7
