REMARK  Name = ZINCrH000004oTIO.0
REMARK                            x       y       z     vdW  Elec       q    Type
REMARK                         _______ _______ _______ _____ _____    ______ ____
ROOT
ATOM      1  C   LIG    1       -5.580   8.209  -0.945  0.00  0.00    +0.030 C 
ATOM      2  C   LIG    1       -4.694   8.335   0.296  0.00  0.00    +0.220 C 
ATOM      3  C   LIG    1       -4.158   9.777   0.418  0.00  0.00    +0.000 C 
ATOM      4  C   LIG    1       -2.703   9.569   0.915  0.00  0.00    +0.040 C 
ATOM      5  C   LIG    1       -2.305   8.267   0.175  0.00  0.00    +0.260 C 
ATOM      6  N   LIG    1       -3.529   7.446   0.171  0.00  0.00    -0.610 N 
ATOM      7  C   LIG    1       -3.574   6.103   0.064  0.00  0.00    +0.580 C 
ATOM      8  O   LIG    1       -4.646   5.534   0.005  0.00  0.00    -0.520 OA
ENDROOT
BRANCH   7   9
ATOM      9  C   LIG    1       -2.320   5.324   0.019  0.00  0.00    -0.130 A 
ATOM     10  C   LIG    1       -2.303   4.000   0.479  0.00  0.00    +0.110 A 
ATOM     11  C   LIG    1       -1.142   3.263   0.443  0.00  0.00    +0.050 A 
ATOM     12  C   LIG    1        0.032   3.831  -0.054  0.00  0.00    +0.180 A 
ATOM     13  N   LIG    1        1.202   3.106  -0.097  0.00  0.00    -0.630 N 
ATOM     14  H   LIG    1        1.208   2.190   0.223  0.00  0.00    +0.420 HD
ATOM     15  C   LIG    1        2.336   3.647  -0.574  0.00  0.00    +0.540 A 
ATOM     16  C   LIG    1        2.380   4.975  -1.051  0.00  0.00    -0.040 A 
ATOM     17  C   LIG    1        1.263   5.744  -1.032  0.00  0.00    +0.140 A 
ATOM     18  O   LIG    1        3.351   2.975  -0.596  0.00  0.00    -0.520 OA
ATOM     19  C   LIG    1        0.021   5.161  -0.519  0.00  0.00    -0.110 A 
ATOM     20  F   LIG    1       -1.137   1.988   0.890  0.00  0.00    -0.130 F 
ATOM     21  C   LIG    1       -1.159   5.905  -0.480  0.00  0.00    +0.120 A 
ENDBRANCH   7   9
BRANCH   3  22
ATOM     22  C   LIG    1       -4.969  10.579   1.438  0.00  0.00    +0.090 C 
BRANCH  22  23
ATOM     23  C   LIG    1       -4.421  11.980   1.526  0.00  0.00    -0.080 A 
ATOM     24  C   LIG    1       -3.425  12.277   2.437  0.00  0.00    +0.000 A 
ATOM     25  C   LIG    1       -2.920  13.562   2.514  0.00  0.00    +0.000 A 
ATOM     26  C   LIG    1       -3.417  14.551   1.686  0.00  0.00    +0.000 A 
ATOM     27  C   LIG    1       -4.417  14.255   0.779  0.00  0.00    +0.000 A 
ATOM     28  C   LIG    1       -4.918  12.969   0.698  0.00  0.00    +0.000 A 
ENDBRANCH  22  23
ENDBRANCH   3  22
TORSDOF 3
