REMARK  Name = ZINCrD000000Cwly.0
REMARK                            x       y       z     vdW  Elec       q    Type
REMARK                         _______ _______ _______ _____ _____    ______ ____
ROOT
ATOM      1  O   LIG    1        1.144   1.793   2.348  0.00  0.00    -0.450 OA
ATOM      2  C   LIG    1       -0.029   2.086   2.241  0.00  0.00    +0.490 C 
ATOM      3  N   LIG    1       -0.671   1.881   1.075  0.00  0.00    -0.560 N 
ATOM      4  C   LIG    1       -2.138   1.813   1.031  0.00  0.00    +0.280 C 
ATOM      5  C   LIG    1       -2.527   0.623   0.144  0.00  0.00    +0.050 C 
ATOM      6  C   LIG    1       -2.028   0.882  -1.277  0.00  0.00    +0.100 C 
ATOM      7  C   LIG    1       -0.568   1.248  -1.266  0.00  0.00    -0.100 A 
ATOM      8  C   LIG    1        0.170   1.099  -2.431  0.00  0.00    +0.080 A 
ATOM      9  C   LIG    1        1.515   1.430  -2.453  0.00  0.00    +0.080 A 
ATOM     10  C   LIG    1        2.130   1.913  -1.311  0.00  0.00    +0.020 A 
ATOM     11  C   LIG    1        1.400   2.063  -0.147  0.00  0.00    +0.100 A 
ATOM     12  F   LIG    1        1.999   2.534   0.969  0.00  0.00    -0.080 F 
ATOM     13  F   LIG    1        2.228   1.282  -3.591  0.00  0.00    -0.120 F 
ATOM     14  F   LIG    1       -0.425   0.629  -3.549  0.00  0.00    -0.120 F 
ATOM     15  C   LIG    1        0.050   1.728  -0.122  0.00  0.00    +0.150 A 
ENDROOT
BRANCH   2  16
ATOM     16  C   LIG    1       -0.767   2.679   3.414  0.00  0.00    +0.040 C 
ATOM     17  C   LIG    1       -0.900   1.616   4.490  0.00  0.00    +0.110 C 
ATOM     18  C   LIG    1       -1.703   2.191   5.667  0.00  0.00    -0.300 C 
ATOM     19  S   LIG    1       -0.630   3.397   6.503  0.00  0.00    +2.490 S 
ATOM     20  C   LIG    1        0.073   4.322   5.172  0.00  0.00    -0.620 A 
ATOM     21  C   LIG    1        0.753   5.490   5.483  0.00  0.00    +0.120 A 
ATOM     22  C   LIG    1        1.334   6.251   4.489  0.00  0.00    +0.020 A 
ATOM     23  C   LIG    1        1.236   5.840   3.174  0.00  0.00    +0.070 A 
ATOM     24  C   LIG    1        0.556   4.682   2.866  0.00  0.00    -0.010 A 
ATOM     25  O   LIG    1        0.480   2.747   7.106  0.00  0.00    -0.920 OA
ATOM     26  O   LIG    1       -1.407   4.346   7.220  0.00  0.00    -0.930 OA
ATOM     27  C   LIG    1       -0.037   3.909   3.866  0.00  0.00    +0.010 A 
ENDBRANCH   2  16
TORSDOF 1
