REMARK  Name = ZINCpe00000bQoUp.0
REMARK                            x       y       z     vdW  Elec       q    Type
REMARK                         _______ _______ _______ _____ _____    ______ ____
ROOT
ATOM      1  C   LIG    1       -2.996   3.258   1.794  0.00  0.00    +0.060 C 
ATOM      2  C   LIG    1       -2.532   4.160   0.649  0.00  0.00    -0.010 C 
ATOM      3  C   LIG    1       -3.522   4.096  -0.533  0.00  0.00    +0.250 C 
ATOM      4  N   LIG    1       -2.727   4.099  -1.770  0.00  0.00    -0.620 N 
ATOM      5  C   LIG    1       -1.300   4.188  -1.413  0.00  0.00    +0.250 C 
ATOM      6  C   LIG    1       -3.222   4.031  -3.021  0.00  0.00    +0.530 C 
ATOM      7  O   LIG    1       -4.420   3.959  -3.197  0.00  0.00    -0.540 OA
ATOM      8  C   LIG    1       -1.214   3.626   0.028  0.00  0.00    +0.260 C 
ENDROOT
BRANCH   8   9
ATOM      9  N   LIG    1       -1.195   2.161   0.019  0.00  0.00    -0.720 N 
ATOM     10  H   LIG    1       -2.028   1.664   0.021  0.00  0.00    +0.400 HD
ATOM     11  C   LIG    1       -0.018   1.503   0.010  0.00  0.00    +0.520 C 
ATOM     12  O   LIG    1        1.024   2.123   0.004  0.00  0.00    -0.510 OA
BRANCH  11  13
ATOM     13  C   LIG    1        0.002  -0.004   0.002  0.00  0.00    +0.200 C 
BRANCH  13  14
ATOM     14  O   LIG    1        1.356  -0.462  -0.013  0.00  0.00    -0.350 OA
BRANCH  14  15
ATOM     15  C   LIG    1        1.488  -1.885  -0.022  0.00  0.00    +0.110 C 
ATOM     16  C   LIG    1        0.829  -2.466   1.230  0.00  0.00    +0.020 C 
ATOM     17  C   LIG    1        2.971  -2.259  -0.038  0.00  0.00    +0.070 C 
ATOM     18  C   LIG    1        0.805  -2.453  -1.268  0.00  0.00    +0.020 C 
ENDBRANCH  14  15
ENDBRANCH  13  14
ENDBRANCH  11  13
ENDBRANCH   8   9
BRANCH   6  19
ATOM     19  C   LIG    1       -2.287   4.043  -4.203  0.00  0.00    +0.040 C 
BRANCH  19  20
ATOM     20  C   LIG    1       -3.098   3.956  -5.497  0.00  0.00    +0.050 C 
BRANCH  20  21
ATOM     21  C   LIG    1       -2.149   3.969  -6.696  0.00  0.00    +0.220 C 
ATOM     22  C   LIG    1       -2.939   3.756  -8.006  0.00  0.00    +0.050 C 
ATOM     23  C   LIG    1       -3.205   5.212  -8.454  0.00  0.00    +0.050 C 
ATOM     24  C   LIG    1       -2.094   6.008  -7.806  0.00  0.00    +0.520 C 
ATOM     25  O   LIG    1       -1.771   7.134  -8.122  0.00  0.00    -0.530 OA
ATOM     26  N   LIG    1       -1.517   5.287  -6.830  0.00  0.00    -0.730 N 
ATOM     27  H   LIG    1       -0.778   5.597  -6.284  0.00  0.00    +0.410 HD
ENDBRANCH  20  21
ENDBRANCH  19  20
ENDBRANCH   6  19
TORSDOF 7
