REMARK  Name = ZINCrH00000No51a.0
REMARK                            x       y       z     vdW  Elec       q    Type
REMARK                         _______ _______ _______ _____ _____    ______ ____
ROOT
ATOM      1  N   LIG    1       -1.509  -1.292  -0.374  0.00  0.00    -0.600 NA
ATOM      2  C   LIG    1       -1.380  -0.598  -1.507  0.00  0.00    +0.380 A 
ATOM      3  S   LIG    1       -1.296   1.115  -1.673  0.00  0.00    +0.170 S 
ATOM      4  C   LIG    1       -1.140   1.087  -3.438  0.00  0.00    -0.050 A 
ATOM      5  C   LIG    1       -1.161  -0.196  -3.775  0.00  0.00    +0.250 A 
ATOM      6  N   LIG    1       -1.288  -1.094  -2.762  0.00  0.00    -0.520 N 
ENDROOT
BRANCH   1   7
ATOM      7  C   LIG    1       -1.701  -2.603  -0.418  0.00  0.00    +0.500 C 
ATOM      8  O   LIG    1       -0.751  -3.360  -0.349  0.00  0.00    -0.450 OA
BRANCH   7  17
ATOM      9  C   LIG    1       -5.322  -5.553  -0.424  0.00  0.00    +0.090 C 
ATOM     10  C   LIG    1       -3.932  -5.348   0.181  0.00  0.00    +0.170 C 
ATOM     11  C   LIG    1       -3.220  -6.675   0.493  0.00  0.00    +0.090 C 
ATOM     12  C   LIG    1       -2.462  -6.903  -0.851  0.00  0.00    +0.080 C 
ATOM     13  C   LIG    1       -2.301  -5.519  -1.438  0.00  0.00    +0.550 C 
ATOM     14  O   LIG    1       -1.631  -5.257  -2.414  0.00  0.00    -0.500 OA
ATOM     15  S   LIG    1       -3.956  -4.275   1.670  0.00  0.00    -0.240 S 
ATOM     16  C   LIG    1       -3.922  -2.722   0.678  0.00  0.00    +0.170 C 
ATOM     17  C   LIG    1       -3.097  -3.156  -0.553  0.00  0.00    +0.220 C 
ATOM     18  N   LIG    1       -3.011  -4.611  -0.720  0.00  0.00    -0.620 N 
ENDBRANCH   7  17
ENDBRANCH   1   7
BRANCH   6  19
ATOM     19  C   LIG    1       -1.323  -2.536  -3.019  0.00  0.00    +0.340 C 
BRANCH  19  20
ATOM     20  C   LIG    1       -0.144  -2.923  -3.874  0.00  0.00    -0.080 A 
ATOM     21  C   LIG    1       -0.335  -3.262  -5.200  0.00  0.00    +0.060 A 
ATOM     22  C   LIG    1        0.747  -3.611  -5.988  0.00  0.00    +0.030 A 
ATOM     23  C   LIG    1        2.019  -3.632  -5.445  0.00  0.00    -0.010 A 
ATOM     24  C   LIG    1        2.210  -3.298  -4.116  0.00  0.00    +0.040 A 
ATOM     25 CL   LIG    1        3.377  -4.077  -6.432  0.00  0.00    -0.050 Cl
ATOM     26  C   LIG    1        1.129  -2.943  -3.331  0.00  0.00    -0.010 A 
ATOM     27 CL   LIG    1        1.367  -2.524  -1.663  0.00  0.00    -0.020 Cl
ENDBRANCH  19  20
ENDBRANCH   6  19
TORSDOF 4
