REMARK  Name = ZINCpk00000KfKmc.0
REMARK                            x       y       z     vdW  Elec       q    Type
REMARK                         _______ _______ _______ _____ _____    ______ ____
ROOT
ATOM      1  C   LIG    1       -0.325  -1.518  -3.248  0.00  0.00    +0.140 A 
ATOM      2  C   LIG    1       -1.170  -1.121  -4.272  0.00  0.00    -0.020 A 
ATOM      3  C   LIG    1       -1.155   0.188  -4.713  0.00  0.00    +0.090 A 
ATOM      4  C   LIG    1       -0.300   1.111  -4.127  0.00  0.00    +0.150 A 
ATOM      5  C   LIG    1        0.543   0.720  -3.097  0.00  0.00    +0.040 A 
ATOM      6  C   LIG    1        0.530  -0.593  -2.654  0.00  0.00    +0.100 A 
ENDROOT
BRANCH   4   7
ATOM      7  N   LIG    1       -0.288   2.439  -4.576  0.00  0.00    -0.680 N 
ATOM      8  H   LIG    1       -0.114   3.160  -3.952  0.00  0.00    +0.410 HD
ATOM      9  C   LIG    1       -0.519   2.713  -5.876  0.00  0.00    +0.710 C 
ATOM     10  N   LIG    1       -0.612   3.992  -6.288  0.00  0.00    -0.740 N 
ATOM     11  H   LIG    1       -0.512   4.716  -5.650  0.00  0.00    +0.400 HD
ATOM     12  O   LIG    1       -0.644   1.805  -6.675  0.00  0.00    -0.570 OA
BRANCH  10  13
ATOM     13  C   LIG    1       -0.863   4.290  -7.701  0.00  0.00    +0.250 C 
ATOM     14  C   LIG    1        0.462   4.293  -8.465  0.00  0.00    +0.010 C 
ATOM     15  C   LIG    1        0.200   4.604  -9.940  0.00  0.00    +0.000 C 
ATOM     16  C   LIG    1       -0.462   5.978 -10.061  0.00  0.00    +0.160 C 
ATOM     17  C   LIG    1       -1.788   5.975  -9.297  0.00  0.00    +0.050 C 
ATOM     18  C   LIG    1       -1.526   5.664  -7.822  0.00  0.00    +0.030 C 
BRANCH  16  19
ATOM     19  O   LIG    1       -0.708   6.269 -11.439  0.00  0.00    -0.570 OA
ATOM     20  H   LIG    1        0.090   6.287 -11.985  0.00  0.00    +0.380 HD
ENDBRANCH  16  19
ENDBRANCH  10  13
ENDBRANCH   4   7
BRANCH   6  21
ATOM     21  N   LIG    1        1.382  -0.992  -1.612  0.00  0.00    -0.320 N 
ATOM     22  N   LIG    1        2.218  -2.122  -1.577  0.00  0.00    -0.060 NA
ATOM     23  N   LIG    1        2.816  -2.105  -0.435  0.00  0.00    -0.040 NA
ATOM     24  N   LIG    1        2.445  -1.080   0.244  0.00  0.00    -0.330 NA
ATOM     25  C   LIG    1        1.577  -0.370  -0.429  0.00  0.00    +0.250 A 
ATOM     26  C   LIG    1        0.912   0.901   0.033  0.00  0.00    +0.220 C 
ENDBRANCH   6  21
BRANCH   1  28
ATOM     27  C   LIG    1       -1.238  -3.703  -3.473  0.00  0.00    +0.250 C 
ATOM     28  O   LIG    1       -0.336  -2.809  -2.818  0.00  0.00    -0.300 OA
ENDBRANCH   1  28
TORSDOF 5
