REMARK  Name = ZINCvU0000000FJI.0
REMARK                            x       y       z     vdW  Elec       q    Type
REMARK                         _______ _______ _______ _____ _____    ______ ____
ROOT
ATOM      1  C   LIG    1        0.002  -0.004   0.002  0.00  0.00    +0.210 A 
ATOM      2  N   LIG    1        1.069  -0.766  -0.018  0.00  0.00    -0.250 NA
ATOM      3  N   LIG    1        0.712  -2.002  -0.017  0.00  0.00    -0.280 NA
ATOM      4  C   LIG    1       -0.598  -2.078  -0.004  0.00  0.00    +0.140 A 
ATOM      5  O   LIG    1       -1.076  -0.819   0.008  0.00  0.00    -0.200 OA
ENDROOT
BRANCH   1   8
ATOM      6  C   LIG    1        1.159   3.572   0.010  0.00  0.00    +0.150 A 
ATOM      7  C   LIG    1        1.181   2.189   0.003  0.00  0.00    -0.030 A 
ATOM      8  C   LIG    1       -0.018   1.473   0.010  0.00  0.00    +0.050 A 
ATOM      9  C   LIG    1       -1.236   2.156   0.020  0.00  0.00    -0.050 A 
ATOM     10  C   LIG    1       -1.252   3.539   0.032  0.00  0.00    +0.150 A 
ATOM     11  C   LIG    1       -0.056   4.250   0.024  0.00  0.00    +0.060 A 
BRANCH   6  13
ATOM     12  C   LIG    1        3.537   3.510  -0.012  0.00  0.00    +0.250 C 
ATOM     13  O   LIG    1        2.326   4.270   0.003  0.00  0.00    -0.300 OA
ENDBRANCH   6  13
BRANCH  10  14
ATOM     14  O   LIG    1       -2.437   4.205   0.046  0.00  0.00    -0.300 OA
ATOM     15  C   LIG    1       -3.626   3.412   0.052  0.00  0.00    +0.250 C 
ENDBRANCH  10  14
BRANCH  11  16
ATOM     16  O   LIG    1       -0.074   5.610   0.032  0.00  0.00    -0.310 OA
ATOM     17  C   LIG    1       -0.095   6.265  -1.238  0.00  0.00    +0.230 C 
ENDBRANCH  11  16
ENDBRANCH   1   8
BRANCH   4  18
ATOM     18  S   LIG    1       -1.556  -3.557  -0.004  0.00  0.00    +0.110 S 
BRANCH  18  19
ATOM     19  C   LIG    1       -0.232  -4.790  -0.024  0.00  0.00    +0.180 C 
BRANCH  19  20
ATOM     20  C   LIG    1       -0.832  -6.172  -0.027  0.00  0.00    +0.180 A 
ATOM     21  N   LIG    1       -1.097  -6.751  -1.172  0.00  0.00    -0.440 NA
ATOM     22  C   LIG    1       -1.629  -7.976  -1.226  0.00  0.00    +0.130 A 
ATOM     23  C   LIG    1       -1.911  -8.591  -2.458  0.00  0.00    +0.050 A 
ATOM     24  C   LIG    1       -2.453  -9.839  -2.482  0.00  0.00    +0.050 A 
ATOM     25  C   LIG    1       -2.736 -10.523  -1.301  0.00  0.00    +0.030 A 
ATOM     26  C   LIG    1       -2.477  -9.959  -0.089  0.00  0.00    +0.040 A 
ATOM     27  C   LIG    1       -1.917  -8.673  -0.026  0.00  0.00    -0.090 A 
ATOM     28  C   LIG    1       -1.635  -8.056   1.207  0.00  0.00    -0.010 A 
ATOM     29  C   LIG    1       -1.923  -8.758   2.508  0.00  0.00    +0.130 C 
ATOM     30  C   LIG    1       -1.085  -6.805   1.190  0.00  0.00    -0.090 A 
ATOM     31 CL   LIG    1       -0.710  -6.001   2.682  0.00  0.00    -0.040 Cl
ENDBRANCH  19  20
ENDBRANCH  18  19
ENDBRANCH   4  18
TORSDOF 7
