REMARK  Name = ZINCnE000001FO0E.0
REMARK                            x       y       z     vdW  Elec       q    Type
REMARK                         _______ _______ _______ _____ _____    ______ ____
ROOT
ATOM      1  N   LIG    1       -1.475  -2.004   0.006  0.00  0.00    -0.490 N 
ATOM      2  C   LIG    1       -1.779  -2.780  -1.079  0.00  0.00    +0.220 A 
ATOM      3  C   LIG    1       -1.807  -4.074  -0.723  0.00  0.00    -0.050 A 
ATOM      4  C   LIG    1       -1.506  -4.131   0.710  0.00  0.00    -0.090 A 
ATOM      5  C   LIG    1       -1.398  -5.170   1.636  0.00  0.00    +0.070 A 
ATOM      6  C   LIG    1       -1.092  -4.882   2.953  0.00  0.00    +0.120 A 
ATOM      7  C   LIG    1       -0.893  -3.562   3.354  0.00  0.00    +0.010 A 
ATOM      8  C   LIG    1       -0.999  -2.530   2.449  0.00  0.00    +0.010 A 
ATOM      9  C   LIG    1       -1.305  -2.801   1.119  0.00  0.00    +0.080 A 
ENDROOT
BRANCH   6  10
ATOM     10  N   LIG    1       -0.981  -5.920   3.888  0.00  0.00    -0.680 N 
ATOM     11  H   LIG    1       -1.247  -5.773   4.809  0.00  0.00    +0.410 HD
ATOM     12  C   LIG    1       -0.506  -7.122   3.507  0.00  0.00    +0.520 C 
ATOM     13  O   LIG    1       -0.085  -7.278   2.380  0.00  0.00    -0.510 OA
BRANCH  12  14
ATOM     14  C   LIG    1       -0.498  -8.272   4.481  0.00  0.00    -0.020 C 
ATOM     15  C   LIG    1        0.490  -8.001   5.642  0.00  0.00    +0.020 C 
ATOM     16  C   LIG    1        0.850  -9.406   6.169  0.00  0.00    +0.030 C 
ATOM     17  C   LIG    1        0.595 -10.387   5.011  0.00  0.00    -0.090 C 
ATOM     18  C   LIG    1        0.090  -9.545   3.822  0.00  0.00    +0.070 C 
BRANCH  17  19
ATOM     19  C   LIG    1        1.876 -11.089   4.639  0.00  0.00    +0.500 C 
ATOM     20  O   LIG    1        2.081 -11.411   3.481  0.00  0.00    -0.700 OA
ATOM     21  O   LIG    1        2.707 -11.336   5.497  0.00  0.00    -0.700 OA
ENDBRANCH  17  19
ENDBRANCH  12  14
ENDBRANCH   6  10
BRANCH   1  22
ATOM     22  C   LIG    1       -1.353  -0.544  -0.011  0.00  0.00    +0.280 C 
BRANCH  22  24
ATOM     23  C   LIG    1        0.242   1.368  -0.210  0.00  0.00    +0.030 C 
ATOM     24  C   LIG    1        0.116  -0.157  -0.192  0.00  0.00    +0.000 C 
ENDBRANCH  22  24
ENDBRANCH   1  22
TORSDOF 5
