REMARK  Name = ZINCqH0000006T1P.0
REMARK                            x       y       z     vdW  Elec       q    Type
REMARK                         _______ _______ _______ _____ _____    ______ ____
ROOT
ATOM      1  N   LIG    1        4.812  -1.322  -4.267  0.00  0.00    -0.660 N 
ATOM      2  H   LIG    1        4.378  -0.665  -4.833  0.00  0.00    +0.420 HD
ATOM      3  C   LIG    1        5.015  -1.057  -2.961  0.00  0.00    +0.520 C 
ATOM      4  O   LIG    1        5.483  -1.908  -2.235  0.00  0.00    -0.500 OA
ENDROOT
BRANCH   1   8
ATOM      5  C   LIG    1        6.049  -4.972  -5.873  0.00  0.00    +0.170 A 
ATOM      6  C   LIG    1        6.112  -3.822  -6.644  0.00  0.00    -0.120 A 
ATOM      7  C   LIG    1        5.697  -2.611  -6.116  0.00  0.00    +0.150 A 
ATOM      8  C   LIG    1        5.227  -2.549  -4.806  0.00  0.00    +0.090 A 
ATOM      9  C   LIG    1        5.166  -3.701  -4.037  0.00  0.00    +0.130 A 
ATOM     10  C   LIG    1        5.575  -4.910  -4.569  0.00  0.00    -0.090 A 
ATOM     11 CL   LIG    1        5.497  -6.352  -3.606  0.00  0.00    -0.050 Cl
BRANCH   5  13
ATOM     12  C   LIG    1        6.927  -6.153  -7.741  0.00  0.00    +0.250 C 
ATOM     13  O   LIG    1        6.451  -6.162  -6.393  0.00  0.00    -0.300 OA
ENDBRANCH   5  13
BRANCH   7  14
ATOM     14  O   LIG    1        5.752  -1.483  -6.873  0.00  0.00    -0.310 OA
ATOM     15  C   LIG    1        6.244  -1.621  -8.208  0.00  0.00    +0.260 C 
ENDBRANCH   7  14
ENDBRANCH   1   8
BRANCH   3  16
ATOM     16  C   LIG    1        4.661   0.298  -2.403  0.00  0.00    +0.100 C 
BRANCH  16  17
ATOM     17  C   LIG    1        4.988   0.336  -0.909  0.00  0.00    +0.070 C 
ATOM     18  S   LIG    1        3.923  -0.841  -0.022  0.00  0.00    -0.040 S 
ATOM     19  C   LIG    1        2.374   0.005  -0.021  0.00  0.00    -0.150 A 
ATOM     20  C   LIG    1        1.191  -0.716  -0.020  0.00  0.00    +0.080 A 
ATOM     21  C   LIG    1       -0.022  -0.051  -0.011  0.00  0.00    +0.000 A 
ATOM     22  C   LIG    1       -0.050   1.331   0.001  0.00  0.00    +0.050 A 
ATOM     23  C   LIG    1        1.126   2.055   0.000  0.00  0.00    -0.010 A 
ATOM     24  C   LIG    1        2.353   1.399  -0.015  0.00  0.00    +0.160 A 
ATOM     25  N   LIG    1        3.523   2.153  -0.031  0.00  0.00    -0.650 N 
ATOM     26  H   LIG    1        3.449   3.085   0.228  0.00  0.00    +0.420 HD
ATOM     27  C   LIG    1        4.734   1.718  -0.367  0.00  0.00    +0.530 C 
ATOM     28  O   LIG    1        5.677   2.468  -0.231  0.00  0.00    -0.510 OA
ENDBRANCH  16  17
ENDBRANCH   3  16
TORSDOF 5
