REMARK  Name = ZINCrD000000Cacb.0
REMARK                            x       y       z     vdW  Elec       q    Type
REMARK                         _______ _______ _______ _____ _____    ______ ____
ROOT
ATOM      1  O   LIG    1       -3.626   3.194   0.139  0.00  0.00    -0.510 OA
ATOM      2  C   LIG    1       -3.609   1.981   0.132  0.00  0.00    +0.530 C 
ATOM      3  N   LIG    1       -2.437   1.324   0.021  0.00  0.00    -0.660 N 
ATOM      4  H   LIG    1       -2.429   0.358  -0.066  0.00  0.00    +0.420 HD
ENDROOT
BRANCH   2   5
ATOM      5  C   LIG    1       -4.898   1.209   0.247  0.00  0.00    +0.010 C 
ATOM      6  C   LIG    1       -5.174   0.397  -1.040  0.00  0.00    +0.070 C 
ATOM      7  C   LIG    1       -6.674   0.483  -1.218  0.00  0.00    +0.520 C 
ATOM      8  N   LIG    1       -7.173   1.476  -0.462  0.00  0.00    -0.620 N 
ATOM      9  O   LIG    1       -7.330  -0.239  -1.939  0.00  0.00    -0.520 OA
ATOM     10  C   LIG    1       -6.112   2.163   0.285  0.00  0.00    +0.300 C 
BRANCH   8  11
ATOM     11  C   LIG    1       -8.594   1.826  -0.391  0.00  0.00    +0.300 C 
BRANCH  11  12
ATOM     12  C   LIG    1       -9.262   1.026   0.729  0.00  0.00    +0.060 C 
BRANCH  12  13
ATOM     13  C   LIG    1      -10.723   1.387   0.801  0.00  0.00    -0.090 A 
ATOM     14  C   LIG    1      -11.139   2.424   1.616  0.00  0.00    +0.000 A 
ATOM     15  C   LIG    1      -12.479   2.757   1.679  0.00  0.00    +0.000 A 
ATOM     16  C   LIG    1      -13.404   2.049   0.935  0.00  0.00    +0.000 A 
ATOM     17  C   LIG    1      -12.988   1.009   0.124  0.00  0.00    +0.000 A 
ATOM     18  C   LIG    1      -11.648   0.678   0.058  0.00  0.00    +0.010 A 
ENDBRANCH  12  13
ENDBRANCH  11  12
ENDBRANCH   8  11
ENDBRANCH   2   5
BRANCH   3  19
ATOM     19  C   LIG    1       -1.231   2.037   0.030  0.00  0.00    +0.130 A 
ATOM     20  C   LIG    1       -1.161   3.278   0.643  0.00  0.00    +0.060 A 
ATOM     21  C   LIG    1        0.028   3.982   0.646  0.00  0.00    +0.010 A 
ATOM     22  C   LIG    1        1.152   3.449   0.044  0.00  0.00    +0.030 A 
ATOM     23  C   LIG    1        1.092   2.208  -0.565  0.00  0.00    -0.030 A 
ATOM     24  C   LIG    1       -0.096   1.497  -0.572  0.00  0.00    +0.080 A 
BRANCH  24  25
ATOM     25  O   LIG    1       -0.157   0.277  -1.170  0.00  0.00    -0.330 OA
BRANCH  25  26
ATOM     26  C   LIG    1        1.044  -0.210  -1.772  0.00  0.00    +0.590 C 
ATOM     27  F   LIG    1        2.043  -0.319  -0.799  0.00  0.00    -0.200 F 
ATOM     28  F   LIG    1        1.459   0.678  -2.771  0.00  0.00    -0.200 F 
ENDBRANCH  25  26
ENDBRANCH  24  25
ENDBRANCH   3  19
TORSDOF 7
