REMARK  Name = ZINCrD000000fDqY.0
REMARK                            x       y       z     vdW  Elec       q    Type
REMARK                         _______ _______ _______ _____ _____    ______ ____
ROOT
ATOM      1  C   LIG    1       -1.435   3.481   0.184  0.00  0.00    +0.180 C 
ATOM      2  C   LIG    1       -0.676   2.952   1.403  0.00  0.00    +0.020 C 
ATOM      3  C   LIG    1       -0.644   1.423   1.360  0.00  0.00    +0.000 C 
ATOM      4  C   LIG    1       -2.076   0.882   1.377  0.00  0.00    +0.030 C 
ATOM      5  C   LIG    1       -2.834   1.411   0.158  0.00  0.00    +0.000 C 
ATOM      6  C   LIG    1       -2.130   0.952  -1.121  0.00  0.00    +0.040 C 
ATOM      7  C   LIG    1       -0.699   1.492  -1.137  0.00  0.00    -0.060 C 
ATOM      8  C   LIG    1        0.060   0.963   0.082  0.00  0.00    +0.030 C 
ATOM      9  C   LIG    1       -0.730   3.021  -1.094  0.00  0.00    +0.070 C 
ATOM     10  C   LIG    1       -2.866   2.941   0.201  0.00  0.00    +0.030 C 
ENDROOT
BRANCH   1  13
ATOM     11  C   LIG    1       -2.115   7.140  -0.711  0.00  0.00    +0.090 C 
ATOM     12  C   LIG    1       -2.084   5.634  -0.753  0.00  0.00    +0.510 C 
ATOM     13  N   LIG    1       -1.465   4.945   0.226  0.00  0.00    -0.730 N 
ATOM     14  H   LIG    1       -1.039   5.418   0.957  0.00  0.00    +0.400 HD
ATOM     15  O   LIG    1       -2.616   5.042  -1.668  0.00  0.00    -0.540 OA
ENDBRANCH   1  13
BRANCH   7  16
ATOM     16  C   LIG    1       -0.005   1.039  -2.396  0.00  0.00    +0.530 C 
ATOM     17  N   LIG    1        0.141  -0.277  -2.649  0.00  0.00    -0.670 N 
ATOM     18  H   LIG    1       -0.126  -0.931  -1.984  0.00  0.00    +0.420 HD
ATOM     19  O   LIG    1        0.422   1.859  -3.181  0.00  0.00    -0.510 OA
BRANCH  17  20
ATOM     20  C   LIG    1        0.677  -0.699  -3.870  0.00  0.00    +0.150 A 
ATOM     21  C   LIG    1        0.585   0.117  -4.989  0.00  0.00    +0.080 A 
ATOM     22  C   LIG    1        1.121  -0.300  -6.193  0.00  0.00    +0.050 A 
ATOM     23  C   LIG    1        1.737  -1.534  -6.286  0.00  0.00    +0.080 A 
ATOM     24  C   LIG    1        1.825  -2.352  -5.174  0.00  0.00    -0.020 A 
ATOM     25  C   LIG    1        1.297  -1.938  -3.967  0.00  0.00    -0.060 A 
ATOM     26  C   LIG    1        1.393  -2.830  -2.756  0.00  0.00    +0.130 C 
BRANCH  24  27
ATOM     27  N   LIG    1        2.485  -3.673  -5.278  0.00  0.00    +0.030 N 
ATOM     28  O   LIG    1        2.184  -4.566  -4.507  0.00  0.00    -0.150 OA
ATOM     29  O   LIG    1        3.329  -3.866  -6.135  0.00  0.00    -0.160 OA
ENDBRANCH  24  27
ENDBRANCH  17  20
ENDBRANCH   7  16
TORSDOF 4
