REMARK  Name = ZINCkj000005jQai.0
REMARK                            x       y       z     vdW  Elec       q    Type
REMARK                         _______ _______ _______ _____ _____    ______ ____
ROOT
ATOM      1  C   LIG    1        2.407   3.438  -0.720  0.00  0.00    +0.050 C 
ATOM      2  C   LIG    1        1.110   3.254  -1.511  0.00  0.00    -0.040 C 
ATOM      3  C   LIG    1        1.428   2.637  -2.875  0.00  0.00    +0.040 C 
ATOM      4  C   LIG    1        0.136   2.482  -3.680  0.00  0.00    +0.020 C 
ATOM      5  C   LIG    1       -0.816   1.542  -2.934  0.00  0.00    +0.280 C 
ATOM      6  N   LIG    1       -1.012   2.052  -1.571  0.00  0.00    -0.610 N 
ATOM      7  C   LIG    1       -2.253   2.267  -1.090  0.00  0.00    +0.580 C 
ATOM      8  O   LIG    1       -2.407   2.593   0.071  0.00  0.00    -0.570 OA
ATOM      9  C   LIG    1        0.170   2.322  -0.741  0.00  0.00    +0.240 C 
ENDROOT
BRANCH   7  10
ATOM     10  C   LIG    1       -3.424   2.108  -1.973  0.00  0.00    -0.290 A 
ATOM     11  C   LIG    1       -4.566   2.903  -1.791  0.00  0.00    +0.170 A 
ATOM     12  C   LIG    1       -5.629   2.721  -2.634  0.00  0.00    -0.100 A 
ATOM     13  C   LIG    1       -5.548   1.760  -3.639  0.00  0.00    +0.440 A 
ATOM     14  N   LIG    1       -4.457   1.020  -3.789  0.00  0.00    -0.540 NA
ATOM     15  C   LIG    1       -3.410   1.167  -3.004  0.00  0.00    +0.360 A 
BRANCH  13  16
ATOM     16  N   LIG    1       -6.622   1.573  -4.494  0.00  0.00    -0.600 N 
ATOM     17  C   LIG    1       -6.487   0.694  -5.658  0.00  0.00    +0.300 C 
ATOM     18  C   LIG    1       -7.892   2.255  -4.234  0.00  0.00    +0.300 C 
ENDBRANCH  13  16
ENDBRANCH   7  10
BRANCH   9  19
ATOM     19  C   LIG    1       -0.260   2.992   0.566  0.00  0.00    +0.290 C 
BRANCH  19  20
ATOM     20  N   LIG    1       -0.863   4.299   0.271  0.00  0.00    -0.620 N 
ATOM     21  H   LIG    1       -1.347   4.638   1.088  0.00  0.00    +0.440 HD
ATOM     22  H   LIG    1       -1.516   4.203  -0.492  0.00  0.00    +0.420 HD
ATOM     23  H   LIG    1       -0.139   4.953   0.013  0.00  0.00    +0.420 HD
ENDBRANCH  19  20
ENDBRANCH   9  19
TORSDOF 4
