REMARK  Name = ZINCrH00000No4Dp.0
REMARK                            x       y       z     vdW  Elec       q    Type
REMARK                         _______ _______ _______ _____ _____    ______ ____
ROOT
ATOM      1  C   LIG    1       -2.499   1.013   0.024  0.00  0.00    +0.140 C 
ATOM      2  C   LIG    1       -3.675   1.676   0.035  0.00  0.00    -0.090 C 
ENDROOT
BRANCH   1   5
ATOM      3  C   LIG    1        1.173   1.785   0.019  0.00  0.00    +0.120 A 
ATOM      4  C   LIG    1       -0.013   1.077   0.019  0.00  0.00    +0.000 A 
ATOM      5  C   LIG    1       -1.233   1.762   0.030  0.00  0.00    -0.060 A 
ATOM      6  C   LIG    1       -1.246   3.161   0.054  0.00  0.00    +0.040 A 
ATOM      7  C   LIG    1       -0.058   3.860   0.054  0.00  0.00    -0.010 A 
ATOM      8  C   LIG    1        1.152   3.179   0.037  0.00  0.00    +0.090 A 
BRANCH   3  10
ATOM      9  C   LIG    1        2.307  -0.305  -0.014  0.00  0.00    +0.250 C 
ATOM     10  O   LIG    1        2.360   1.123   0.003  0.00  0.00    -0.310 OA
ENDBRANCH   3  10
BRANCH   8  11
ATOM     11  O   LIG    1        2.319   3.874   0.038  0.00  0.00    -0.310 OA
BRANCH  11  12
ATOM     12  C   LIG    1        2.226   5.300   0.056  0.00  0.00    +0.600 C 
ATOM     13  F   LIG    1        1.545   5.708   1.208  0.00  0.00    -0.200 F 
ATOM     14  F   LIG    1        1.529   5.736  -1.076  0.00  0.00    -0.200 F 
ENDBRANCH  11  12
ENDBRANCH   8  11
ENDBRANCH   1   5
BRANCH   2  15
ATOM     15  C   LIG    1       -4.933   0.932   0.029  0.00  0.00    +0.550 C 
ATOM     16  N   LIG    1       -6.107   1.593   0.041  0.00  0.00    -0.670 N 
ATOM     17  H   LIG    1       -6.119   2.560   0.120  0.00  0.00    +0.410 HD
ATOM     18  O   LIG    1       -4.920  -0.286   0.014  0.00  0.00    -0.520 OA
BRANCH  16  19
ATOM     19  C   LIG    1       -7.311   0.885  -0.063  0.00  0.00    +0.150 A 
ATOM     20  C   LIG    1       -8.385   1.438  -0.746  0.00  0.00    +0.000 A 
ATOM     21  C   LIG    1       -9.572   0.738  -0.852  0.00  0.00    +0.050 A 
ATOM     22  C   LIG    1       -9.697  -0.513  -0.267  0.00  0.00    +0.040 A 
ATOM     23  O   LIG    1      -10.877  -1.184  -0.373  0.00  0.00    -0.310 OA
ATOM     24  C   LIG    1      -10.846  -2.589  -0.099  0.00  0.00    +0.220 C 
ATOM     25  C   LIG    1      -10.049  -2.808   1.194  0.00  0.00    +0.220 C 
ATOM     26  O   LIG    1       -8.726  -2.297   0.998  0.00  0.00    -0.300 OA
ATOM     27  C   LIG    1       -8.624  -1.068   0.421  0.00  0.00    +0.070 A 
ATOM     28  C   LIG    1       -7.432  -0.368   0.523  0.00  0.00    +0.030 A 
ENDBRANCH  16  19
ENDBRANCH   2  15
TORSDOF 6
