REMARK  Name = ZINCrD0000072GiZ.0
REMARK                            x       y       z     vdW  Elec       q    Type
REMARK                         _______ _______ _______ _____ _____    ______ ____
ROOT
ATOM      1  N   LIG    1        3.023   7.577   0.182  0.00  0.00    -0.670 N 
ATOM      2  H   LIG    1        2.195   8.054   0.351  0.00  0.00    +0.420 HD
ATOM      3  C   LIG    1        3.019   6.233   0.082  0.00  0.00    +0.510 C 
ATOM      4  O   LIG    1        4.064   5.632  -0.049  0.00  0.00    -0.510 OA
ENDROOT
BRANCH   1   8
ATOM      5  C   LIG    1        6.590   9.687  -0.234  0.00  0.00    -0.150 A 
ATOM      6  C   LIG    1        5.394  10.233  -0.708  0.00  0.00    +0.100 A 
ATOM      7  C   LIG    1        4.217   9.533  -0.570  0.00  0.00    -0.010 A 
ATOM      8  C   LIG    1        4.217   8.283   0.042  0.00  0.00    +0.170 A 
ATOM      9  C   LIG    1        5.405   7.739   0.520  0.00  0.00    +0.020 A 
ATOM     10  C   LIG    1        6.587   8.431   0.379  0.00  0.00    +0.060 A 
BRANCH   5  14
ATOM     11  C   LIG    1       10.261  10.649  -0.069  0.00  0.00    +0.290 C 
ATOM     12  N   LIG    1        9.007   9.907   0.077  0.00  0.00    -0.730 N 
ATOM     13  H   LIG    1        9.005   9.035   0.502  0.00  0.00    +0.400 HD
ATOM     14  C   LIG    1        7.854  10.435  -0.381  0.00  0.00    +0.560 C 
ATOM     15  O   LIG    1        7.856  11.527  -0.915  0.00  0.00    -0.540 OA
ENDBRANCH   5  14
ENDBRANCH   1   8
BRANCH   3  16
ATOM     16  C   LIG    1        1.716   5.478   0.132  0.00  0.00    +0.310 C 
BRANCH  16  17
ATOM     17  N   LIG    1        1.978   4.042   0.004  0.00  0.00    -0.730 N 
ATOM     18  H   LIG    1        2.889   3.723  -0.095  0.00  0.00    +0.420 HD
BRANCH  17  19
ATOM     19  C   LIG    1        0.915   3.132   0.023  0.00  0.00    +0.220 A 
ATOM     20  C   LIG    1       -0.393   3.591   0.062  0.00  0.00    -0.050 A 
ATOM     21  C   LIG    1       -1.442   2.689   0.081  0.00  0.00    -0.000 A 
ATOM     22  C   LIG    1       -1.190   1.329   0.054  0.00  0.00    -0.010 A 
ATOM     23  C   LIG    1        0.111   0.863   0.020  0.00  0.00    +0.030 A 
ATOM     24 CL   LIG    1       -3.079   3.265   0.130  0.00  0.00    -0.070 Cl
ATOM     25  C   LIG    1        1.168   1.760   0.002  0.00  0.00    +0.030 A 
BRANCH  25  26
ATOM     26  N   LIG    1        2.487   1.290  -0.039  0.00  0.00    -0.470 N 
ATOM     27  C   LIG    1        2.525  -0.194   0.010  0.00  0.00    +0.180 C 
ATOM     28  C   LIG    1        3.925  -0.531  -0.562  0.00  0.00    +0.040 C 
ATOM     29  C   LIG    1        4.106   0.523  -1.678  0.00  0.00    +0.020 C 
ATOM     30  C   LIG    1        3.146   1.669  -1.308  0.00  0.00    +0.160 C 
ENDBRANCH  25  26
ENDBRANCH  17  19
ENDBRANCH  16  17
ENDBRANCH   3  16
TORSDOF 6
