REMARK  Name = ZINCpk00000KfLio.0
REMARK                            x       y       z     vdW  Elec       q    Type
REMARK                         _______ _______ _______ _____ _____    ______ ____
ROOT
ATOM      1  N   LIG    1       -3.050   0.203   0.317  0.00  0.00    -0.710 N 
ATOM      2  H   LIG    1       -2.274  -0.376   0.366  0.00  0.00    +0.410 HD
ATOM      3  C   LIG    1       -2.904   1.538   0.439  0.00  0.00    +0.590 C 
ATOM      4  O   LIG    1       -3.877   2.265   0.378  0.00  0.00    -0.540 OA
ENDROOT
BRANCH   3   5
ATOM      5  C   LIG    1       -1.567   2.114   0.646  0.00  0.00    -0.290 A 
ATOM      6  C   LIG    1       -1.262   3.463   0.792  0.00  0.00    +0.360 A 
ATOM      7  N   LIG    1        0.072   3.554   0.954  0.00  0.00    -0.360 N 
ATOM      8  N   LIG    1        0.612   2.264   0.916  0.00  0.00    -0.270 NA
ATOM      9  C   LIG    1        0.829   4.794   1.139  0.00  0.00    +0.370 C 
ATOM     10  C   LIG    1       -0.349   1.402   0.738  0.00  0.00    +0.300 A 
BRANCH   6  11
ATOM     11  N   LIG    1       -2.165   4.520   0.769  0.00  0.00    -0.390 N 
ATOM     12  C   LIG    1       -3.179   4.684  -0.134  0.00  0.00    +0.230 A 
ATOM     13  C   LIG    1       -3.834   5.821   0.172  0.00  0.00    -0.060 A 
ATOM     14  C   LIG    1       -3.200   6.387   1.297  0.00  0.00    -0.030 A 
ATOM     15  C   LIG    1       -2.183   5.572   1.642  0.00  0.00    +0.120 A 
ENDBRANCH   6  11
ENDBRANCH   3   5
BRANCH   1  16
ATOM     16  C   LIG    1       -4.382  -0.371   0.110  0.00  0.00    +0.280 C 
BRANCH  16  18
ATOM     17  C   LIG    1       -5.653  -2.497  -0.218  0.00  0.00    +0.000 C 
ATOM     18  C   LIG    1       -4.257  -1.880  -0.114  0.00  0.00    +0.160 C 
BRANCH  18  19
ATOM     19  N   LIG    1       -3.538  -2.485   1.015  0.00  0.00    -0.530 NA
ATOM     20  C   LIG    1       -3.160  -3.874   0.715  0.00  0.00    +0.160 C 
ATOM     21  C   LIG    1       -2.363  -4.445   1.891  0.00  0.00    +0.190 C 
ATOM     22  O   LIG    1       -3.143  -4.341   3.085  0.00  0.00    -0.380 OA
ATOM     23  C   LIG    1       -3.527  -3.002   3.407  0.00  0.00    +0.160 C 
ATOM     24  C   LIG    1       -4.382  -3.006   4.676  0.00  0.00    +0.050 C 
ATOM     25  C   LIG    1       -1.064  -3.655   2.058  0.00  0.00    +0.020 C 
ATOM     26  C   LIG    1       -4.336  -2.416   2.247  0.00  0.00    +0.160 C 
ENDBRANCH  18  19
ENDBRANCH  16  18
ENDBRANCH   1  16
TORSDOF 5
