REMARK  Name = ZINCpe00000MAso0.0
REMARK                            x       y       z     vdW  Elec       q    Type
REMARK                         _______ _______ _______ _____ _____    ______ ____
ROOT
ATOM      1  N   LIG    1       -2.112   0.252   2.509  0.00  0.00    -0.560 N 
ATOM      2  C   LIG    1       -0.933   0.325   3.137  0.00  0.00    +0.710 C 
ATOM      3  N   LIG    1       -0.045   1.091   2.477  0.00  0.00    -0.720 N 
ATOM      4  H   LIG    1        0.867   1.283   2.745  0.00  0.00    +0.440 HD
ATOM      5  C   LIG    1       -0.729   1.579   1.267  0.00  0.00    +0.170 C 
ATOM      6  C   LIG    1       -0.013   1.086   0.008  0.00  0.00    +0.110 C 
ATOM      7  O   LIG    1       -0.690  -0.237   4.187  0.00  0.00    -0.530 OA
ATOM      8  C   LIG    1       -2.112   0.968   1.368  0.00  0.00    +0.540 C 
ATOM      9  O   LIG    1       -3.029   1.097   0.585  0.00  0.00    -0.440 OA
ENDROOT
BRANCH   5  10
ATOM     10  C   LIG    1       -0.809   3.084   1.274  0.00  0.00    -0.110 A 
ATOM     11  C   LIG    1       -0.218   3.803   2.295  0.00  0.00    +0.050 A 
ATOM     12  C   LIG    1       -0.286   5.186   2.299  0.00  0.00    +0.090 A 
ATOM     13  C   LIG    1       -0.957   5.848   1.285  0.00  0.00    +0.040 A 
ATOM     14  C   LIG    1       -1.554   5.129   0.267  0.00  0.00    +0.030 A 
ATOM     15  F   LIG    1        0.297   5.888   3.294  0.00  0.00    -0.130 F 
ATOM     16  C   LIG    1       -1.480   3.747   0.260  0.00  0.00    +0.120 A 
ATOM     17  F   LIG    1       -2.063   3.044  -0.736  0.00  0.00    -0.110 F 
ENDBRANCH   5  10
BRANCH   1  18
ATOM     18  C   LIG    1       -3.261  -0.512   3.002  0.00  0.00    +0.360 C 
BRANCH  18  21
ATOM     19  N   LIG    1       -5.224  -0.125   4.457  0.00  0.00    -0.720 N 
ATOM     20  H   LIG    1       -5.484  -1.046   4.298  0.00  0.00    +0.410 HD
ATOM     21  C   LIG    1       -4.106   0.368   3.887  0.00  0.00    +0.500 C 
ATOM     22  O   LIG    1       -3.781   1.519   4.086  0.00  0.00    -0.530 OA
BRANCH  19  23
ATOM     23  C   LIG    1       -6.046   0.730   5.317  0.00  0.00    +0.250 C 
ATOM     24  C   LIG    1       -7.018   1.537   4.454  0.00  0.00    +0.040 C 
BRANCH  23  25
ATOM     25  C   LIG    1       -6.835  -0.140   6.297  0.00  0.00    +0.180 C 
BRANCH  25  27
ATOM     26  C   LIG    1       -8.555  -1.807   6.399  0.00  0.00    +0.200 C 
ATOM     27  O   LIG    1       -7.763  -0.951   5.573  0.00  0.00    -0.390 OA
ENDBRANCH  25  27
ENDBRANCH  23  25
ENDBRANCH  19  23
ENDBRANCH  18  21
ENDBRANCH   1  18
TORSDOF 6
