REMARK  Name = ZINCrg00000SjSmp.0
REMARK                            x       y       z     vdW  Elec       q    Type
REMARK                         _______ _______ _______ _____ _____    ______ ____
ROOT
ATOM      1  C   LIG    1        3.991   1.789  -2.467  0.00  0.00    +0.240 C 
ATOM      2  C   LIG    1        5.177   2.756  -2.483  0.00  0.00    +0.070 C 
ENDROOT
BRANCH   1   3
ATOM      3  C   LIG    1        3.710   1.316  -3.870  0.00  0.00    +0.520 C 
ATOM      4  N   LIG    1        3.392   2.206  -4.830  0.00  0.00    -0.610 N 
ATOM      5  C   LIG    1        3.114   1.764  -6.205  0.00  0.00    +0.310 C 
ATOM      6  C   LIG    1        1.652   2.078  -6.548  0.00  0.00    +0.110 C 
ATOM      7  C   LIG    1        1.334   3.476  -6.086  0.00  0.00    -0.010 A 
ATOM      8  C   LIG    1        2.062   4.176  -5.189  0.00  0.00    -0.020 A 
ATOM      9  N   LIG    1        1.482   5.366  -5.022  0.00  0.00    -0.470 NA
ATOM     10  C   LIG    1        0.421   5.436  -5.784  0.00  0.00    +0.390 A 
ATOM     11  N   LIG    1        0.297   4.273  -6.464  0.00  0.00    -0.420 N 
ATOM     12  C   LIG    1        3.307   3.646  -4.527  0.00  0.00    +0.380 C 
ATOM     13  O   LIG    1        3.771   0.134  -4.135  0.00  0.00    -0.520 OA
BRANCH  11  14
ATOM     14  C   LIG    1       -0.755   3.935  -7.427  0.00  0.00    +0.190 C 
ATOM     15  C   LIG    1       -1.705   5.054  -7.856  0.00  0.00    +0.060 C 
ATOM     16  C   LIG    1       -2.200   3.944  -6.926  0.00  0.00    +0.040 C 
ENDBRANCH  11  14
ENDBRANCH   1   3
BRANCH   1  17
ATOM     17  N   LIG    1        4.311   0.638  -1.619  0.00  0.00    -1.100 NA
ATOM     18  H   LIG    1        4.800  -0.115  -1.986  0.00  0.00    +0.430 HD
BRANCH  17  19
ATOM     19  S   LIG    1        3.837   0.622  -0.032  0.00  0.00    +2.730 S 
ATOM     20  O   LIG    1        4.260  -0.625   0.501  0.00  0.00    -0.940 OA
ATOM     21  O   LIG    1        4.226   1.874   0.516  0.00  0.00    -0.940 OA
BRANCH  19  28
ATOM     22  C   LIG    1        1.565   3.160   0.003  0.00  0.00    +0.190 C 
ATOM     23  C   LIG    1        1.189   1.701  -0.000  0.00  0.00    +0.110 A 
ATOM     24  N   LIG    1       -0.014   1.205   0.009  0.00  0.00    -0.360 NA
ATOM     25  O   LIG    1        0.002  -0.004   0.002  0.00  0.00    +0.100 OA
ATOM     26  C   LIG    1        1.255  -0.480  -0.013  0.00  0.00    +0.120 A 
ATOM     27  C   LIG    1        1.670  -1.928  -0.024  0.00  0.00    +0.220 C 
ATOM     28  C   LIG    1        2.075   0.599  -0.015  0.00  0.00    -0.810 A 
ENDBRANCH  19  28
ENDBRANCH  17  19
ENDBRANCH   1  17
TORSDOF 5
