REMARK  Name = ZINCpk000000oESJ.0
REMARK                            x       y       z     vdW  Elec       q    Type
REMARK                         _______ _______ _______ _____ _____    ______ ____
ROOT
ATOM      1  C   LIG    1        1.634  10.018   0.537  0.00  0.00    +0.250 C 
ATOM      2  C   LIG    1        1.657  10.421   2.013  0.00  0.00    +0.080 C 
ENDROOT
BRANCH   1   3
ATOM      3  N   LIG    1        2.255  11.074  -0.267  0.00  0.00    -0.460 N 
ATOM      4  C   LIG    1        3.535  11.528  -0.153  0.00  0.00    +0.500 A 
ATOM      5  N   LIG    1        3.752  12.470  -1.024  0.00  0.00    -0.470 NA
ATOM      6  C   LIG    1        2.628  12.680  -1.751  0.00  0.00    -0.110 A 
ATOM      7  C   LIG    1        2.277  13.545  -2.801  0.00  0.00    +0.510 A 
ATOM      8  N   LIG    1        1.044  13.477  -3.292  0.00  0.00    -0.590 NA
ATOM      9  C   LIG    1        0.162  12.620  -2.811  0.00  0.00    +0.560 A 
ATOM     10  N   LIG    1        0.446  11.792  -1.828  0.00  0.00    -0.560 NA
ATOM     11  C   LIG    1        1.655  11.783  -1.277  0.00  0.00    +0.300 A 
BRANCH   7  12
ATOM     12  N   LIG    1        3.194  14.447  -3.312  0.00  0.00    -0.820 N 
ATOM     13  H   LIG    1        2.940  15.039  -4.037  0.00  0.00    +0.410 HD
ATOM     14  H   LIG    1        4.091  14.487  -2.945  0.00  0.00    +0.420 HD
ENDBRANCH   7  12
ENDBRANCH   1   3
BRANCH   1  16
ATOM     15  N   LIG    1        1.879   7.570   0.795  0.00  0.00    -0.610 N 
ATOM     16  C   LIG    1        2.400   8.733   0.356  0.00  0.00    +0.510 C 
ATOM     17  O   LIG    1        3.485   8.745  -0.186  0.00  0.00    -0.510 OA
BRANCH  15  19
ATOM     18  C   LIG    1        0.734   7.553   2.956  0.00  0.00    +0.020 C 
ATOM     19  C   LIG    1        0.562   7.554   1.436  0.00  0.00    +0.260 C 
ENDBRANCH  15  19
BRANCH  15  20
ATOM     20  C   LIG    1        2.630   6.323   0.633  0.00  0.00    +0.310 C 
BRANCH  20  21
ATOM     21  C   LIG    1        2.270   5.682  -0.709  0.00  0.00    +0.090 C 
BRANCH  21  22
ATOM     22  C   LIG    1        3.043   4.399  -0.876  0.00  0.00    +0.130 A 
ATOM     23  C   LIG    1        2.365   3.222  -1.132  0.00  0.00    -0.040 A 
ATOM     24  C   LIG    1        3.086   2.048  -1.289  0.00  0.00    +0.070 A 
ATOM     25  C   LIG    1        4.466   2.100  -1.172  0.00  0.00    -0.040 A 
ATOM     26  C   LIG    1        5.075   3.315  -0.916  0.00  0.00    +0.260 A 
ATOM     27  N   LIG    1        4.358   4.412  -0.777  0.00  0.00    -0.480 NA
ENDBRANCH  21  22
ENDBRANCH  20  21
ENDBRANCH  15  20
ENDBRANCH   1  16
TORSDOF 7
