REMARK  Name = ZINCvU0000000BPh.0
REMARK                            x       y       z     vdW  Elec       q    Type
REMARK                         _______ _______ _______ _____ _____    ______ ____
ROOT
ATOM      1  C   LIG    1        5.481   1.846   1.025  0.00  0.00    +0.510 C 
ATOM      2  N   LIG    1        6.536   2.473   0.467  0.00  0.00    -0.610 N 
ATOM      3  C   LIG    1        7.887   1.904   0.574  0.00  0.00    +0.270 C 
ATOM      4  C   LIG    1        8.483   1.781  -0.832  0.00  0.00    +0.010 C 
ATOM      5  C   LIG    1        8.428   3.143  -1.526  0.00  0.00    +0.010 C 
ATOM      6  C   LIG    1        6.971   3.593  -1.657  0.00  0.00    +0.040 C 
ATOM      7  C   LIG    1        6.358   3.737  -0.261  0.00  0.00    +0.310 C 
ATOM      8  O   LIG    1        4.361   2.280   0.858  0.00  0.00    -0.490 OA
ENDROOT
BRANCH   7   9
ATOM      9  C   LIG    1        4.888   4.045  -0.384  0.00  0.00    +0.240 A 
ATOM     10  N   LIG    1        4.042   3.411  -1.147  0.00  0.00    -0.450 NA
ATOM     11  C   LIG    1        2.818   3.958  -1.002  0.00  0.00    +0.050 A 
ATOM     12  C   LIG    1        2.924   4.978  -0.111  0.00  0.00    +0.130 A 
ATOM     13  N   LIG    1        4.234   5.024   0.279  0.00  0.00    -0.560 N 
ATOM     14  H   LIG    1        4.622   5.647   0.913  0.00  0.00    +0.410 HD
BRANCH  11  15
ATOM     15  C   LIG    1        1.579   3.527  -1.696  0.00  0.00    +0.010 A 
ATOM     16  C   LIG    1        1.634   2.535  -2.672  0.00  0.00    +0.030 A 
ATOM     17  C   LIG    1        0.478   2.138  -3.314  0.00  0.00    +0.000 A 
ATOM     18  C   LIG    1       -0.731   2.727  -2.993  0.00  0.00    -0.010 A 
ATOM     19  C   LIG    1       -0.792   3.709  -2.021  0.00  0.00    +0.000 A 
ATOM     20  C   LIG    1        0.357   4.114  -1.373  0.00  0.00    +0.000 A 
ENDBRANCH  11  15
ENDBRANCH   7   9
BRANCH   1  21
ATOM     21  C   LIG    1        5.694   0.607   1.855  0.00  0.00    +0.050 C 
BRANCH  21  22
ATOM     22  C   LIG    1        4.356   0.147   2.437  0.00  0.00    +0.060 C 
BRANCH  22  23
ATOM     23  C   LIG    1        4.590  -0.985   3.404  0.00  0.00    -0.110 A 
ATOM     24  C   LIG    1        5.178  -2.156   2.964  0.00  0.00    +0.050 A 
ATOM     25  C   LIG    1        5.400  -3.194   3.849  0.00  0.00    -0.080 A 
ATOM     26  C   LIG    1        5.021  -3.063   5.178  0.00  0.00    +0.120 A 
ATOM     27  C   LIG    1        4.426  -1.889   5.615  0.00  0.00    -0.020 A 
ATOM     28  C   LIG    1        4.212  -0.852   4.727  0.00  0.00    +0.050 A 
BRANCH  26  29
ATOM     29  O   LIG    1        5.233  -4.084   6.049  0.00  0.00    -0.320 OA
ATOM     30  C   LIG    1        5.851  -5.263   5.529  0.00  0.00    +0.250 C 
ENDBRANCH  26  29
ENDBRANCH  22  23
BRANCH  22  32
ATOM     31  C   LIG    1        2.070  -0.690   1.874  0.00  0.00    +0.000 C 
ATOM     32  C   LIG    1        3.443  -0.329   1.305  0.00  0.00    +0.020 C 
ENDBRANCH  22  32
ENDBRANCH  21  22
ENDBRANCH   1  21
TORSDOF 7
