REMARK  Name = ZINCnE000001G31d.0
REMARK                            x       y       z     vdW  Elec       q    Type
REMARK                         _______ _______ _______ _____ _____    ______ ____
ROOT
ATOM      1  N   LIG    1        0.805   6.362  -1.396  0.00  0.00    -0.610 N 
ATOM      2  C   LIG    1       -0.137   6.850  -2.226  0.00  0.00    +0.590 C 
ATOM      3  O   LIG    1       -1.309   6.584  -2.040  0.00  0.00    -0.550 OA
ENDROOT
BRANCH   2   4
ATOM      4  C   LIG    1        0.253   7.709  -3.362  0.00  0.00    -0.280 A 
ATOM      5  C   LIG    1       -0.405   8.922  -3.580  0.00  0.00    +0.090 A 
ATOM      6  C   LIG    1       -0.038   9.721  -4.641  0.00  0.00    -0.150 A 
ATOM      7  C   LIG    1        0.985   9.323  -5.492  0.00  0.00    +0.300 A 
ATOM      8  C   LIG    1        1.642   8.116  -5.279  0.00  0.00    -0.180 A 
ATOM      9 CL   LIG    1        2.919   7.623  -6.346  0.00  0.00    -0.110 Cl
ATOM     10  O   LIG    1        1.343  10.114  -6.536  0.00  0.00    -0.690 OA
ATOM     11  C   LIG    1        1.284   7.313  -4.217  0.00  0.00    +0.080 A 
ENDBRANCH   2   4
BRANCH   1  13
ATOM     12  C   LIG    1        2.792   5.344  -2.396  0.00  0.00    +0.010 C 
ATOM     13  C   LIG    1        2.224   6.577  -1.691  0.00  0.00    +0.270 C 
ENDBRANCH   1  13
BRANCH   1  14
ATOM     14  C   LIG    1        0.411   5.614  -0.199  0.00  0.00    +0.330 C 
BRANCH  14  15
ATOM     15  C   LIG    1        0.305   4.149  -0.534  0.00  0.00    -0.090 A 
ATOM     16  C   LIG    1       -0.896   3.627  -0.975  0.00  0.00    +0.070 A 
ATOM     17  C   LIG    1       -0.997   2.284  -1.288  0.00  0.00    +0.030 A 
ATOM     18  C   LIG    1        0.105   1.456  -1.152  0.00  0.00    +0.030 A 
ATOM     19  O   LIG    1        0.268   0.121  -1.387  0.00  0.00    -0.310 OA
ATOM     20  C   LIG    1        1.476  -0.245  -0.695  0.00  0.00    +0.420 C 
ATOM     21  O   LIG    1        2.238   0.976  -0.665  0.00  0.00    -0.310 OA
ATOM     22  C   LIG    1        1.316   1.982  -0.708  0.00  0.00    +0.020 A 
ATOM     23  C   LIG    1        1.411   3.329  -0.401  0.00  0.00    +0.040 A 
ENDBRANCH  14  15
ENDBRANCH   1  14
TORSDOF 4
