REMARK  Name = ZINCqH000000816K.0
REMARK                            x       y       z     vdW  Elec       q    Type
REMARK                         _______ _______ _______ _____ _____    ______ ____
ROOT
ATOM      1  C   LIG    1       -1.413  -2.063   0.004  0.00  0.00    +0.250 C 
ENDROOT
BRANCH   1   2
ATOM      2  C   LIG    1       -2.820  -2.586   0.139  0.00  0.00    +0.520 C 
ATOM      3  N   LIG    1       -3.552  -2.276   1.227  0.00  0.00    -0.720 N 
ATOM      4  H   LIG    1       -3.174  -1.717   1.923  0.00  0.00    +0.400 HD
ATOM      5  O   LIG    1       -3.293  -3.285  -0.732  0.00  0.00    -0.530 OA
BRANCH   3   6
ATOM      6  C   LIG    1       -4.920  -2.784   1.358  0.00  0.00    +0.280 C 
ATOM      7  C   LIG    1       -4.887  -4.189   1.961  0.00  0.00    +0.040 C 
BRANCH   6   8
ATOM      8  C   LIG    1       -5.712  -1.869   2.257  0.00  0.00    -0.100 A 
ATOM      9  C   LIG    1       -5.125  -1.337   3.390  0.00  0.00    +0.000 A 
ATOM     10  C   LIG    1       -5.850  -0.495   4.213  0.00  0.00    +0.020 A 
ATOM     11  C   LIG    1       -7.163  -0.192   3.907  0.00  0.00    +0.000 A 
ATOM     12  C   LIG    1       -7.752  -0.729   2.777  0.00  0.00    +0.020 A 
ATOM     13  C   LIG    1       -7.026  -1.567   1.952  0.00  0.00    +0.020 A 
ENDBRANCH   6   8
ENDBRANCH   3   6
ENDBRANCH   1   2
BRANCH   1  14
ATOM     14  N   LIG    1       -0.834  -2.537  -1.256  0.00  0.00    -0.710 N 
ATOM     15  H   LIG    1       -1.414  -2.772  -1.997  0.00  0.00    +0.410 HD
ATOM     16  C   LIG    1        0.503  -2.647  -1.384  0.00  0.00    +0.570 C 
ATOM     17  O   LIG    1        1.229  -2.353  -0.455  0.00  0.00    -0.530 OA
BRANCH  16  18
ATOM     18  C   LIG    1        1.087  -3.125  -2.655  0.00  0.00    -0.140 A 
ATOM     19  C   LIG    1        0.255  -3.469  -3.723  0.00  0.00    +0.040 A 
ATOM     20  C   LIG    1        0.807  -3.910  -4.908  0.00  0.00    +0.010 A 
ATOM     21  C   LIG    1        2.180  -4.021  -5.037  0.00  0.00    +0.040 A 
ATOM     22  C   LIG    1        3.009  -3.687  -3.981  0.00  0.00    -0.090 A 
ATOM     23  C   LIG    1        4.503  -3.812  -4.130  0.00  0.00    +0.090 C 
ATOM     24  C   LIG    1        2.471  -3.240  -2.792  0.00  0.00    +0.080 A 
ENDBRANCH  16  18
ENDBRANCH   1  14
BRANCH   1  25
ATOM     25  C   LIG    1       -1.433  -0.534   0.013  0.00  0.00    +0.060 C 
BRANCH  25  26
ATOM     26  C   LIG    1        0.002  -0.004   0.002  0.00  0.00    +0.110 C 
BRANCH  26  28
ATOM     27  C   LIG    1        1.739   2.242  -0.003  0.00  0.00    +0.140 C 
ATOM     28  S   LIG    1       -0.022   1.810   0.012  0.00  0.00    -0.270 S 
ENDBRANCH  26  28
ENDBRANCH  25  26
ENDBRANCH   1  25
TORSDOF 8
