REMARK  Name = ZINCvU00000007E5.0
REMARK                            x       y       z     vdW  Elec       q    Type
REMARK                         _______ _______ _______ _____ _____    ______ ____
ROOT
ATOM      1  N   LIG    1       -5.412   3.473   5.947  0.00  0.00    -0.590 N 
ATOM      2  C   LIG    1       -6.628   3.470   5.372  0.00  0.00    +0.520 C 
ATOM      3  C   LIG    1       -6.499   3.228   3.920  0.00  0.00    +0.100 C 
ATOM      4  C   LIG    1       -5.191   3.074   3.609  0.00  0.00    -0.220 C 
ATOM      5  O   LIG    1       -7.678   3.646   5.960  0.00  0.00    -0.510 OA
ATOM      6  C   LIG    1       -4.416   3.227   4.897  0.00  0.00    +0.340 C 
ENDROOT
BRANCH   6   7
ATOM      7  C   LIG    1       -3.468   4.394   4.796  0.00  0.00    -0.110 A 
ATOM      8  C   LIG    1       -3.961   5.685   4.785  0.00  0.00    +0.040 A 
ATOM      9  C   LIG    1       -3.090   6.756   4.697  0.00  0.00    +0.000 A 
ATOM     10  C   LIG    1       -1.729   6.534   4.609  0.00  0.00    -0.060 A 
ATOM     11  C   LIG    1       -1.237   5.242   4.615  0.00  0.00    +0.010 A 
ATOM     12  C   LIG    1       -2.107   4.172   4.708  0.00  0.00    +0.030 A 
BRANCH  10  13
ATOM     13  C   LIG    1       -0.780   7.701   4.507  0.00  0.00    +0.020 C 
ATOM     14  C   LIG    1       -0.931   8.591   5.743  0.00  0.00    +0.040 C 
ATOM     15  C   LIG    1       -1.105   8.513   3.252  0.00  0.00    +0.030 C 
ENDBRANCH  10  13
ENDBRANCH   6   7
BRANCH   4  16
ATOM     16  C   LIG    1       -4.633   2.814   2.279  0.00  0.00    +0.480 C 
ATOM     17  O   LIG    1       -4.719   3.660   1.407  0.00  0.00    -0.430 OA
BRANCH  16  18
ATOM     18  C   LIG    1       -3.968   1.527   1.995  0.00  0.00    -0.190 A 
ATOM     19  C   LIG    1       -3.808   0.582   3.013  0.00  0.00    +0.100 A 
ATOM     20  C   LIG    1       -3.187  -0.617   2.745  0.00  0.00    -0.080 A 
ATOM     21  C   LIG    1       -2.719  -0.888   1.464  0.00  0.00    +0.170 A 
ATOM     22  C   LIG    1       -2.876   0.049   0.449  0.00  0.00    -0.130 A 
ATOM     23  C   LIG    1       -2.367  -0.251  -0.938  0.00  0.00    +0.100 C 
ATOM     24  C   LIG    1       -3.491   1.252   0.710  0.00  0.00    +0.120 A 
BRANCH  21  25
ATOM     25  O   LIG    1       -2.107  -2.071   1.203  0.00  0.00    -0.310 OA
BRANCH  25  26
ATOM     26  C   LIG    1       -1.979  -2.989   2.292  0.00  0.00    +0.190 C 
ATOM     27  C   LIG    1       -1.270  -4.256   1.810  0.00  0.00    +0.070 C 
ENDBRANCH  25  26
ENDBRANCH  21  25
ENDBRANCH  16  18
ENDBRANCH   4  16
BRANCH   3  28
ATOM     28  O   LIG    1       -7.526   3.168   3.041  0.00  0.00    -0.430 OA
ATOM     29  H   LIG    1       -8.396   3.303   3.442  0.00  0.00    +0.410 HD
ENDBRANCH   3  28
BRANCH   1  30
ATOM     30  C   LIG    1       -5.131   3.686   7.369  0.00  0.00    +0.360 C 
BRANCH  30  32
ATOM     31  C   LIG    1       -5.651   5.767   8.535  0.00  0.00    +0.040 C 
ATOM     32  C   LIG    1       -4.930   5.157   7.627  0.00  0.00    -0.070 C 
ENDBRANCH  30  32
ENDBRANCH   1  30
TORSDOF 9
