REMARK  Name = ZINCrH000004sJHD.0
REMARK                            x       y       z     vdW  Elec       q    Type
REMARK                         _______ _______ _______ _____ _____    ______ ____
ROOT
ATOM      1  C   LIG    1       -1.074   3.873   0.028  0.00  0.00    +0.600 C 
ATOM      2  N   LIG    1       -1.169   2.529   0.021  0.00  0.00    -0.620 N 
ATOM      3  H   LIG    1       -2.041   2.104   0.023  0.00  0.00    +0.430 HD
ATOM      4  O   LIG    1        0.019   4.405   0.026  0.00  0.00    -0.440 OA
ENDROOT
BRANCH   2   5
ATOM      5  C   LIG    1       -0.022   1.754   0.012  0.00  0.00    +0.360 A 
ATOM      6  N   LIG    1        1.179   2.219   0.003  0.00  0.00    -0.480 NA
ATOM      7  C   LIG    1        2.197   1.336  -0.012  0.00  0.00    +0.160 A 
ATOM      8  C   LIG    1        3.586   1.589  -0.025  0.00  0.00    +0.060 A 
ATOM      9  C   LIG    1        4.481   0.549  -0.039  0.00  0.00    +0.140 A 
ATOM     10  C   LIG    1        4.038  -0.765  -0.041  0.00  0.00    -0.660 A 
ATOM     11  C   LIG    1        2.687  -1.036  -0.030  0.00  0.00    +0.200 A 
ATOM     12  C   LIG    1        1.764   0.006  -0.015  0.00  0.00    -0.210 A 
ATOM     13  S   LIG    1        0.002  -0.004   0.002  0.00  0.00    +0.090 S 
BRANCH  10  14
ATOM     14  S   LIG    1        5.202  -2.088  -0.060  0.00  0.00    +2.500 S 
ATOM     15  O   LIG    1        4.510  -3.171   0.547  0.00  0.00    -0.930 OA
ATOM     16  O   LIG    1        6.367  -1.537   0.537  0.00  0.00    -0.930 OA
ATOM     17  C   LIG    1        5.483  -2.419  -1.821  0.00  0.00    -0.250 C 
ENDBRANCH  10  14
ENDBRANCH   2   5
BRANCH   1  24
ATOM     18  C   LIG    1       -2.608   4.887   2.615  0.00  0.00    +0.180 C 
ATOM     19  C   LIG    1       -2.988   5.156   1.182  0.00  0.00    +0.130 A 
ATOM     20  N   LIG    1       -4.012   5.856   0.779  0.00  0.00    -0.260 NA
ATOM     21  N   LIG    1       -4.031   5.871  -0.620  0.00  0.00    -0.340 N 
ATOM     22  C   LIG    1       -2.981   5.162  -1.068  0.00  0.00    +0.170 A 
ATOM     23 CL   LIG    1       -2.563   4.883  -2.730  0.00  0.00    +0.020 Cl
ATOM     24  C   LIG    1       -2.294   4.697   0.039  0.00  0.00    -0.270 A 
BRANCH  21  25
ATOM     25  C   LIG    1       -5.028   6.545  -1.455  0.00  0.00    +0.330 C 
BRANCH  25  26
ATOM     26  C   LIG    1       -6.182   5.584  -1.747  0.00  0.00    -0.030 C 
ATOM     27  C   LIG    1       -7.161   6.244  -2.720  0.00  0.00    +0.040 C 
ATOM     28  C   LIG    1       -6.908   5.247  -0.443  0.00  0.00    +0.030 C 
ENDBRANCH  25  26
ENDBRANCH  21  25
ENDBRANCH   1  24
TORSDOF 5
