REMARK  Name = ZINCpe000000Tpsc.0
REMARK                            x       y       z     vdW  Elec       q    Type
REMARK                         _______ _______ _______ _____ _____    ______ ____
ROOT
ATOM      1  N   LIG    1        2.379   1.423  -0.013  0.00  0.00    -0.520 N 
ATOM      2  C   LIG    1        2.348   0.078  -0.019  0.00  0.00    +0.710 A 
ATOM      3  N   LIG    1        1.204  -0.624  -0.013  0.00  0.00    -0.560 N 
ATOM      4  C   LIG    1        0.002  -0.004   0.002  0.00  0.00    +0.570 A 
ATOM      5  C   LIG    1       -0.018   1.462   0.010  0.00  0.00    -0.300 A 
ATOM      6  C   LIG    1       -1.208   2.204   0.031  0.00  0.00    +0.220 A 
ATOM      7  N   LIG    1       -1.118   3.535   0.033  0.00  0.00    -0.550 NA
ATOM      8  C   LIG    1        0.054   4.137   0.025  0.00  0.00    +0.410 A 
ATOM      9  N   LIG    1        1.197   3.477   0.010  0.00  0.00    -0.550 NA
ATOM     10  O   LIG    1       -1.032  -0.644   0.008  0.00  0.00    -0.470 OA
ATOM     11  C   LIG    1        1.258  -2.088  -0.021  0.00  0.00    +0.350 C 
ATOM     12  O   LIG    1        3.401  -0.527  -0.032  0.00  0.00    -0.520 OA
ATOM     13  C   LIG    1        1.210   2.152   0.002  0.00  0.00    +0.470 A 
ENDROOT
BRANCH   8  14
ATOM     14  C   LIG    1        0.091   5.644   0.033  0.00  0.00    +0.070 C 
ATOM     15  C   LIG    1       -0.606   6.164   1.292  0.00  0.00    +0.060 C 
ATOM     16  C   LIG    1       -0.630   6.178  -1.206  0.00  0.00    +0.060 C 
ENDBRANCH   8  14
BRANCH   1  17
ATOM     17  C   LIG    1        3.668   2.119  -0.022  0.00  0.00    +0.330 C 
BRANCH  17  19
ATOM     18  C   LIG    1        5.449   3.095  -1.477  0.00  0.00    +0.030 C 
ATOM     19  C   LIG    1        4.103   2.368  -1.468  0.00  0.00    +0.000 C 
ENDBRANCH  17  19
ENDBRANCH   1  17
BRANCH   6  20
ATOM     20  S   LIG    1       -2.777   1.401   0.049  0.00  0.00    +0.160 S 
BRANCH  20  21
ATOM     21  C   LIG    1       -3.869   2.845   0.072  0.00  0.00    +0.070 C 
BRANCH  21  22
ATOM     22  C   LIG    1       -5.305   2.389   0.090  0.00  0.00    +0.530 C 
ATOM     23  N   LIG    1       -6.300   3.297   0.109  0.00  0.00    -0.730 N 
ATOM     24  H   LIG    1       -6.092   4.245   0.112  0.00  0.00    +0.410 HD
ATOM     25  C   LIG    1       -7.696   2.854   0.126  0.00  0.00    +0.290 C 
ATOM     26  O   LIG    1       -5.565   1.204   0.086  0.00  0.00    -0.520 OA
ENDBRANCH  21  22
ENDBRANCH  20  21
ENDBRANCH   6  20
TORSDOF 6
