REMARK  Name = ZINCkj000005joYm.1
REMARK                            x       y       z     vdW  Elec       q    Type
REMARK                         _______ _______ _______ _____ _____    ______ ____
ROOT
ATOM      1  C   LIG    1        1.409   1.357   5.167  0.00  0.00    +0.040 C 
ATOM      2  C   LIG    1        2.051   0.872   3.866  0.00  0.00    +0.220 C 
ATOM      3  C   LIG    1        3.463   1.475   3.717  0.00  0.00    +0.060 C 
ATOM      4  C   LIG    1        3.221   2.701   2.798  0.00  0.00    +0.050 C 
ATOM      5  C   LIG    1        2.111   2.170   1.857  0.00  0.00    +0.270 C 
ATOM      6  N   LIG    1        1.257   1.330   2.716  0.00  0.00    -0.590 N 
ATOM      7  C   LIG    1       -0.038   1.035   2.488  0.00  0.00    +0.520 C 
ATOM      8  O   LIG    1       -0.646   0.331   3.266  0.00  0.00    -0.520 OA
ENDROOT
BRANCH   7   9
ATOM      9  C   LIG    1       -0.731   1.580   1.266  0.00  0.00    +0.140 C 
ATOM     10  C   LIG    1       -0.013   1.086   0.008  0.00  0.00    +0.280 C 
ATOM     11  O   LIG    1       -0.706   1.560  -1.149  0.00  0.00    -0.350 OA
ATOM     12  C   LIG    1       -2.077   1.155  -1.204  0.00  0.00    +0.270 C 
ATOM     13  C   LIG    1       -2.800   1.649   0.051  0.00  0.00    +0.250 C 
ATOM     14  N   LIG    1       -2.126   1.117   1.244  0.00  0.00    -0.490 N 
ATOM     15  H   LIG    1       -2.145   0.108   1.219  0.00  0.00    +0.430 HD
ATOM     16  H   LIG    1       -2.602   1.442   2.072  0.00  0.00    +0.440 HD
ENDBRANCH   7   9
BRANCH   4  17
ATOM     17  C   LIG    1        4.465   3.052   2.024  0.00  0.00    -0.090 A 
ATOM     18  C   LIG    1        5.105   2.086   1.271  0.00  0.00    +0.000 A 
ATOM     19  C   LIG    1        6.244   2.409   0.556  0.00  0.00    +0.020 A 
ATOM     20  C   LIG    1        6.748   3.695   0.603  0.00  0.00    +0.020 A 
ATOM     21  C   LIG    1        6.110   4.660   1.361  0.00  0.00    +0.020 A 
ATOM     22  C   LIG    1        4.969   4.338   2.071  0.00  0.00    +0.010 A 
ENDBRANCH   4  17
TORSDOF 2
