REMARK  Name = ZINCrH000004vFKb.0
REMARK                            x       y       z     vdW  Elec       q    Type
REMARK                         _______ _______ _______ _____ _____    ______ ____
ROOT
ATOM      1  O   LIG    1       -0.758  -0.471   2.081  0.00  0.00    -0.540 OA
ATOM      2  C   LIG    1       -1.091   0.697   2.171  0.00  0.00    +0.620 C 
ATOM      3  N   LIG    1       -0.916   1.530   1.126  0.00  0.00    -0.590 N 
ATOM      4  C   LIG    1       -0.181   1.089  -0.067  0.00  0.00    +0.310 C 
ATOM      5  C   LIG    1       -1.053   1.329  -1.304  0.00  0.00    +0.030 C 
ATOM      6  C   LIG    1       -1.487   2.796  -1.339  0.00  0.00    +0.270 C 
ATOM      7  C   LIG    1       -2.317   3.115  -0.094  0.00  0.00    +0.030 C 
ATOM      8  C   LIG    1       -1.460   2.894   1.157  0.00  0.00    +0.310 C 
ENDROOT
BRANCH   2   9
ATOM      9  C   LIG    1       -1.681   1.196   3.413  0.00  0.00    +0.090 A 
ATOM     10  N   LIG    1       -1.974   2.462   3.673  0.00  0.00    -0.370 NA
ATOM     11  C   LIG    1       -2.494   2.563   4.883  0.00  0.00    -0.000 A 
ATOM     12  C   LIG    1       -2.539   1.285   5.438  0.00  0.00    +0.070 A 
ATOM     13  C   LIG    1       -2.982   0.784   6.673  0.00  0.00    +0.070 A 
ATOM     14  C   LIG    1       -2.902  -0.555   6.915  0.00  0.00    +0.060 A 
ATOM     15  C   LIG    1       -2.372  -1.406   5.933  0.00  0.00    +0.040 A 
ATOM     16  C   LIG    1       -1.946  -0.906   4.752  0.00  0.00    +0.240 A 
ATOM     17 BR   LIG    1       -3.074   4.159   5.715  0.00  0.00    +0.040 Br
ATOM     18  N   LIG    1       -2.027   0.429   4.495  0.00  0.00    -0.310 N 
ENDBRANCH   2   9
BRANCH   6  19
ATOM     19  N   LIG    1       -2.294   3.038  -2.538  0.00  0.00    -0.350 N 
ATOM     20  C   LIG    1       -3.620   2.819  -2.660  0.00  0.00    +0.250 A 
ATOM     21  C   LIG    1       -3.982   3.170  -3.916  0.00  0.00    -0.070 A 
ATOM     22  C   LIG    1       -2.836   3.609  -4.587  0.00  0.00    -0.020 A 
ATOM     23  N   LIG    1       -1.824   3.530  -3.763  0.00  0.00    -0.230 NA
BRANCH  22  24
ATOM     24  C   LIG    1       -2.778   4.089  -6.014  0.00  0.00    +0.560 C 
ATOM     25  F   LIG    1       -3.521   5.268  -6.140  0.00  0.00    -0.170 F 
ATOM     26  F   LIG    1       -3.312   3.110  -6.858  0.00  0.00    -0.170 F 
ATOM     27  F   LIG    1       -1.448   4.337  -6.370  0.00  0.00    -0.170 F 
ENDBRANCH  22  24
ENDBRANCH   6  19
TORSDOF 3
