REMARK  Name = ZINCrH000004jRCO.0
REMARK                            x       y       z     vdW  Elec       q    Type
REMARK                         _______ _______ _______ _____ _____    ______ ____
ROOT
ATOM      1  C   LIG    1        3.858  -2.602  -4.846  0.00  0.00    +0.290 C 
ATOM      2  N   LIG    1        3.718  -3.719  -3.908  0.00  0.00    -0.610 N 
ATOM      3  C   LIG    1        3.631  -3.480  -2.584  0.00  0.00    +0.520 C 
ATOM      4  O   LIG    1        3.515  -4.404  -1.807  0.00  0.00    -0.540 OA
ENDROOT
BRANCH   3   5
ATOM      5  C   LIG    1        3.678  -2.064  -2.069  0.00  0.00    +0.040 C 
BRANCH   5   6
ATOM      6  C   LIG    1        3.560  -2.073  -0.544  0.00  0.00    +0.320 C 
BRANCH   6   7
ATOM      7  N   LIG    1        3.605  -0.697  -0.043  0.00  0.00    -0.540 N 
ATOM      8  C   LIG    1        2.459  -0.019  -0.029  0.00  0.00    +0.520 C 
ATOM      9  C   LIG    1        2.338   1.394   0.470  0.00  0.00    +0.150 C 
ATOM     10  S   LIG    1        3.480   1.629   1.865  0.00  0.00    -0.080 S 
ATOM     11  C   LIG    1        4.948   0.857   1.264  0.00  0.00    -0.130 A 
ATOM     12  C   LIG    1        6.191   1.313   1.669  0.00  0.00    +0.080 A 
ATOM     13  C   LIG    1        7.338   0.706   1.191  0.00  0.00    +0.010 A 
ATOM     14  C   LIG    1        7.241  -0.354   0.310  0.00  0.00    +0.050 A 
ATOM     15  C   LIG    1        6.004  -0.815  -0.097  0.00  0.00    -0.010 A 
ATOM     16  O   LIG    1        1.461  -0.571  -0.440  0.00  0.00    -0.510 OA
ATOM     17  C   LIG    1        4.843  -0.215   0.376  0.00  0.00    +0.160 A 
ENDBRANCH   6   7
ENDBRANCH   5   6
ENDBRANCH   3   5
BRANCH   2  18
ATOM     18  C   LIG    1        3.673  -5.095  -4.408  0.00  0.00    +0.320 C 
BRANCH  18  19
ATOM     19  C   LIG    1        2.221  -5.487  -4.692  0.00  0.00    +0.190 C 
BRANCH  19  20
ATOM     20  O   LIG    1        1.710  -4.681  -5.756  0.00  0.00    -0.310 OA
BRANCH  20  21
ATOM     21  C   LIG    1        0.424  -4.903  -6.135  0.00  0.00    +0.140 A 
ATOM     22  C   LIG    1       -0.328  -5.881  -5.501  0.00  0.00    -0.060 A 
ATOM     23  C   LIG    1       -1.637  -6.102  -5.885  0.00  0.00    +0.070 A 
ATOM     24  C   LIG    1       -2.194  -5.356  -6.908  0.00  0.00    -0.070 A 
ATOM     25  C   LIG    1       -1.444  -4.384  -7.546  0.00  0.00    +0.070 A 
ATOM     26 CL   LIG    1       -3.836  -5.640  -7.393  0.00  0.00    -0.070 Cl
ATOM     27  C   LIG    1       -0.137  -4.156  -7.161  0.00  0.00    +0.000 A 
ENDBRANCH  20  21
ENDBRANCH  19  20
ENDBRANCH  18  19
ENDBRANCH   2  18
TORSDOF 7
