REMARK  Name = ZINCrH00000amqbz.0
REMARK                            x       y       z     vdW  Elec       q    Type
REMARK                         _______ _______ _______ _____ _____    ______ ____
ROOT
ATOM      1  C   LIG    1        3.233  -0.588   4.876  0.00  0.00    +0.020 C 
ATOM      2  C   LIG    1        2.935   0.910   4.773  0.00  0.00    +0.240 C 
ENDROOT
BRANCH   2   3
ATOM      3  N   LIG    1        3.140   1.355   3.393  0.00  0.00    -0.720 N 
ATOM      4  H   LIG    1        3.989   1.742   3.129  0.00  0.00    +0.390 HD
ATOM      5  C   LIG    1        2.148   1.226   2.489  0.00  0.00    +0.580 C 
ATOM      6  O   LIG    1        1.083   0.741   2.820  0.00  0.00    -0.500 OA
BRANCH   5   7
ATOM      7  C   LIG    1        2.354   1.674   1.100  0.00  0.00    -0.200 A 
ATOM      8  C   LIG    1        3.482   2.236   0.569  0.00  0.00    +0.210 A 
ATOM      9  O   LIG    1        3.256   2.497  -0.724  0.00  0.00    -0.160 OA
ATOM     10  C   LIG    1        2.018   2.129  -1.077  0.00  0.00    -0.000 A 
ATOM     11  C   LIG    1        1.375   2.249  -2.439  0.00  0.00    +0.140 C 
ATOM     12  C   LIG    1        0.145   1.334  -2.476  0.00  0.00    +0.040 C 
ATOM     13  C   LIG    1       -0.730   1.600  -1.247  0.00  0.00    +0.000 C 
ATOM     14  C   LIG    1       -0.013   1.086   0.008  0.00  0.00    +0.250 C 
ATOM     15  C   LIG    1        1.397   1.612  -0.003  0.00  0.00    -0.130 A 
BRANCH  14  16
ATOM     16  O   LIG    1       -0.692   1.552   1.176  0.00  0.00    -0.540 OA
ATOM     17  H   LIG    1       -1.610   1.255   1.242  0.00  0.00    +0.370 HD
ENDBRANCH  14  16
ENDBRANCH   5   7
ENDBRANCH   2   3
BRANCH   2  18
ATOM     18  C   LIG    1        3.873   1.682   5.703  0.00  0.00    +0.120 C 
BRANCH  18  19
ATOM     19  C   LIG    1        3.499   3.142   5.695  0.00  0.00    -0.160 A 
ATOM     20  C   LIG    1        4.048   4.102   4.935  0.00  0.00    +0.230 A 
ATOM     21  N   LIG    1        3.450   5.305   5.199  0.00  0.00    -0.590 N 
ATOM     22  H   LIG    1        3.676   6.145   4.771  0.00  0.00    +0.420 HD
ATOM     23  C   LIG    1        2.482   5.144   6.167  0.00  0.00    +0.110 A 
ATOM     24  C   LIG    1        1.601   6.020   6.791  0.00  0.00    +0.000 A 
ATOM     25  C   LIG    1        0.726   5.550   7.748  0.00  0.00    +0.090 A 
ATOM     26  C   LIG    1        0.715   4.203   8.098  0.00  0.00    +0.040 A 
ATOM     27  C   LIG    1        1.580   3.320   7.490  0.00  0.00    +0.080 A 
ATOM     28  F   LIG    1       -0.148   3.759   9.037  0.00  0.00    -0.130 F 
ATOM     29  F   LIG    1       -0.128   6.405   8.352  0.00  0.00    -0.130 F 
ATOM     30  C   LIG    1        2.471   3.782   6.519  0.00  0.00    -0.080 A 
ENDBRANCH  18  19
ENDBRANCH   2  18
TORSDOF 5
