REMARK  Name = ZINCqH0000007ABW.0
REMARK                            x       y       z     vdW  Elec       q    Type
REMARK                         _______ _______ _______ _____ _____    ______ ____
ROOT
ATOM      1  C   LIG    1        8.698   0.740  -3.319  0.00  0.00    +0.140 A 
ATOM      2  C   LIG    1        7.393   0.964  -2.941  0.00  0.00    +0.000 A 
ATOM      3  C   LIG    1        6.498   1.531  -3.856  0.00  0.00    -0.030 A 
ATOM      4  C   LIG    1        5.146   1.778  -3.507  0.00  0.00    -0.070 A 
ATOM      5  C   LIG    1        4.320   2.339  -4.474  0.00  0.00    +0.020 A 
ATOM      6  C   LIG    1        4.841   2.644  -5.729  0.00  0.00    +0.150 A 
ATOM      7  N   LIG    1        6.093   2.410  -6.034  0.00  0.00    -0.450 NA
ATOM      8  C   LIG    1        3.936   3.257  -6.767  0.00  0.00    +0.130 C 
ATOM      9  C   LIG    1        6.943   1.869  -5.159  0.00  0.00    +0.100 A 
ATOM     10  C   LIG    1        8.284   1.626  -5.511  0.00  0.00    +0.100 A 
ATOM     11  C   LIG    1        9.134   1.074  -4.605  0.00  0.00    -0.030 A 
ENDROOT
BRANCH   4  12
ATOM     12  C   LIG    1        4.630   1.445  -2.163  0.00  0.00    +0.570 C 
ATOM     13  N   LIG    1        4.188   2.424  -1.349  0.00  0.00    -0.570 N 
ATOM     14  O   LIG    1        4.604   0.288  -1.791  0.00  0.00    -0.500 OA
BRANCH  13  15
ATOM     15  C   LIG    1        3.837   2.119   0.040  0.00  0.00    +0.200 C 
ATOM     16  C   LIG    1        4.337   0.795   0.622  0.00  0.00    +0.030 C 
ATOM     17  C   LIG    1        2.855   0.971   0.285  0.00  0.00    +0.020 C 
ENDBRANCH  13  15
BRANCH  13  18
ATOM     18  C   LIG    1        4.061   3.794  -1.853  0.00  0.00    +0.350 C 
BRANCH  18  19
ATOM     19  C   LIG    1        5.353   4.535  -1.627  0.00  0.00    -0.170 A 
ATOM     20  C   LIG    1        6.347   4.523  -2.593  0.00  0.00    +0.070 A 
ATOM     21  C   LIG    1        7.520   5.218  -2.342  0.00  0.00    -0.040 A 
ATOM     22  C   LIG    1        7.659   5.896  -1.146  0.00  0.00    +0.270 A 
ATOM     23  N   LIG    1        6.691   5.886  -0.250  0.00  0.00    -0.480 NA
ATOM     24  C   LIG    1        5.563   5.236  -0.454  0.00  0.00    +0.270 A 
ENDBRANCH  18  19
ENDBRANCH  13  18
ENDBRANCH   4  12
BRANCH   1  26
ATOM     25  C   LIG    1       10.909  -0.018  -2.887  0.00  0.00    +0.240 C 
ATOM     26  O   LIG    1        9.570   0.189  -2.434  0.00  0.00    -0.310 OA
ENDBRANCH   1  26
TORSDOF 5
