REMARK  Name = ZINCrH00000tj1qp.0
REMARK                            x       y       z     vdW  Elec       q    Type
REMARK                         _______ _______ _______ _____ _____    ______ ____
ROOT
ATOM      1  S   LIG    1        3.734   1.134   3.967  0.00  0.00    +2.700 S 
ATOM      2  O   LIG    1        4.095   1.773   2.750  0.00  0.00    -0.940 OA
ATOM      3  O   LIG    1        4.403  -0.015   4.469  0.00  0.00    -0.930 OA
ENDROOT
BRANCH   1  10
ATOM      4  C   LIG    1        1.385   0.055   4.859  0.00  0.00    +0.230 A 
ATOM      5  C   LIG    1        0.048  -0.291   4.734  0.00  0.00    -0.080 A 
ATOM      6  C   LIG    1       -0.635   0.005   3.569  0.00  0.00    +0.020 A 
ATOM      7  C   LIG    1        0.017   0.635   2.525  0.00  0.00    -0.130 A 
ATOM      8  C   LIG    1        1.350   0.981   2.648  0.00  0.00    +0.170 A 
ATOM      9  C   LIG    1       -2.090  -0.365   3.435  0.00  0.00    +0.100 C 
ATOM     10  C   LIG    1        2.036   0.692   3.812  0.00  0.00    -0.710 A 
BRANCH   7  11
ATOM     11  C   LIG    1       -0.729   0.950   1.254  0.00  0.00    +0.030 C 
ATOM     12  C   LIG    1       -0.841   2.467   1.092  0.00  0.00    +0.030 C 
ATOM     13  C   LIG    1        0.028   0.364   0.060  0.00  0.00    +0.030 C 
ENDBRANCH   7  11
BRANCH   4  15
ATOM     14  C   LIG    1        1.325  -0.887   7.040  0.00  0.00    +0.250 C 
ATOM     15  O   LIG    1        2.058  -0.230   6.005  0.00  0.00    -0.310 OA
ENDBRANCH   4  15
ENDBRANCH   1  10
BRANCH   1  16
ATOM     16  N   LIG    1        3.835   2.288   5.150  0.00  0.00    -0.960 N 
ATOM     17  C   LIG    1        4.168   2.046   6.564  0.00  0.00    +0.260 C 
ATOM     18  C   LIG    1        4.117   3.459   7.180  0.00  0.00    +0.210 C 
ATOM     19  N   LIG    1        3.754   4.324   6.048  0.00  0.00    -0.510 NA
ATOM     20  C   LIG    1        3.618   3.623   4.982  0.00  0.00    +0.370 C 
BRANCH  20  21
ATOM     21  C   LIG    1        3.247   4.227   3.653  0.00  0.00    +0.180 C 
BRANCH  21  22
ATOM     22  C   LIG    1        2.950   5.694   3.833  0.00  0.00    -0.060 A 
ATOM     23  C   LIG    1        1.662   6.109   4.113  0.00  0.00    +0.020 A 
ATOM     24  C   LIG    1        1.390   7.453   4.282  0.00  0.00    +0.000 A 
ATOM     25  C   LIG    1        2.405   8.384   4.162  0.00  0.00    +0.000 A 
ATOM     26  C   LIG    1        3.692   7.970   3.876  0.00  0.00    +0.000 A 
ATOM     27  C   LIG    1        3.965   6.625   3.712  0.00  0.00    +0.020 A 
ENDBRANCH  21  22
ENDBRANCH  20  21
ENDBRANCH   1  16
TORSDOF 6
