REMARK  Name = ZINCnE000001Ptm2.0
REMARK                            x       y       z     vdW  Elec       q    Type
REMARK                         _______ _______ _______ _____ _____    ______ ____
ROOT
ATOM      1  S   LIG    1        2.674   4.630  -0.480  0.00  0.00    +2.690 S 
ATOM      2  O   LIG    1        2.264   5.986  -0.372  0.00  0.00    -0.940 OA
ATOM      3  O   LIG    1        3.453   4.137  -1.561  0.00  0.00    -0.950 OA
ENDROOT
BRANCH   1   4
ATOM      4  C   LIG    1        1.203   3.661  -0.444  0.00  0.00    -0.690 A 
ATOM      5  C   LIG    1       -0.028   4.281  -0.383  0.00  0.00    +0.160 A 
ATOM      6  C   LIG    1       -1.194   3.511  -0.354  0.00  0.00    -0.150 A 
ATOM      7  C   LIG    1       -1.103   2.117  -0.393  0.00  0.00    +0.120 A 
ATOM      8  C   LIG    1        0.135   1.511  -0.448  0.00  0.00    -0.130 A 
ATOM      9  C   LIG    1        0.234   0.008  -0.484  0.00  0.00    +0.100 C 
ATOM     10  C   LIG    1        1.285   2.280  -0.476  0.00  0.00    +0.000 A 
ATOM     11  C   LIG    1        2.633   1.610  -0.542  0.00  0.00    +0.090 C 
BRANCH   6  12
ATOM     12  C   LIG    1       -2.514   4.167  -0.289  0.00  0.00    +0.520 C 
ATOM     13  O   LIG    1       -3.532   3.490  -0.264  0.00  0.00    -0.680 OA
ATOM     14  O   LIG    1       -2.590   5.387  -0.260  0.00  0.00    -0.680 OA
ENDBRANCH   6  12
ENDBRANCH   1   4
BRANCH   1  15
ATOM     15  N   LIG    1        3.521   4.287   0.901  0.00  0.00    -1.060 N 
ATOM     16  H   LIG    1        4.364   3.810   0.847  0.00  0.00    +0.420 HD
BRANCH  15  22
ATOM     17  C   LIG    1       -0.322   5.042   3.870  0.00  0.00    +0.100 C 
ATOM     18  C   LIG    1        1.162   5.060   3.611  0.00  0.00    -0.050 A 
ATOM     19  C   LIG    1        2.032   5.471   4.605  0.00  0.00    -0.020 A 
ATOM     20  C   LIG    1        3.395   5.489   4.371  0.00  0.00    +0.030 A 
ATOM     21  C   LIG    1        3.892   5.097   3.144  0.00  0.00    -0.120 A 
ATOM     22  C   LIG    1        3.021   4.684   2.143  0.00  0.00    +0.170 A 
ATOM     23  C   LIG    1        5.377   5.118   2.890  0.00  0.00    +0.090 C 
ATOM     24  C   LIG    1        1.653   4.671   2.380  0.00  0.00    -0.030 A 
ENDBRANCH  15  22
ENDBRANCH   1  15
TORSDOF 4
