REMARK  Name = ZINCqH0000002tue.0
REMARK                            x       y       z     vdW  Elec       q    Type
REMARK                         _______ _______ _______ _____ _____    ______ ____
ROOT
ATOM      1  C   LIG    1       -2.740  -6.826   0.367  0.00  0.00    +0.340 C 
ENDROOT
BRANCH   1   5
ATOM      2  C   LIG    1       -3.479  -2.671   1.056  0.00  0.00    +0.110 A 
ATOM      3  C   LIG    1       -2.179  -3.137   0.945  0.00  0.00    -0.040 A 
ATOM      4  C   LIG    1       -1.943  -4.482   0.727  0.00  0.00    +0.040 A 
ATOM      5  C   LIG    1       -3.002  -5.362   0.610  0.00  0.00    -0.110 A 
ATOM      6  C   LIG    1       -4.302  -4.902   0.714  0.00  0.00    -0.010 A 
ATOM      7  C   LIG    1       -4.545  -3.557   0.937  0.00  0.00    +0.100 A 
BRANCH   7   8
ATOM      8  O   LIG    1       -5.823  -3.103   1.041  0.00  0.00    -0.300 OA
ATOM      9  C   LIG    1       -6.868  -4.070   0.908  0.00  0.00    +0.240 C 
ENDBRANCH   7   8
BRANCH   2  10
ATOM     10  O   LIG    1       -3.712  -1.349   1.275  0.00  0.00    -0.300 OA
BRANCH  10  11
ATOM     11  C   LIG    1       -2.570  -0.498   1.386  0.00  0.00    +0.180 C 
BRANCH  11  12
ATOM     12  C   LIG    1       -3.027   0.942   1.630  0.00  0.00    +0.020 C 
BRANCH  12  14
ATOM     13  C   LIG    1       -2.262   3.292   1.992  0.00  0.00    +0.030 C 
ATOM     14  C   LIG    1       -1.804   1.853   1.749  0.00  0.00    +0.010 C 
ENDBRANCH  12  14
ENDBRANCH  11  12
ENDBRANCH  10  11
ENDBRANCH   2  10
ENDBRANCH   1   5
BRANCH   1  15
ATOM     15  N   LIG    1       -2.686  -7.080  -1.075  0.00  0.00    -0.720 N 
ATOM     16  H   LIG    1       -2.813  -6.350  -1.701  0.00  0.00    +0.400 HD
ATOM     17  C   LIG    1       -2.461  -8.328  -1.532  0.00  0.00    +0.560 C 
ATOM     18  O   LIG    1       -2.303  -9.243  -0.747  0.00  0.00    -0.490 OA
BRANCH  17  19
ATOM     19  C   LIG    1       -2.407  -8.584  -2.987  0.00  0.00    -0.070 A 
ATOM     20  C   LIG    1       -3.473  -8.206  -3.805  0.00  0.00    +0.060 A 
ATOM     21  C   LIG    1       -3.416  -8.448  -5.162  0.00  0.00    +0.080 A 
ATOM     22  C   LIG    1       -2.306  -9.063  -5.712  0.00  0.00    +0.050 A 
ATOM     23  C   LIG    1       -1.246  -9.440  -4.907  0.00  0.00    +0.100 A 
ATOM     24  C   LIG    1       -1.288  -9.200  -3.549  0.00  0.00    -0.010 A 
BRANCH  24  25
ATOM     25  N   LIG    1       -0.151  -9.599  -2.689  0.00  0.00    +0.020 N 
ATOM     26  O   LIG    1       -0.135  -9.280  -1.514  0.00  0.00    -0.120 OA
ATOM     27  O   LIG    1        0.769 -10.246  -3.158  0.00  0.00    -0.160 OA
ENDBRANCH  24  25
ENDBRANCH  17  19
ENDBRANCH   1  15
TORSDOF 9
