REMARK  Name = ZINCrH00000tj1kc.0
REMARK                            x       y       z     vdW  Elec       q    Type
REMARK                         _______ _______ _______ _____ _____    ______ ____
ROOT
ATOM      1  C   LIG    1        1.064   1.588   2.305  0.00  0.00    +0.270 A 
ATOM      2  C   LIG    1        1.544   1.762   3.603  0.00  0.00    +0.020 A 
ATOM      3  C   LIG    1        2.907   1.730   3.831  0.00  0.00    -0.040 A 
ATOM      4  C   LIG    1        3.751   1.532   2.737  0.00  0.00    -0.210 A 
ATOM      5  C   LIG    1        5.214   1.488   2.883  0.00  0.00    +0.560 A 
ATOM      6  N   LIG    1        5.961   1.293   1.774  0.00  0.00    -0.650 N 
ATOM      7  H   LIG    1        6.928   1.261   1.849  0.00  0.00    +0.440 HD
ATOM      8  C   LIG    1        5.388   1.142   0.569  0.00  0.00    +0.710 A 
ATOM      9  N   LIG    1        4.058   1.174   0.384  0.00  0.00    -0.520 N 
ATOM     10  O   LIG    1        6.105   0.969  -0.397  0.00  0.00    -0.520 OA
ATOM     11  O   LIG    1        5.738   1.625   3.972  0.00  0.00    -0.470 OA
ATOM     12  C   LIG    1        3.199   1.369   1.452  0.00  0.00    +0.420 A 
ATOM     13  N   LIG    1        1.890   1.402   1.282  0.00  0.00    -0.480 NA
ENDROOT
BRANCH   1  20
ATOM     14  C   LIG    1       -0.688  -0.074   3.899  0.00  0.00    +0.100 C 
ATOM     15  C   LIG    1       -1.251   0.820   2.825  0.00  0.00    -0.050 A 
ATOM     16  C   LIG    1       -2.610   0.847   2.590  0.00  0.00    +0.010 A 
ATOM     17  C   LIG    1       -3.129   1.671   1.607  0.00  0.00    +0.040 A 
ATOM     18  C   LIG    1       -2.288   2.464   0.847  0.00  0.00    +0.000 A 
ATOM     19  C   LIG    1       -0.926   2.441   1.069  0.00  0.00    +0.060 A 
ATOM     20  C   LIG    1       -0.398   1.617   2.062  0.00  0.00    -0.070 A 
ENDBRANCH   1  20
BRANCH   3  21
ATOM     21  C   LIG    1        3.466   1.908   5.220  0.00  0.00    +0.520 C 
ATOM     22  F   LIG    1        4.301   3.030   5.245  0.00  0.00    -0.160 F 
ATOM     23  F   LIG    1        4.201   0.772   5.576  0.00  0.00    -0.160 F 
ATOM     24  F   LIG    1        2.416   2.087   6.126  0.00  0.00    -0.170 F 
ENDBRANCH   3  21
BRANCH   9  25
ATOM     25  C   LIG    1        3.511   1.001  -0.964  0.00  0.00    +0.330 C 
BRANCH  25  26
ATOM     26  C   LIG    1        3.517   2.346  -1.694  0.00  0.00    -0.030 C 
ATOM     27  C   LIG    1        2.602   3.328  -0.960  0.00  0.00    +0.030 C 
ATOM     28  C   LIG    1        3.013   2.151  -3.125  0.00  0.00    +0.040 C 
ENDBRANCH  25  26
ENDBRANCH   9  25
TORSDOF 4
