REMARK  Name = ZINCpk00000xPDSM.0
REMARK                            x       y       z     vdW  Elec       q    Type
REMARK                         _______ _______ _______ _____ _____    ______ ____
ROOT
ATOM      1  N   LIG    1        1.122   3.498   0.010  0.00  0.00    -0.740 N 
ATOM      2  H   LIG    1        0.275   3.972   0.021  0.00  0.00    +0.400 HD
ATOM      3  C   LIG    1        1.140   2.151   0.003  0.00  0.00    +0.710 C 
ATOM      4  N   LIG    1       -0.018   1.461   0.010  0.00  0.00    -0.740 N 
ATOM      5  H   LIG    1       -0.864   1.934   0.017  0.00  0.00    +0.400 HD
ATOM      6  O   LIG    1        2.201   1.557  -0.011  0.00  0.00    -0.580 OA
ENDROOT
BRANCH   1   8
ATOM      7  C   LIG    1        2.869   4.409  -1.439  0.00  0.00    +0.040 C 
ATOM      8  C   LIG    1        2.380   4.248   0.002  0.00  0.00    +0.310 C 
BRANCH   8   9
ATOM      9  C   LIG    1        2.159   5.608   0.612  0.00  0.00    -0.110 A 
ATOM     10  C   LIG    1        1.001   6.311   0.335  0.00  0.00    +0.050 A 
ATOM     11  C   LIG    1        0.792   7.557   0.891  0.00  0.00    +0.000 A 
ATOM     12  C   LIG    1        1.748   8.115   1.737  0.00  0.00    +0.140 A 
ATOM     13  N   LIG    1        1.768   9.337   2.410  0.00  0.00    -0.660 N 
ATOM     14  H   LIG    1        1.056   9.993   2.361  0.00  0.00    +0.410 HD
ATOM     15  C   LIG    1        2.888   9.499   3.135  0.00  0.00    +0.530 C 
ATOM     16  C   LIG    1        3.730   8.256   2.940  0.00  0.00    +0.140 C 
ATOM     17  O   LIG    1        3.171  10.462   3.817  0.00  0.00    -0.500 OA
ATOM     18  C   LIG    1        2.907   7.398   2.007  0.00  0.00    -0.140 A 
ATOM     19  C   LIG    1        3.111   6.154   1.456  0.00  0.00    +0.080 A 
ENDBRANCH   8   9
ENDBRANCH   1   8
BRANCH   4  20
ATOM     20  C   LIG    1        0.002  -0.004   0.002  0.00  0.00    +0.290 C 
BRANCH  20  21
ATOM     21  C   LIG    1       -1.433  -0.534   0.013  0.00  0.00    +0.270 C 
BRANCH  21  22
ATOM     22  N   LIG    1       -1.413  -1.998   0.005  0.00  0.00    -0.700 N 
ATOM     23  H   LIG    1       -0.567  -2.472  -0.006  0.00  0.00    +0.420 HD
BRANCH  22  24
ATOM     24  C   LIG    1       -2.603  -2.707   0.012  0.00  0.00    +0.560 A 
ATOM     25  N   LIG    1       -3.750  -2.044   0.032  0.00  0.00    -0.570 NA
ATOM     26  C   LIG    1       -4.904  -2.691   0.034  0.00  0.00    +0.360 A 
ATOM     27  C   LIG    1       -4.902  -4.077   0.027  0.00  0.00    -0.140 A 
ATOM     28  C   LIG    1       -3.684  -4.738   0.012  0.00  0.00    +0.360 A 
ATOM     29  N   LIG    1       -2.567  -4.031   0.005  0.00  0.00    -0.570 NA
ENDBRANCH  22  24
ENDBRANCH  21  22
ENDBRANCH  20  21
ENDBRANCH   4  20
TORSDOF 6
