REMARK  Name = ZINCkj000005hxpL.0
REMARK                            x       y       z     vdW  Elec       q    Type
REMARK                         _______ _______ _______ _____ _____    ______ ____
ROOT
ATOM      1  S   LIG    1        1.460  -1.759  -1.844  0.00  0.00    +2.710 S 
ATOM      2  O   LIG    1        0.794  -2.814  -1.164  0.00  0.00    -0.930 OA
ATOM      3  O   LIG    1        2.849  -1.779  -2.141  0.00  0.00    -0.960 OA
ENDROOT
BRANCH   1   4
ATOM      4  C   LIG    1        0.625  -1.555  -3.383  0.00  0.00    -0.720 A 
ATOM      5  C   LIG    1        1.283  -0.979  -4.453  0.00  0.00    +0.150 A 
ATOM      6  C   LIG    1        0.631  -0.817  -5.661  0.00  0.00    -0.090 A 
ATOM      7  C   LIG    1       -0.684  -1.234  -5.798  0.00  0.00    +0.190 A 
ATOM      8  C   LIG    1       -1.342  -1.812  -4.722  0.00  0.00    -0.130 A 
ATOM      9  C   LIG    1       -2.772  -2.266  -4.868  0.00  0.00    +0.120 C 
ATOM     10  C   LIG    1       -0.685  -1.976  -3.519  0.00  0.00    +0.160 A 
BRANCH   7  11
ATOM     11  O   LIG    1       -1.328  -1.077  -6.985  0.00  0.00    -0.300 OA
ATOM     12  C   LIG    1       -0.588  -0.474  -8.049  0.00  0.00    +0.250 C 
ENDBRANCH   7  11
ENDBRANCH   1   4
BRANCH   1  17
ATOM     13  C   LIG    1        2.098   0.766  -0.865  0.00  0.00    +0.230 C 
ATOM     14  C   LIG    1        1.422   1.809   0.051  0.00  0.00    +0.040 C 
ATOM     15  C   LIG    1       -0.078   1.422  -0.030  0.00  0.00    +0.060 C 
ATOM     16  C   LIG    1        0.003  -0.122  -0.123  0.00  0.00    +0.280 C 
ATOM     17  N   LIG    1        1.191  -0.387  -0.955  0.00  0.00    -1.000 NA
BRANCH  13  18
ATOM     18  C   LIG    1        3.434   0.331  -0.261  0.00  0.00    +0.250 C 
BRANCH  18  20
ATOM     19  C   LIG    1        5.686   1.019   0.201  0.00  0.00    +0.330 C 
ATOM     20  N   LIG    1        4.367   1.466  -0.266  0.00  0.00    -0.500 N 
ATOM     21  H   LIG    1        4.020   2.189   0.346  0.00  0.00    +0.430 HD
ATOM     22  H   LIG    1        4.448   1.831  -1.204  0.00  0.00    +0.430 HD
ENDBRANCH  18  20
ENDBRANCH  13  18
ENDBRANCH   1  17
TORSDOF 5
