REMARK  Name = ZINCpk00000xIhYS.0
REMARK                            x       y       z     vdW  Elec       q    Type
REMARK                         _______ _______ _______ _____ _____    ______ ____
ROOT
ATOM      1  N   LIG    1       -2.516   1.917  -7.876  0.00  0.00    -0.670 N 
ATOM      2  H   LIG    1       -3.156   1.199  -7.999  0.00  0.00    +0.420 HD
ATOM      3  C   LIG    1       -2.006   2.164  -6.653  0.00  0.00    +0.540 C 
ATOM      4  O   LIG    1       -1.146   3.007  -6.514  0.00  0.00    -0.490 OA
ENDROOT
BRANCH   1  10
ATOM      5  C   LIG    1       -3.042   3.001  -9.981  0.00  0.00    -0.050 A 
ATOM      6  C   LIG    1       -2.636   3.780 -11.066  0.00  0.00    +0.180 A 
ATOM      7  C   LIG    1       -1.339   4.244 -11.133  0.00  0.00    -0.060 A 
ATOM      8  C   LIG    1       -0.435   3.940 -10.129  0.00  0.00    +0.170 A 
ATOM      9  C   LIG    1       -0.824   3.175  -9.046  0.00  0.00    +0.060 A 
ATOM     10  C   LIG    1       -2.123   2.695  -8.965  0.00  0.00    +0.240 A 
BRANCH   7  11
ATOM     11  N   LIG    1       -0.911   5.070 -12.284  0.00  0.00    +0.030 N 
ATOM     12  O   LIG    1        0.234   5.481 -12.346  0.00  0.00    -0.150 OA
ATOM     13  O   LIG    1       -1.703   5.340 -13.168  0.00  0.00    -0.150 OA
ENDBRANCH   7  11
BRANCH   5  15
ATOM     14  N   LIG    1       -5.454   2.132  -9.845  0.00  0.00    -0.370 NA
ATOM     15  C   LIG    1       -4.387   2.516  -9.905  0.00  0.00    +0.240 C 
ENDBRANCH   5  15
ENDBRANCH   1  10
BRANCH   3  16
ATOM     16  C   LIG    1       -2.505   1.392  -5.459  0.00  0.00    +0.120 C 
BRANCH  16  17
ATOM     17  S   LIG    1       -1.633   1.948  -3.974  0.00  0.00    +0.120 S 
BRANCH  17  18
ATOM     18  C   LIG    1       -2.391   0.910  -2.768  0.00  0.00    +0.240 A 
ATOM     19  N   LIG    1       -3.312   0.021  -3.002  0.00  0.00    -0.280 NA
ATOM     20  N   LIG    1       -3.652  -0.583  -1.784  0.00  0.00    -0.540 N 
ATOM     21  H   LIG    1       -4.314  -1.280  -1.654  0.00  0.00    +0.460 HD
ATOM     22  C   LIG    1       -2.889  -0.018  -0.826  0.00  0.00    +0.650 A 
ATOM     23  O   LIG    1       -2.906  -0.289   0.361  0.00  0.00    -0.540 OA
ATOM     24  N   LIG    1       -2.104   0.903  -1.421  0.00  0.00    -0.500 N 
BRANCH  24  25
ATOM     25  C   LIG    1       -1.119   1.754  -0.749  0.00  0.00    +0.210 C 
ATOM     26  C   LIG    1        0.024   1.060  -0.007  0.00  0.00    +0.040 C 
ATOM     27  C   LIG    1       -1.098   1.739   0.781  0.00  0.00    +0.070 C 
ENDBRANCH  24  25
ENDBRANCH  17  18
ENDBRANCH  16  17
ENDBRANCH   3  16
TORSDOF 7
