REMARK  Name = ZINCqH0000050B5q.0
REMARK                            x       y       z     vdW  Elec       q    Type
REMARK                         _______ _______ _______ _____ _____    ______ ____
ROOT
ATOM      1  C   LIG    1       -0.060   4.093   0.026  0.00  0.00    +0.580 C 
ATOM      2  N   LIG    1        0.523   4.434   1.192  0.00  0.00    -0.600 N 
ATOM      3  C   LIG    1       -0.080   4.069   2.482  0.00  0.00    +0.310 C 
ATOM      4  C   LIG    1        0.001   5.238   3.418  0.00  0.00    -0.020 C 
ATOM      5  C   LIG    1        0.708   6.315   3.168  0.00  0.00    -0.070 C 
ATOM      6  C   LIG    1        1.515   6.528   1.922  0.00  0.00    +0.070 C 
ATOM      7  C   LIG    1        1.785   5.192   1.226  0.00  0.00    +0.300 C 
ATOM      8  O   LIG    1        0.457   4.412  -1.027  0.00  0.00    -0.510 OA
ENDROOT
BRANCH   1  15
ATOM      9  C   LIG    1       -2.581   5.512   0.044  0.00  0.00    +0.120 C 
ATOM     10  C   LIG    1       -2.550   4.005   0.035  0.00  0.00    -0.050 A 
ATOM     11  C   LIG    1       -3.728   3.289   0.037  0.00  0.00    +0.080 A 
ATOM     12  C   LIG    1       -3.701   1.906   0.029  0.00  0.00    +0.050 A 
ATOM     13  C   LIG    1       -2.493   1.232   0.015  0.00  0.00    +0.100 A 
ATOM     14  C   LIG    1       -1.306   1.936   0.019  0.00  0.00    -0.020 A 
ATOM     15  C   LIG    1       -1.327   3.332   0.026  0.00  0.00    -0.060 A 
BRANCH  14  16
ATOM     16  N   LIG    1       -0.014   1.214   0.009  0.00  0.00    +0.020 N 
ATOM     17  O   LIG    1        1.032   1.837   0.002  0.00  0.00    -0.140 OA
ATOM     18  O   LIG    1        0.002  -0.004   0.002  0.00  0.00    -0.150 OA
ENDBRANCH  14  16
ENDBRANCH   1  15
BRANCH   5  19
ATOM     19  C   LIG    1        0.710   7.388   4.182  0.00  0.00    -0.030 A 
ATOM     20  C   LIG    1        0.157   8.636   3.880  0.00  0.00    +0.020 A 
ATOM     21  C   LIG    1        0.154   9.631   4.823  0.00  0.00    +0.070 A 
ATOM     22  C   LIG    1        0.714   9.402   6.083  0.00  0.00    -0.030 A 
ATOM     23  C   LIG    1        1.272   8.155   6.383  0.00  0.00    +0.070 A 
ATOM     24  C   LIG    1        1.270   7.159   5.442  0.00  0.00    +0.030 A 
BRANCH  22  25
ATOM     25  C   LIG    1        0.717  10.443   7.066  0.00  0.00    +0.250 C 
ATOM     26  N   LIG    1        0.719  11.269   7.846  0.00  0.00    -0.410 NA
ENDBRANCH  22  25
ENDBRANCH   5  19
TORSDOF 4
