REMARK  Name = ZINCrH000004q1f8.0
REMARK                            x       y       z     vdW  Elec       q    Type
REMARK                         _______ _______ _______ _____ _____    ______ ____
ROOT
ATOM      1  C   LIG    1        2.287   0.596   6.068  0.00  0.00    +0.560 C 
ATOM      2  N   LIG    1        1.986  -0.462   6.848  0.00  0.00    -0.720 N 
ATOM      3  H   LIG    1        1.262  -1.058   6.600  0.00  0.00    +0.400 HD
ATOM      4  O   LIG    1        3.194   1.342   6.380  0.00  0.00    -0.530 OA
ENDROOT
BRANCH   1   8
ATOM      5  C   LIG    1        0.061   1.321   2.524  0.00  0.00    -0.050 A 
ATOM      6  C   LIG    1       -0.253   0.238   3.325  0.00  0.00    +0.020 A 
ATOM      7  C   LIG    1        0.469  -0.007   4.474  0.00  0.00    +0.050 A 
ATOM      8  C   LIG    1        1.512   0.848   4.834  0.00  0.00    -0.130 A 
ATOM      9  C   LIG    1        1.821   1.942   4.025  0.00  0.00    +0.080 A 
ATOM     10  C   LIG    1        1.094   2.172   2.875  0.00  0.00    +0.030 A 
BRANCH   5  12
ATOM     11  C   LIG    1       -0.013   1.086   0.008  0.00  0.00    +0.070 C 
ATOM     12  C   LIG    1       -0.729   1.579   1.267  0.00  0.00    +0.120 C 
ATOM     13  C   LIG    1       -2.188   1.115   1.359  0.00  0.00    +0.010 C 
ATOM     14  C   LIG    1       -2.404   2.413   0.568  0.00  0.00    +0.200 C 
ATOM     15  O   LIG    1       -1.204   2.928   1.160  0.00  0.00    -0.350 OA
ENDBRANCH   5  12
ENDBRANCH   1   8
BRANCH   2  16
ATOM     16  C   LIG    1        2.754  -0.712   8.071  0.00  0.00    +0.360 C 
BRANCH  16  17
ATOM     17  C   LIG    1        2.221  -1.945   8.755  0.00  0.00    +0.050 A 
ATOM     18  C   LIG    1        2.813  -3.174   8.519  0.00  0.00    +0.260 A 
ATOM     19  N   LIG    1        2.354  -4.256   9.120  0.00  0.00    -0.430 NA
ATOM     20  C   LIG    1        1.315  -4.167   9.944  0.00  0.00    +0.130 A 
ATOM     21  C   LIG    1        0.718  -2.927  10.174  0.00  0.00    +0.240 A 
ATOM     22  N   LIG    1        1.187  -1.850   9.573  0.00  0.00    -0.410 NA
BRANCH  20  23
ATOM     23  C   LIG    1        0.792  -5.381  10.617  0.00  0.00    -0.060 A 
ATOM     24  C   LIG    1       -0.294  -5.286  11.486  0.00  0.00    +0.030 A 
ATOM     25  C   LIG    1       -0.779  -6.420  12.105  0.00  0.00    +0.010 A 
ATOM     26  C   LIG    1       -0.183  -7.647  11.874  0.00  0.00    +0.030 A 
ATOM     27  C   LIG    1        0.898  -7.746  11.016  0.00  0.00    +0.010 A 
ATOM     28  C   LIG    1        1.388  -6.619  10.387  0.00  0.00    +0.070 A 
ENDBRANCH  20  23
ENDBRANCH  16  17
ENDBRANCH   2  16
TORSDOF 5
