REMARK  Name = ZINCpk00000K7BzE.0
REMARK                            x       y       z     vdW  Elec       q    Type
REMARK                         _______ _______ _______ _____ _____    ______ ____
ROOT
ATOM      1  N   LIG    1       -2.229   4.199  -5.420  0.00  0.00    -0.720 N 
ATOM      2  H   LIG    1       -2.173   3.238  -5.295  0.00  0.00    +0.400 HD
ATOM      3  C   LIG    1       -2.293   5.015  -4.349  0.00  0.00    +0.720 C 
ATOM      4  N   LIG    1       -2.278   4.497  -3.105  0.00  0.00    -0.650 N 
ATOM      5  H   LIG    1       -2.222   3.536  -2.980  0.00  0.00    +0.410 HD
ATOM      6  O   LIG    1       -2.363   6.219  -4.506  0.00  0.00    -0.580 OA
ENDROOT
BRANCH   4   7
ATOM      7  C   LIG    1       -2.345   5.352  -1.983  0.00  0.00    +0.010 A 
ATOM      8  C   LIG    1       -2.339   4.968  -0.684  0.00  0.00    +0.230 A 
ATOM      9  O   LIG    1       -2.269   3.712  -0.164  0.00  0.00    -0.290 OA
ATOM     10  C   LIG    1       -1.935   3.653   1.231  0.00  0.00    +0.240 C 
ATOM     11  C   LIG    1       -2.796   4.660   2.002  0.00  0.00    +0.020 C 
ATOM     12  C   LIG    1       -2.444   6.083   1.546  0.00  0.00    +0.320 C 
ATOM     13  N   LIG    1       -2.420   6.096   0.080  0.00  0.00    -0.400 N 
ATOM     14  N   LIG    1       -2.472   7.192  -0.778  0.00  0.00    -0.270 NA
ATOM     15  C   LIG    1       -2.429   6.752  -2.013  0.00  0.00    +0.290 A 
ENDBRANCH   4   7
BRANCH   1  16
ATOM     16  C   LIG    1       -2.245   4.762  -6.772  0.00  0.00    +0.280 C 
BRANCH  16  17
ATOM     17  C   LIG    1       -0.845   5.154  -7.169  0.00  0.00    +0.510 C 
ATOM     18  O   LIG    1        0.106   4.684  -6.582  0.00  0.00    -0.530 OA
ATOM     19  N   LIG    1       -0.650   6.028  -8.177  0.00  0.00    -0.850 N 
ATOM     20  H   LIG    1        0.249   6.220  -8.485  0.00  0.00    +0.400 HD
ATOM     21  H   LIG    1       -1.409   6.465  -8.593  0.00  0.00    +0.400 HD
ENDBRANCH  16  17
BRANCH  16  23
ATOM     22  C   LIG    1       -2.909   4.343  -9.144  0.00  0.00    +0.050 C 
ATOM     23  C   LIG    1       -2.779   3.717  -7.754  0.00  0.00    +0.040 C 
BRANCH  23  24
ATOM     24  C   LIG    1       -4.130   3.237  -7.290  0.00  0.00    -0.080 A 
ATOM     25  C   LIG    1       -5.153   4.145  -7.086  0.00  0.00    +0.010 A 
ATOM     26  C   LIG    1       -6.394   3.705  -6.665  0.00  0.00    +0.000 A 
ATOM     27  C   LIG    1       -6.610   2.358  -6.440  0.00  0.00    +0.000 A 
ATOM     28  C   LIG    1       -5.586   1.451  -6.639  0.00  0.00    +0.000 A 
ATOM     29  C   LIG    1       -4.346   1.891  -7.064  0.00  0.00    +0.000 A 
ENDBRANCH  23  24
ENDBRANCH  16  23
ENDBRANCH   1  16
TORSDOF 5
