REMARK  Name = ZINCpk000000oLXD.0
REMARK                            x       y       z     vdW  Elec       q    Type
REMARK                         _______ _______ _______ _____ _____    ______ ____
ROOT
ATOM      1  N   LIG    1       -0.819   1.548  -3.674  0.00  0.00    -0.630 N 
ATOM      2  C   LIG    1       -1.847   0.839  -4.180  0.00  0.00    +0.710 C 
ATOM      3  N   LIG    1       -2.510   1.292  -5.263  0.00  0.00    -0.740 N 
ATOM      4  H   LIG    1       -2.246   2.129  -5.678  0.00  0.00    +0.400 HD
ATOM      5  O   LIG    1       -2.177  -0.209  -3.660  0.00  0.00    -0.590 OA
ATOM      6  C   LIG    1       -0.421   2.811  -4.300  0.00  0.00    +0.280 C 
ENDROOT
BRANCH   1   7
ATOM      7  C   LIG    1       -0.098   1.056  -2.497  0.00  0.00    +0.350 C 
BRANCH   7  10
ATOM      8  N   LIG    1       -0.707   1.562   1.210  0.00  0.00    -0.480 N 
ATOM      9  C   LIG    1       -0.013   1.086   0.008  0.00  0.00    +0.220 C 
ATOM     10  C   LIG    1       -0.762   1.598  -1.229  0.00  0.00    +0.120 C 
ATOM     11  O   LIG    1       -0.699   3.028  -1.222  0.00  0.00    -0.300 OA
ATOM     12  C   LIG    1       -0.955   3.644  -0.035  0.00  0.00    +0.090 A 
ATOM     13  C   LIG    1       -1.217   5.007  -0.035  0.00  0.00    -0.010 A 
ATOM     14  C   LIG    1       -1.477   5.664   1.153  0.00  0.00    +0.030 A 
ATOM     15  C   LIG    1       -1.476   4.965   2.345  0.00  0.00    -0.010 A 
ATOM     16  C   LIG    1       -1.218   3.608   2.353  0.00  0.00    +0.040 A 
ATOM     17  C   LIG    1       -0.957   2.938   1.162  0.00  0.00    +0.020 A 
BRANCH   8  19
ATOM     18  C   LIG    1       -2.513   1.157   2.813  0.00  0.00    +0.040 C 
ATOM     19  C   LIG    1       -1.949   0.811   1.434  0.00  0.00    +0.170 C 
ENDBRANCH   8  19
ENDBRANCH   7  10
ENDBRANCH   1   7
BRANCH   3  20
ATOM     20  C   LIG    1       -3.627   0.522  -5.813  0.00  0.00    +0.280 C 
BRANCH  20  21
ATOM     21  C   LIG    1       -4.200   1.251  -7.030  0.00  0.00    +0.020 C 
BRANCH  21  22
ATOM     22  C   LIG    1       -5.367   0.447  -7.604  0.00  0.00    +0.260 C 
BRANCH  22  23
ATOM     23  N   LIG    1       -5.915   1.145  -8.770  0.00  0.00    -0.730 N 
ATOM     24  H   LIG    1       -5.528   1.987  -9.057  0.00  0.00    +0.400 HD
ATOM     25  C   LIG    1       -6.958   0.619  -9.442  0.00  0.00    +0.510 C 
ATOM     26  O   LIG    1       -7.442  -0.434  -9.083  0.00  0.00    -0.540 OA
ATOM     27  C   LIG    1       -7.522   1.337 -10.641  0.00  0.00    +0.090 C 
ENDBRANCH  22  23
ENDBRANCH  21  22
ENDBRANCH  20  21
ENDBRANCH   3  20
TORSDOF 7
