REMARK  Name = ZINCqH0000005qdv.0
REMARK                            x       y       z     vdW  Elec       q    Type
REMARK                         _______ _______ _______ _____ _____    ______ ____
ROOT
ATOM      1  S   LIG    1        1.082  -2.380  -0.742  0.00  0.00    +0.090 S 
ENDROOT
BRANCH   1   4
ATOM      2  C   LIG    1        4.240  -4.633  -1.313  0.00  0.00    +0.480 A 
ATOM      3  N   LIG    1        3.006  -4.157  -1.257  0.00  0.00    -0.580 NA
ATOM      4  C   LIG    1        2.752  -2.942  -0.777  0.00  0.00    +0.340 A 
ATOM      5  N   LIG    1        3.697  -2.143  -0.320  0.00  0.00    -0.550 NA
ATOM      6  C   LIG    1        4.980  -2.534  -0.329  0.00  0.00    +0.200 A 
ATOM      7  C   LIG    1        6.009  -1.711   0.147  0.00  0.00    +0.030 A 
ATOM      8  C   LIG    1        7.298  -2.157   0.116  0.00  0.00    +0.060 A 
ATOM      9  C   LIG    1        7.607  -3.419  -0.383  0.00  0.00    -0.010 A 
ATOM     10  C   LIG    1        6.629  -4.245  -0.855  0.00  0.00    +0.050 A 
ATOM     11  C   LIG    1        5.298  -3.818  -0.836  0.00  0.00    -0.200 A 
BRANCH   2  13
ATOM     12  C   LIG    1        3.384  -6.718  -2.306  0.00  0.00    +0.310 C 
ATOM     13  N   LIG    1        4.490  -5.891  -1.818  0.00  0.00    -0.700 N 
ATOM     14  H   LIG    1        5.399  -6.229  -1.850  0.00  0.00    +0.410 HD
ENDBRANCH   2  13
ENDBRANCH   1   4
BRANCH   1  15
ATOM     15  C   LIG    1        1.317  -0.740  -0.015  0.00  0.00    +0.060 C 
BRANCH  15  16
ATOM     16  C   LIG    1        1.830  -0.884   1.395  0.00  0.00    -0.080 A 
ATOM     17  C   LIG    1        1.077  -1.558   2.339  0.00  0.00    +0.030 A 
ATOM     18  C   LIG    1        1.548  -1.695   3.631  0.00  0.00    +0.000 A 
ATOM     19  C   LIG    1        2.769  -1.150   3.982  0.00  0.00    +0.010 A 
ATOM     20  C   LIG    1        3.520  -0.471   3.040  0.00  0.00    -0.010 A 
ATOM     21  C   LIG    1        3.050  -0.339   1.747  0.00  0.00    +0.050 A 
ENDBRANCH  15  16
BRANCH  15  22
ATOM     22  C   LIG    1        0.002  -0.004   0.002  0.00  0.00    +0.550 C 
ATOM     23  N   LIG    1       -0.016   1.344   0.009  0.00  0.00    -0.690 N 
ATOM     24  H   LIG    1        0.817   1.840   0.004  0.00  0.00    +0.400 HD
ATOM     25  O   LIG    1       -1.040  -0.625   0.009  0.00  0.00    -0.520 OA
BRANCH  23  26
ATOM     26  C   LIG    1       -1.295   2.059   0.019  0.00  0.00    +0.220 C 
ATOM     27  C   LIG    1       -1.437   3.264  -0.912  0.00  0.00    +0.010 C 
ATOM     28  C   LIG    1       -1.308   3.475   0.599  0.00  0.00    +0.020 C 
ENDBRANCH  23  26
ENDBRANCH  15  22
ENDBRANCH   1  15
TORSDOF 6
