REMARK  Name = ZINCvU0000000Fyj.0
REMARK                            x       y       z     vdW  Elec       q    Type
REMARK                         _______ _______ _______ _____ _____    ______ ____
ROOT
ATOM      1  N   LIG    1        1.266   1.585   0.592  0.00  0.00    -0.360 N 
ATOM      2  N   LIG    1        0.065   1.406  -0.108  0.00  0.00    -0.240 NA
ATOM      3  C   LIG    1        0.096   0.229  -0.668  0.00  0.00    +0.320 A 
ATOM      4  N   LIG    1        1.298  -0.376  -0.352  0.00  0.00    -0.450 N 
ATOM      5  C   LIG    1        2.006   0.470   0.422  0.00  0.00    +0.470 A 
ATOM      6  S   LIG    1        3.562   0.181   1.073  0.00  0.00    -0.570 S 
ENDROOT
BRANCH   3   7
ATOM      7  C   LIG    1       -0.975  -0.359  -1.502  0.00  0.00    -0.040 A 
ATOM      8  C   LIG    1       -0.880  -1.683  -1.934  0.00  0.00    +0.070 A 
ATOM      9  C   LIG    1       -1.884  -2.227  -2.707  0.00  0.00    +0.040 A 
ATOM     10  C   LIG    1       -2.980  -1.460  -3.065  0.00  0.00    -0.010 A 
ATOM     11  C   LIG    1       -3.078  -0.144  -2.643  0.00  0.00    +0.040 A 
ATOM     12 CL   LIG    1       -4.236  -2.150  -4.044  0.00  0.00    -0.050 Cl
ATOM     13  C   LIG    1       -2.082   0.409  -1.865  0.00  0.00    +0.100 A 
ENDBRANCH   3   7
BRANCH   4  14
ATOM     14  C   LIG    1        1.709  -1.650  -0.766  0.00  0.00    +0.110 A 
ATOM     15  C   LIG    1        1.519  -2.746   0.064  0.00  0.00    +0.040 A 
ATOM     16  C   LIG    1        1.920  -4.002  -0.349  0.00  0.00    +0.030 A 
ATOM     17  C   LIG    1        2.522  -4.165  -1.584  0.00  0.00    +0.050 A 
ATOM     18  C   LIG    1        2.718  -3.074  -2.410  0.00  0.00    +0.030 A 
ATOM     19  C   LIG    1        2.314  -1.817  -2.005  0.00  0.00    +0.040 A 
ENDBRANCH   4  14
BRANCH   1  20
ATOM     20  C   LIG    1        1.649   2.768   1.366  0.00  0.00    +0.520 C 
BRANCH  20  25
ATOM     21  C   LIG    1        0.769   4.163   3.149  0.00  0.00    +0.250 C 
ATOM     22  C   LIG    1        0.816   4.017   4.690  0.00  0.00    +0.060 C 
ATOM     23  C   LIG    1        1.865   2.887   4.866  0.00  0.00    +0.020 C 
ATOM     24  C   LIG    1        1.593   1.969   3.655  0.00  0.00    +0.190 C 
ATOM     25  N   LIG    1        0.909   2.784   2.634  0.00  0.00    -0.530 NA
BRANCH  21  29
ATOM     26  C   LIG    1       -2.994   7.339   1.860  0.00  0.00    +0.180 C 
ATOM     27  C   LIG    1       -2.150   6.129   2.169  0.00  0.00    -0.030 A 
ATOM     28  C   LIG    1       -0.857   6.124   2.574  0.00  0.00    -0.060 A 
ATOM     29  C   LIG    1       -0.550   4.752   2.718  0.00  0.00    +0.020 A 
ATOM     30  N   LIG    1       -1.633   4.098   2.410  0.00  0.00    -0.330 NA
ATOM     31  O   LIG    1       -2.532   4.846   2.103  0.00  0.00    +0.100 OA
ENDBRANCH  21  29
ENDBRANCH  20  25
ENDBRANCH   1  20
TORSDOF 5
