REMARK  Name = ZINCkj000005fb5n.0
REMARK                            x       y       z     vdW  Elec       q    Type
REMARK                         _______ _______ _______ _____ _____    ______ ____
ROOT
ATOM      1  C   LIG    1        2.842   0.481   4.009  0.00  0.00    +0.530 C 
ATOM      2  N   LIG    1        3.706  -0.549   3.916  0.00  0.00    -0.710 N 
ATOM      3  H   LIG    1        3.459  -1.421   4.262  0.00  0.00    +0.410 HD
ATOM      4  O   LIG    1        3.151   1.572   3.576  0.00  0.00    -0.510 OA
ENDROOT
BRANCH   2   5
ATOM      5  C   LIG    1        5.016  -0.353   3.292  0.00  0.00    +0.310 C 
ATOM      6  C   LIG    1        6.230  -0.967   3.993  0.00  0.00    -0.050 C 
ATOM      7  C   LIG    1        7.629  -0.417   3.641  0.00  0.00    +0.310 C 
ATOM      8  N   LIG    1        8.056  -1.210   2.459  0.00  0.00    -0.520 N 
ATOM      9  C   LIG    1        6.821  -1.349   1.648  0.00  0.00    +0.320 C 
ATOM     10  H   LIG    1        8.395  -2.116   2.746  0.00  0.00    +0.430 HD
ATOM     11  H   LIG    1        8.766  -0.716   1.940  0.00  0.00    +0.440 HD
ATOM     12  C   LIG    1        5.698  -1.580   2.683  0.00  0.00    -0.050 C 
ENDBRANCH   2   5
BRANCH   1  13
ATOM     13  C   LIG    1        1.494   0.279   4.650  0.00  0.00    +0.130 C 
BRANCH  13  19
ATOM     14  C   LIG    1       -0.008   1.929   3.505  0.00  0.00    +0.150 A 
ATOM     15  C   LIG    1       -0.718   3.121   3.490  0.00  0.00    -0.080 A 
ATOM     16  C   LIG    1       -0.686   3.957   4.590  0.00  0.00    +0.060 A 
ATOM     17  C   LIG    1        0.052   3.606   5.705  0.00  0.00    -0.030 A 
ATOM     18  C   LIG    1        0.761   2.418   5.722  0.00  0.00    +0.060 A 
ATOM     19  C   LIG    1        0.727   1.577   4.628  0.00  0.00    -0.110 A 
BRANCH  14  20
ATOM     20  O   LIG    1       -0.038   1.106   2.425  0.00  0.00    -0.310 OA
BRANCH  20  22
ATOM     21  C   LIG    1       -0.162   0.887   0.021  0.00  0.00    +0.060 C 
ATOM     22  C   LIG    1       -0.721   1.583   1.264  0.00  0.00    +0.150 C 
ATOM     23  C   LIG    1       -2.215   1.278   1.390  0.00  0.00    +0.020 C 
ENDBRANCH  20  22
ENDBRANCH  14  20
ENDBRANCH  13  19
ENDBRANCH   1  13
TORSDOF 5
