REMARK  Name = ZINCrD00000bGMN7.0
REMARK                            x       y       z     vdW  Elec       q    Type
REMARK                         _______ _______ _______ _____ _____    ______ ____
ROOT
ATOM      1  C   LIG    1       -0.718   1.572   1.248  0.00  0.00    +0.540 C 
ATOM      2  N   LIG    1       -0.242   1.246   2.466  0.00  0.00    -0.620 N 
ATOM      3  C   LIG    1        0.951   0.427   2.728  0.00  0.00    +0.260 C 
ATOM      4  C   LIG    1        1.092   0.301   4.260  0.00  0.00    +0.050 C 
ATOM      5  C   LIG    1       -0.348   0.581   4.765  0.00  0.00    +0.090 C 
ATOM      6  C   LIG    1       -0.827   1.656   3.755  0.00  0.00    +0.270 C 
ATOM      7  O   LIG    1       -1.714   2.256   1.150  0.00  0.00    -0.530 OA
ENDROOT
BRANCH   5   8
ATOM      8  C   LIG    1       -0.331   1.129   6.169  0.00  0.00    +0.070 A 
ATOM      9  N   LIG    1       -0.929   0.586   7.180  0.00  0.00    -0.470 NA
ATOM     10  C   LIG    1       -0.817   1.183   8.339  0.00  0.00    +0.170 A 
ATOM     11  C   LIG    1       -0.071   2.329   8.304  0.00  0.00    -0.300 A 
ATOM     12  C   LIG    1       -1.457   0.658   9.599  0.00  0.00    +0.170 C 
ATOM     13  S   LIG    1        0.475   2.559   6.645  0.00  0.00    +0.220 S 
BRANCH  11  14
ATOM     14  C   LIG    1        0.221   3.206   9.440  0.00  0.00    +0.550 C 
ATOM     15  O   LIG    1       -0.216   2.938  10.543  0.00  0.00    -0.490 OA
BRANCH  14  16
ATOM     16  O   LIG    1        0.974   4.311   9.263  0.00  0.00    -0.360 OA
BRANCH  16  17
ATOM     17  C   LIG    1        1.222   5.134  10.434  0.00  0.00    +0.200 C 
ATOM     18  C   LIG    1        2.088   6.333  10.040  0.00  0.00    +0.070 C 
ENDBRANCH  16  17
ENDBRANCH  14  16
ENDBRANCH  11  14
ENDBRANCH   5   8
BRANCH   1  19
ATOM     19  C   LIG    1       -0.013   1.086   0.008  0.00  0.00    +0.050 C 
BRANCH  19  20
ATOM     20  C   LIG    1       -0.753   1.593  -1.232  0.00  0.00    +0.130 C 
BRANCH  20  21
ATOM     21  C   LIG    1       -0.037   1.099  -2.490  0.00  0.00    +0.040 C 
ATOM     22  N   LIG    1        0.704  -0.163  -2.426  0.00  0.00    -0.120 NA
ATOM     23  N   LIG    1        1.407   0.861  -2.427  0.00  0.00    -0.120 NA
BRANCH  21  24
ATOM     24  C   LIG    1       -0.651   1.520  -3.827  0.00  0.00    +0.120 C 
BRANCH  24  25
ATOM     25  C   LIG    1        0.182   0.946  -4.975  0.00  0.00    +0.160 C 
BRANCH  25  27
ATOM     26  C   LIG    1       -0.882   1.674  -7.285  0.00  0.00    +0.030 C 
ATOM     27  C   LIG    1       -0.410   1.351  -6.260  0.00  0.00    -0.190 C 
ENDBRANCH  25  27
ENDBRANCH  24  25
ENDBRANCH  21  24
ENDBRANCH  20  21
ENDBRANCH  19  20
ENDBRANCH   1  19
TORSDOF 10
