REMARK  Name = ZINCvU00000004QK.0
REMARK                            x       y       z     vdW  Elec       q    Type
REMARK                         _______ _______ _______ _____ _____    ______ ____
ROOT
ATOM      1  N   LIG    1        4.784   1.411  -0.037  0.00  0.00    -0.480 N 
ATOM      2  C   LIG    1        3.705   2.050   0.471  0.00  0.00    +0.560 A 
ATOM      3  C   LIG    1        2.422   1.334   0.457  0.00  0.00    -0.200 A 
ATOM      4  C   LIG    1        1.255   1.909   0.957  0.00  0.00    +0.130 A 
ATOM      5  C   LIG    1        0.084   1.203   0.922  0.00  0.00    +0.020 A 
ATOM      6  C   LIG    1        0.045  -0.082   0.392  0.00  0.00    +0.010 A 
ATOM      7  C   LIG    1        1.184  -0.673  -0.109  0.00  0.00    +0.040 A 
ATOM      8 CL   LIG    1       -1.457  -0.951   0.361  0.00  0.00    -0.050 Cl
ATOM      9  C   LIG    1        2.393   0.028  -0.084  0.00  0.00    +0.180 A 
ATOM     10  N   LIG    1        3.536  -0.513  -0.565  0.00  0.00    -0.530 NA
ATOM     11  O   LIG    1        3.793   3.177   0.923  0.00  0.00    -0.490 OA
ATOM     12  C   LIG    1        4.669   0.145  -0.541  0.00  0.00    +0.370 A 
ENDROOT
BRANCH   1  16
ATOM     13  C   LIG    1        8.490   3.317  -0.065  0.00  0.00    -0.050 A 
ATOM     14  C   LIG    1        7.634   3.458  -1.142  0.00  0.00    +0.020 A 
ATOM     15  C   LIG    1        6.405   2.827  -1.136  0.00  0.00    +0.050 A 
ATOM     16  C   LIG    1        6.030   2.052  -0.046  0.00  0.00    +0.080 A 
ATOM     17  C   LIG    1        6.889   1.918   1.036  0.00  0.00    +0.050 A 
ATOM     18  C   LIG    1        8.119   2.546   1.021  0.00  0.00    +0.030 A 
BRANCH  13  19
ATOM     19  C   LIG    1        9.831   4.006  -0.076  0.00  0.00    +0.020 C 
ATOM     20  C   LIG    1       10.942   2.960   0.034  0.00  0.00    +0.030 C 
BRANCH  19  22
ATOM     21  C   LIG    1       11.227   5.759   1.029  0.00  0.00    +0.010 C 
ATOM     22  C   LIG    1        9.919   4.969   1.110  0.00  0.00    +0.000 C 
ENDBRANCH  19  22
ENDBRANCH  13  19
ENDBRANCH   1  16
BRANCH  12  23
ATOM     23  S   LIG    1        6.109  -0.636  -1.189  0.00  0.00    +0.100 S 
BRANCH  23  24
ATOM     24  C   LIG    1        5.404  -2.224  -1.697  0.00  0.00    +0.010 C 
ATOM     25  C   LIG    1        4.394  -1.996  -2.824  0.00  0.00    +0.090 C 
BRANCH  24  26
ATOM     26  C   LIG    1        6.505  -3.130  -2.184  0.00  0.00    +0.540 C 
ATOM     27  N   LIG    1        6.310  -4.462  -2.233  0.00  0.00    -0.690 N 
ATOM     28  H   LIG    1        5.460  -4.838  -1.954  0.00  0.00    +0.410 HD
ATOM     29  O   LIG    1        7.568  -2.659  -2.533  0.00  0.00    -0.520 OA
BRANCH  27  30
ATOM     30  C   LIG    1        7.381  -5.343  -2.707  0.00  0.00    +0.220 C 
ATOM     31  C   LIG    1        6.995  -6.469  -3.668  0.00  0.00    +0.020 C 
ATOM     32  C   LIG    1        7.370  -6.793  -2.220  0.00  0.00    +0.020 C 
ENDBRANCH  27  30
ENDBRANCH  24  26
ENDBRANCH  23  24
ENDBRANCH  12  23
TORSDOF 7
