REMARK  Name = ZINCnE000001CDFS.0
REMARK                            x       y       z     vdW  Elec       q    Type
REMARK                         _______ _______ _______ _____ _____    ______ ____
ROOT
ATOM      1  C   LIG    1        6.947  -0.606  -0.044  0.00  0.00    +0.510 C 
ATOM      2  O   LIG    1        6.282  -1.615   0.119  0.00  0.00    -0.560 OA
ENDROOT
BRANCH   1   6
ATOM      3  C   LIG    1       11.190  -0.840  -0.103  0.00  0.00    +0.140 A 
ATOM      4  C   LIG    1       10.434  -1.992   0.084  0.00  0.00    +0.000 A 
ATOM      5  C   LIG    1        9.059  -1.919   0.103  0.00  0.00    +0.070 A 
ATOM      6  C   LIG    1        8.424  -0.687  -0.064  0.00  0.00    -0.100 A 
ATOM      7  C   LIG    1        9.185   0.467  -0.256  0.00  0.00    +0.090 A 
ATOM      8  C   LIG    1       10.560   0.389  -0.270  0.00  0.00    -0.040 A 
BRANCH   3  11
ATOM      9  C   LIG    1       14.689  -2.146  -0.541  0.00  0.00    +0.100 C 
ATOM     10  C   LIG    1       13.191  -2.010  -0.627  0.00  0.00    +0.500 C 
ATOM     11  N   LIG    1       12.583  -0.917  -0.123  0.00  0.00    -0.670 N 
ATOM     12  H   LIG    1       13.114  -0.184   0.226  0.00  0.00    +0.410 HD
ATOM     13  O   LIG    1       12.531  -2.883  -1.150  0.00  0.00    -0.520 OA
ENDBRANCH   3  11
ENDBRANCH   1   6
BRANCH   1  14
ATOM     14  N   LIG    1        6.341   0.573  -0.204  0.00  0.00    -0.660 NA
ATOM     15  C   LIG    1        5.011   0.647  -0.186  0.00  0.00    +0.340 A 
ATOM     16  N   LIG    1        4.142  -0.368  -0.018  0.00  0.00    -0.400 NA
ATOM     17  N   LIG    1        2.803  -0.044  -0.032  0.00  0.00    -0.250 NA
ATOM     18  C   LIG    1        2.498   1.208  -0.214  0.00  0.00    +0.020 A 
ATOM     19  S   LIG    1        4.044   2.059  -0.372  0.00  0.00    -0.040 S 
BRANCH  18  20
ATOM     20  C   LIG    1        1.143   1.799  -0.271  0.00  0.00    +0.010 A 
ATOM     21  C   LIG    1        0.928   3.116  -0.460  0.00  0.00    -0.040 A 
ATOM     22  S   LIG    1       -0.802   3.433  -0.469  0.00  0.00    +0.090 S 
ATOM     23  C   LIG    1       -1.153   1.729  -0.217  0.00  0.00    -0.050 A 
ATOM     24  C   LIG    1       -0.019   1.039  -0.135  0.00  0.00    +0.050 A 
ENDBRANCH  18  20
ENDBRANCH   1  14
TORSDOF 4
