REMARK  Name = ZINCrD000000CBgd.0
REMARK                            x       y       z     vdW  Elec       q    Type
REMARK                         _______ _______ _______ _____ _____    ______ ____
ROOT
ATOM      1  C   LIG    1       -0.037   1.502   0.012  0.00  0.00    -0.260 C 
ENDROOT
BRANCH   1   5
ATOM      2  C   LIG    1        0.035  -2.773  -0.013  0.00  0.00    -0.120 A 
ATOM      3  C   LIG    1       -0.025  -2.080   1.197  0.00  0.00    +0.090 A 
ATOM      4  C   LIG    1       -0.048  -0.701   1.198  0.00  0.00    +0.030 A 
ATOM      5  C   LIG    1       -0.011  -0.004   0.003  0.00  0.00    -0.080 A 
ATOM      6  C   LIG    1        0.042  -0.685  -1.200  0.00  0.00    +0.030 A 
ATOM      7  C   LIG    1        0.071  -2.064  -1.215  0.00  0.00    +0.050 A 
BRANCH   2   9
ATOM      8  O   LIG    1        0.176  -4.863   1.023  0.00  0.00    -0.530 OA
ATOM      9  C   LIG    1        0.061  -4.251  -0.021  0.00  0.00    +0.570 C 
ATOM     10  N   LIG    1       -0.043  -4.920  -1.187  0.00  0.00    -0.610 N 
ATOM     11  C   LIG    1       -0.084  -4.311  -2.524  0.00  0.00    +0.240 C 
ATOM     12  C   LIG    1       -0.231  -5.457  -3.546  0.00  0.00    +0.030 C 
ATOM     13  C   LIG    1       -0.842  -6.602  -2.695  0.00  0.00    +0.040 C 
ATOM     14  C   LIG    1       -0.140  -6.384  -1.331  0.00  0.00    +0.250 C 
ENDBRANCH   2   9
ENDBRANCH   1   5
BRANCH   1  15
ATOM     15  S   LIG    1        1.662   2.135   0.084  0.00  0.00    +2.500 S 
ATOM     16  O   LIG    1        2.349   1.858  -1.128  0.00  0.00    -0.910 OA
ATOM     17  O   LIG    1        2.250   1.842   1.344  0.00  0.00    -0.900 OA
BRANCH  15  18
ATOM     18  C   LIG    1        1.478   3.888   0.088  0.00  0.00    -0.410 A 
ATOM     19  C   LIG    1        1.461   4.575  -1.110  0.00  0.00    +0.080 A 
ATOM     20  C   LIG    1        1.311   5.954  -1.096  0.00  0.00    +0.130 A 
ATOM     21  C   LIG    1        1.195   6.592   0.129  0.00  0.00    -0.190 A 
ATOM     22  C   LIG    1        1.226   5.839   1.287  0.00  0.00    +0.320 A 
ATOM     23  N   LIG    1        1.365   4.529   1.235  0.00  0.00    -0.390 NA
BRANCH  21  24
ATOM     24  C   LIG    1        1.036   8.090   0.197  0.00  0.00    +0.510 C 
ATOM     25  F   LIG    1       -0.125   8.467  -0.487  0.00  0.00    -0.170 F 
ATOM     26  F   LIG    1        2.146   8.703  -0.394  0.00  0.00    -0.170 F 
ATOM     27  F   LIG    1        0.941   8.488   1.534  0.00  0.00    -0.170 F 
ENDBRANCH  21  24
ENDBRANCH  15  18
ENDBRANCH   1  15
TORSDOF 5
