REMARK  Name = ZINCrD000000AaXm.0
REMARK                            x       y       z     vdW  Elec       q    Type
REMARK                         _______ _______ _______ _____ _____    ______ ____
ROOT
ATOM      1  C   LIG    1        2.535   5.694   0.008  0.00  0.00    +0.520 C 
ATOM      2  N   LIG    1        3.692   6.383   0.001  0.00  0.00    -0.600 N 
ATOM      3  O   LIG    1        1.476   6.286   0.022  0.00  0.00    -0.530 OA
ENDROOT
BRANCH   1   4
ATOM      4  C   LIG    1        2.555   4.187   0.000  0.00  0.00    +0.080 C 
BRANCH   4   5
ATOM      5  C   LIG    1        1.120   3.657   0.011  0.00  0.00    +0.070 C 
BRANCH   5   7
ATOM      6  O   LIG    1        2.199   1.558  -0.011  0.00  0.00    -0.540 OA
ATOM      7  C   LIG    1        1.140   2.151   0.003  0.00  0.00    +0.510 C 
ATOM      8  N   LIG    1       -0.018   1.461   0.010  0.00  0.00    -0.730 N 
ATOM      9  H   LIG    1       -0.864   1.934   0.017  0.00  0.00    +0.400 HD
BRANCH   8  10
ATOM     10  C   LIG    1        0.002  -0.004   0.002  0.00  0.00    +0.230 C 
ATOM     11  C   LIG    1        0.069  -0.524  -1.449  0.00  0.00    +0.010 C 
ATOM     12  C   LIG    1       -0.823  -1.791  -1.439  0.00  0.00    +0.010 C 
ATOM     13  C   LIG    1       -1.984  -1.386  -0.498  0.00  0.00    +0.020 C 
ATOM     14  C   LIG    1       -1.302  -0.552   0.607  0.00  0.00    +0.020 C 
ENDBRANCH   8  10
ENDBRANCH   5   7
ENDBRANCH   4   5
ENDBRANCH   1   4
BRANCH   2  15
ATOM     15  C   LIG    1        4.971   5.668  -0.015  0.00  0.00    +0.400 C 
BRANCH  15  16
ATOM     16  C   LIG    1        5.396   5.431  -1.441  0.00  0.00    -0.040 A 
ATOM     17  C   LIG    1        6.146   6.261  -2.187  0.00  0.00    -0.040 A 
ATOM     18  C   LIG    1        6.303   5.648  -3.451  0.00  0.00    -0.070 A 
ATOM     19  C   LIG    1        5.632   4.482  -3.405  0.00  0.00    +0.170 A 
ATOM     20  O   LIG    1        5.085   4.356  -2.185  0.00  0.00    -0.170 OA
ENDBRANCH  15  16
ENDBRANCH   2  15
BRANCH   2  21
ATOM     21  C   LIG    1        3.673   7.848   0.009  0.00  0.00    +0.350 C 
BRANCH  21  22
ATOM     22  C   LIG    1        3.679   8.343   1.433  0.00  0.00    -0.120 A 
ATOM     23  C   LIG    1        2.485   8.559   2.094  0.00  0.00    +0.050 A 
ATOM     24  C   LIG    1        2.488   9.007   3.401  0.00  0.00    -0.020 A 
ATOM     25  C   LIG    1        3.692   9.251   4.046  0.00  0.00    +0.110 A 
ATOM     26  C   LIG    1        4.889   9.040   3.378  0.00  0.00    -0.020 A 
ATOM     27  C   LIG    1        4.880   8.586   2.073  0.00  0.00    +0.040 A 
BRANCH  25  28
ATOM     28  O   LIG    1        3.698   9.698   5.329  0.00  0.00    -0.500 OA
ATOM     29  H   LIG    1        3.685  10.662   5.410  0.00  0.00    +0.390 HD
ENDBRANCH  25  28
ENDBRANCH  21  22
ENDBRANCH   2  21
TORSDOF 9
