REMARK  Name = ZINCkj000005iKED.0
REMARK                            x       y       z     vdW  Elec       q    Type
REMARK                         _______ _______ _______ _____ _____    ______ ____
ROOT
ATOM      1  C   LIG    1       -0.001   2.115  -2.196  0.00  0.00    +0.520 C 
ATOM      2  N   LIG    1       -0.709   1.565  -1.190  0.00  0.00    -0.620 N 
ATOM      3  C   LIG    1       -0.013   1.086   0.008  0.00  0.00    +0.280 C 
ATOM      4  C   LIG    1       -0.720   1.576   1.285  0.00  0.00    +0.060 C 
ATOM      5  C   LIG    1       -2.186   1.216   1.149  0.00  0.00    -0.010 C 
ATOM      6  C   LIG    1       -3.108   1.679   2.281  0.00  0.00    +0.280 C 
ATOM      7  N   LIG    1       -4.449   1.740   1.633  0.00  0.00    -0.520 N 
ATOM      8  C   LIG    1       -4.253   1.926   0.172  0.00  0.00    +0.290 C 
ATOM      9  H   LIG    1       -4.973   2.516   2.008  0.00  0.00    +0.430 HD
ATOM     10  H   LIG    1       -4.948   0.879   1.803  0.00  0.00    +0.430 HD
ATOM     11  C   LIG    1       -2.749   2.055  -0.035  0.00  0.00    -0.020 C 
ATOM     12  C   LIG    1       -2.178   1.452  -1.306  0.00  0.00    +0.320 C 
ATOM     13  O   LIG    1       -0.570   2.513  -3.190  0.00  0.00    -0.510 OA
ENDROOT
BRANCH   1  14
ATOM     14  C   LIG    1        1.497   2.234  -2.087  0.00  0.00    +0.120 C 
BRANCH  14  19
ATOM     15  C   LIG    1        2.919   2.687  -5.559  0.00  0.00    +0.130 A 
ATOM     16  C   LIG    1        3.045   4.067  -5.625  0.00  0.00    -0.070 A 
ATOM     17  C   LIG    1        2.670   4.847  -4.548  0.00  0.00    +0.050 A 
ATOM     18  C   LIG    1        2.170   4.253  -3.404  0.00  0.00    -0.020 A 
ATOM     19  C   LIG    1        2.043   2.878  -3.335  0.00  0.00    -0.040 A 
ATOM     20  C   LIG    1        2.421   2.093  -4.407  0.00  0.00    -0.010 A 
BRANCH  15  22
ATOM     21  C   LIG    1        3.796   2.597  -7.766  0.00  0.00    +0.250 C 
ATOM     22  O   LIG    1        3.287   1.918  -6.617  0.00  0.00    -0.320 OA
ENDBRANCH  15  22
ENDBRANCH  14  19
ENDBRANCH   1  14
TORSDOF 3
