REMARK  Name = ZINCpk000000ocxl.0
REMARK                            x       y       z     vdW  Elec       q    Type
REMARK                         _______ _______ _______ _____ _____    ______ ____
ROOT
ATOM      1  C   LIG    1       -0.681  -0.519  -1.238  0.00  0.00    +0.500 C 
ATOM      2  N   LIG    1       -0.776  -1.846  -1.454  0.00  0.00    -0.660 N 
ATOM      3  H   LIG    1       -0.344  -2.468  -0.848  0.00  0.00    +0.420 HD
ATOM      4  O   LIG    1       -1.142   0.261  -2.045  0.00  0.00    -0.440 OA
ENDROOT
BRANCH   1  10
ATOM      5  C   LIG    1       -1.130   2.235   0.023  0.00  0.00    +0.540 C 
ATOM      6  N   LIG    1       -0.023   1.466   0.014  0.00  0.00    -0.610 N 
ATOM      7  C   LIG    1        1.366   1.959   0.005  0.00  0.00    +0.250 C 
ATOM      8  C   LIG    1        2.202   0.800   0.603  0.00  0.00    +0.040 C 
ATOM      9  C   LIG    1        1.479  -0.441   0.016  0.00  0.00    +0.050 C 
ATOM     10  C   LIG    1       -0.002  -0.004   0.004  0.00  0.00    +0.230 C 
ATOM     11  O   LIG    1       -2.228   1.718   0.024  0.00  0.00    -0.520 OA
BRANCH   5  12
ATOM     12  C   LIG    1       -1.004   3.736   0.032  0.00  0.00    +0.050 C 
BRANCH  12  14
ATOM     13  C   LIG    1       -2.271   5.890   0.051  0.00  0.00    +0.010 C 
ATOM     14  C   LIG    1       -2.399   4.365   0.042  0.00  0.00    +0.030 C 
ENDBRANCH  12  14
ENDBRANCH   5  12
ENDBRANCH   1  10
BRANCH   2  15
ATOM     15  C   LIG    1       -1.496  -2.325  -2.548  0.00  0.00    +0.370 A 
ATOM     16  C   LIG    1       -1.680  -3.693  -2.704  0.00  0.00    -0.020 A 
ATOM     17  C   LIG    1       -2.407  -4.156  -3.802  0.00  0.00    +0.050 A 
ATOM     18  C   LIG    1       -2.913  -3.214  -4.707  0.00  0.00    +0.000 A 
ATOM     19  C   LIG    1       -2.681  -1.873  -4.480  0.00  0.00    +0.310 A 
ATOM     20  N   LIG    1       -1.993  -1.471  -3.429  0.00  0.00    -0.460 NA
BRANCH  17  21
ATOM     21  C   LIG    1       -2.632  -5.604  -4.008  0.00  0.00    +0.240 A 
ATOM     22  N   LIG    1       -3.294  -6.163  -5.003  0.00  0.00    -0.490 NA
ATOM     23  C   LIG    1       -3.237  -7.490  -4.774  0.00  0.00    +0.430 A 
ATOM     24  N   LIG    1       -2.557  -7.668  -3.672  0.00  0.00    -0.430 NA
ATOM     25  O   LIG    1       -2.197  -6.601  -3.222  0.00  0.00    +0.080 OA
BRANCH  23  26
ATOM     26  N   LIG    1       -3.799  -8.485  -5.563  0.00  0.00    -0.810 N 
ATOM     27  H   LIG    1       -3.702  -9.417  -5.311  0.00  0.00    +0.420 HD
ATOM     28  H   LIG    1       -4.288  -8.249  -6.366  0.00  0.00    +0.420 HD
ENDBRANCH  23  26
ENDBRANCH  17  21
ENDBRANCH   2  15
TORSDOF 6
