REMARK  Name = ZINCpe00000MJIJr.0
REMARK                            x       y       z     vdW  Elec       q    Type
REMARK                         _______ _______ _______ _____ _____    ______ ____
ROOT
ATOM      1  N   LIG    1        6.853   5.562  -0.014  0.00  0.00    -0.700 N 
ATOM      2  H   LIG    1        6.530   5.599  -0.928  0.00  0.00    +0.410 HD
ATOM      3  C   LIG    1        6.462   4.559   0.798  0.00  0.00    +0.610 C 
ATOM      4  O   LIG    1        6.867   4.512   1.943  0.00  0.00    -0.510 OA
ENDROOT
BRANCH   3   5
ATOM      5  C   LIG    1        5.539   3.513   0.294  0.00  0.00    -0.030 A 
ATOM      6  N   LIG    1        5.024   3.431  -0.907  0.00  0.00    -0.330 NA
ATOM      7  O   LIG    1        4.307   2.463  -1.016  0.00  0.00    +0.130 OA
ATOM      8  C   LIG    1        4.248   1.757   0.122  0.00  0.00    -0.030 A 
ATOM      9  C   LIG    1        5.031   2.399   1.019  0.00  0.00    +0.020 A 
BRANCH   8  10
ATOM     10  C   LIG    1        3.457   0.496   0.358  0.00  0.00    +0.320 C 
BRANCH  10  11
ATOM     11  N   LIG    1        2.116   0.844   0.848  0.00  0.00    -0.530 NA
ATOM     12  C   LIG    1        1.494   1.881  -0.002  0.00  0.00    +0.170 C 
ATOM     13  C   LIG    1       -0.019   1.547   0.011  0.00  0.00    +0.030 C 
ATOM     14  C   LIG    1        0.002  -0.004   0.002  0.00  0.00    +0.010 C 
ATOM     15  C   LIG    1        1.237  -0.340   0.865  0.00  0.00    +0.190 C 
ENDBRANCH  10  11
ENDBRANCH   8  10
ENDBRANCH   3   5
BRANCH   1  17
ATOM     16  C   LIG    1        7.650   7.931  -0.268  0.00  0.00    +0.270 C 
ATOM     17  C   LIG    1        7.764   6.595   0.484  0.00  0.00    +0.250 C 
ATOM     18  C   LIG    1        9.188   6.486  -0.086  0.00  0.00    +0.030 C 
ATOM     19  C   LIG    1        9.183   8.021  -0.181  0.00  0.00    +0.180 C 
BRANCH  16  23
ATOM     20  C   LIG    1        6.722  11.695   2.910  0.00  0.00    +0.110 C 
ATOM     21  C   LIG    1        6.547  10.614   1.875  0.00  0.00    -0.230 A 
ATOM     22  C   LIG    1        7.517   9.796   1.406  0.00  0.00    +0.220 A 
ATOM     23  N   LIG    1        6.957   8.975   0.493  0.00  0.00    -0.370 N 
ATOM     24  N   LIG    1        5.596   9.292   0.405  0.00  0.00    -0.290 NA
ATOM     25  C   LIG    1        5.351  10.274   1.234  0.00  0.00    +0.230 A 
ENDBRANCH  16  23
BRANCH  19  26
ATOM     26  O   LIG    1        9.795   8.523  -1.371  0.00  0.00    -0.550 OA
ATOM     27  H   LIG    1       10.759   8.582  -1.323  0.00  0.00    +0.390 HD
ENDBRANCH  19  26
ENDBRANCH   1  17
TORSDOF 6
