REMARK  Name = ZINCqH0000000vzh.0
REMARK                            x       y       z     vdW  Elec       q    Type
REMARK                         _______ _______ _______ _____ _____    ______ ____
ROOT
ATOM      1  C   LIG    1       -0.886   3.205  -2.239  0.00  0.00    +0.600 C 
ATOM      2  N   LIG    1       -0.474   3.363  -0.965  0.00  0.00    -0.730 N 
ATOM      3  H   LIG    1       -0.305   4.252  -0.617  0.00  0.00    +0.390 HD
ATOM      4  O   LIG    1       -1.099   2.089  -2.675  0.00  0.00    -0.510 OA
ENDROOT
BRANCH   1   9
ATOM      5  C   LIG    1       -1.537   5.701  -4.840  0.00  0.00    -0.260 A 
ATOM      6  C   LIG    1       -1.147   6.492  -3.771  0.00  0.00    +0.110 A 
ATOM      7  N   LIG    1       -0.878   5.691  -2.729  0.00  0.00    -0.530 N 
ATOM      8  H   LIG    1       -0.588   5.989  -1.853  0.00  0.00    +0.420 HD
ATOM      9  C   LIG    1       -1.077   4.379  -3.099  0.00  0.00    -0.070 A 
ATOM     10  C   LIG    1       -1.048   7.996  -3.776  0.00  0.00    +0.160 C 
ATOM     11  C   LIG    1       -1.488   4.356  -4.398  0.00  0.00    -0.020 A 
ATOM     12  C   LIG    1       -1.825   3.133  -5.211  0.00  0.00    +0.130 C 
BRANCH   5  14
ATOM     13  C   LIG    1       -3.366   6.498  -6.467  0.00  0.00    +0.080 C 
ATOM     14  C   LIG    1       -1.925   6.167  -6.175  0.00  0.00    +0.440 C 
ATOM     15  O   LIG    1       -1.087   6.286  -7.043  0.00  0.00    -0.450 OA
ENDBRANCH   5  14
ENDBRANCH   1   9
BRANCH   2  16
ATOM     16  C   LIG    1       -0.283   2.191  -0.106  0.00  0.00    +0.340 C 
BRANCH  16  17
ATOM     17  C   LIG    1        1.095   1.625  -0.329  0.00  0.00    -0.050 A 
ATOM     18  C   LIG    1        2.187   2.462  -0.500  0.00  0.00    -0.030 A 
ATOM     19  C   LIG    1        3.436   1.906  -0.708  0.00  0.00    +0.260 A 
ATOM     20  N   LIG    1        3.594   0.597  -0.744  0.00  0.00    -0.480 NA
ATOM     21  C   LIG    1        2.578  -0.229  -0.585  0.00  0.00    +0.260 A 
ATOM     22  C   LIG    1        1.301   0.254  -0.373  0.00  0.00    -0.010 A 
ENDBRANCH  16  17
BRANCH  16  23
ATOM     23  C   LIG    1       -0.432   2.597   1.337  0.00  0.00    -0.090 A 
ATOM     24  C   LIG    1        0.099   3.795   1.777  0.00  0.00    +0.010 A 
ATOM     25  C   LIG    1       -0.041   4.169   3.100  0.00  0.00    +0.020 A 
ATOM     26  C   LIG    1       -0.706   3.341   3.986  0.00  0.00    +0.020 A 
ATOM     27  C   LIG    1       -1.233   2.141   3.547  0.00  0.00    +0.020 A 
ATOM     28  C   LIG    1       -1.096   1.769   2.223  0.00  0.00    +0.030 A 
ENDBRANCH  16  23
ENDBRANCH   2  16
TORSDOF 5
