REMARK  Name = ZINCkj000005f2hi.0
REMARK                            x       y       z     vdW  Elec       q    Type
REMARK                         _______ _______ _______ _____ _____    ______ ____
ROOT
ATOM      1  C   LIG    1       -1.401  -2.047  -0.764  0.00  0.00    +0.500 C 
ATOM      2  N   LIG    1       -0.997  -0.839  -0.324  0.00  0.00    -0.700 N 
ATOM      3  H   LIG    1       -1.647  -0.206   0.021  0.00  0.00    +0.410 HD
ATOM      4  O   LIG    1       -0.589  -2.837  -1.196  0.00  0.00    -0.530 OA
ENDROOT
BRANCH   2   5
ATOM      5  C   LIG    1        0.422  -0.480  -0.366  0.00  0.00    +0.240 C 
ATOM      6  C   LIG    1        0.563   1.042  -0.426  0.00  0.00    +0.040 C 
ATOM      7  C   LIG    1        2.046   1.416  -0.475  0.00  0.00    +0.040 C 
ATOM      8  C   LIG    1        2.747   0.884   0.776  0.00  0.00    +0.250 C 
ATOM      9  O   LIG    1        4.140   1.231   0.728  0.00  0.00    -0.370 OA
ATOM     10  C   LIG    1        4.243   2.455   1.495  0.00  0.00    +0.200 C 
ATOM     11  C   LIG    1        3.203   2.211   2.617  0.00  0.00    +0.200 C 
ATOM     12  C   LIG    1        2.603  -0.638   0.843  0.00  0.00    +0.040 C 
ATOM     13  O   LIG    1        2.162   1.475   1.943  0.00  0.00    -0.380 OA
ATOM     14  C   LIG    1        1.119  -1.008   0.889  0.00  0.00    +0.030 C 
ENDBRANCH   2   5
BRANCH   1  15
ATOM     15  C   LIG    1       -2.861  -2.416  -0.721  0.00  0.00    +0.280 C 
BRANCH  15  16
ATOM     16  N   LIG    1       -3.040  -3.773  -1.252  0.00  0.00    -0.370 N 
ATOM     17  C   LIG    1       -2.369  -4.737  -0.369  0.00  0.00    +0.330 C 
ATOM     18  H   LIG    1       -2.638  -3.828  -2.176  0.00  0.00    +0.430 HD
BRANCH  16  19
ATOM     19  C   LIG    1       -4.473  -4.088  -1.321  0.00  0.00    +0.260 C 
BRANCH  19  21
ATOM     20  C   LIG    1       -4.595  -3.492  -3.745  0.00  0.00    +0.040 C 
ATOM     21  C   LIG    1       -5.145  -3.178  -2.352  0.00  0.00    -0.030 C 
ATOM     22  C   LIG    1       -6.656  -3.418  -2.335  0.00  0.00    +0.070 C 
ENDBRANCH  19  21
ENDBRANCH  16  19
ENDBRANCH  15  16
ENDBRANCH   1  15
TORSDOF 5
