REMARK  Name = ZINCkj000005f2hi.1
REMARK                            x       y       z     vdW  Elec       q    Type
REMARK                         _______ _______ _______ _____ _____    ______ ____
ROOT
ATOM      1  C   LIG    1       -2.333   3.408  -0.905  0.00  0.00    +0.500 C 
ATOM      2  N   LIG    1       -2.265   2.064  -0.822  0.00  0.00    -0.700 N 
ATOM      3  H   LIG    1       -2.520   1.518  -1.582  0.00  0.00    +0.410 HD
ATOM      4  O   LIG    1       -2.014   4.091   0.045  0.00  0.00    -0.530 OA
ENDROOT
BRANCH   2   5
ATOM      5  C   LIG    1       -1.807   1.429   0.416  0.00  0.00    +0.240 C 
ATOM      6  C   LIG    1       -0.279   1.360   0.418  0.00  0.00    +0.030 C 
ATOM      7  C   LIG    1        0.200   0.700   1.713  0.00  0.00    +0.020 C 
ATOM      8  C   LIG    1       -0.379  -0.713   1.808  0.00  0.00    +0.260 C 
ATOM      9  O   LIG    1        0.072  -1.490   0.686  0.00  0.00    -0.370 OA
ATOM     10  C   LIG    1        1.234  -2.203   1.174  0.00  0.00    +0.200 C 
ATOM     11  C   LIG    1        0.825  -2.508   2.637  0.00  0.00    +0.200 C 
ATOM     12  C   LIG    1       -1.907  -0.648   1.801  0.00  0.00    +0.060 C 
ATOM     13  O   LIG    1        0.072  -1.338   3.016  0.00  0.00    -0.380 OA
ATOM     14  C   LIG    1       -2.383   0.014   0.506  0.00  0.00    +0.040 C 
ENDBRANCH   2   5
BRANCH   1  15
ATOM     15  C   LIG    1       -2.804   4.062  -2.179  0.00  0.00    +0.280 C 
BRANCH  15  16
ATOM     16  N   LIG    1       -2.787   5.521  -2.015  0.00  0.00    -0.370 N 
ATOM     17  C   LIG    1       -3.767   5.911  -0.992  0.00  0.00    +0.330 C 
ATOM     18  H   LIG    1       -1.865   5.817  -1.728  0.00  0.00    +0.430 HD
BRANCH  16  19
ATOM     19  C   LIG    1       -3.131   6.161  -3.292  0.00  0.00    +0.260 C 
BRANCH  19  21
ATOM     20  C   LIG    1       -2.440   6.449  -5.676  0.00  0.00    +0.070 C 
ATOM     21  C   LIG    1       -2.029   5.880  -4.316  0.00  0.00    -0.030 C 
ATOM     22  C   LIG    1       -0.727   6.542  -3.859  0.00  0.00    +0.040 C 
ENDBRANCH  19  21
ENDBRANCH  16  19
ENDBRANCH  15  16
ENDBRANCH   1  15
TORSDOF 5
