REMARK  Name = ZINCpe000000UcKc.0
REMARK                            x       y       z     vdW  Elec       q    Type
REMARK                         _______ _______ _______ _____ _____    ______ ____
ROOT
ATOM      1  N   LIG    1       -0.872   3.042   1.182  0.00  0.00    -0.600 N 
ATOM      2  C   LIG    1       -0.992   1.587   1.364  0.00  0.00    +0.320 C 
ATOM      3  C   LIG    1       -0.218   0.891   0.239  0.00  0.00    +0.230 C 
ATOM      4  N   LIG    1       -0.684   1.396  -1.059  0.00  0.00    -0.460 N 
ATOM      5  C   LIG    1       -0.408   2.832  -1.202  0.00  0.00    +0.220 C 
ATOM      6  C   LIG    1       -1.191   3.608  -0.138  0.00  0.00    +0.320 C 
ENDROOT
BRANCH   1  14
ATOM      7  C   LIG    1        0.377   4.158   4.435  0.00  0.00    +0.270 A 
ATOM      8  N   LIG    1        0.327   5.464   4.276  0.00  0.00    -0.500 NA
ATOM      9  C   LIG    1       -0.105   6.007   3.132  0.00  0.00    +0.490 A 
ATOM     10  N   LIG    1       -0.247   7.268   2.736  0.00  0.00    -0.540 NA
ATOM     11  C   LIG    1       -0.720   7.298   1.496  0.00  0.00    +0.490 A 
ATOM     12  N   LIG    1       -0.895   6.073   1.062  0.00  0.00    -0.360 NA
ATOM     13  N   LIG    1       -0.501   5.212   2.094  0.00  0.00    -0.360 N 
ATOM     14  C   LIG    1       -0.470   3.853   2.220  0.00  0.00    +0.490 A 
ATOM     15  C   LIG    1       -0.021   3.307   3.407  0.00  0.00    -0.160 A 
BRANCH   7  17
ATOM     16  C   LIG    1        1.242   4.718   6.690  0.00  0.00    +0.040 C 
ATOM     17  C   LIG    1        0.869   3.581   5.737  0.00  0.00    +0.120 C 
ENDBRANCH   7  17
ENDBRANCH   1  14
BRANCH   4  18
ATOM     18  C   LIG    1       -0.125   0.677  -2.101  0.00  0.00    +0.530 A 
ATOM     19  N   LIG    1        0.709  -0.315  -1.826  0.00  0.00    -0.570 NA
ATOM     20  C   LIG    1        1.263  -1.026  -2.797  0.00  0.00    +0.380 A 
ATOM     21  C   LIG    1        0.964  -0.722  -4.112  0.00  0.00    -0.110 A 
ATOM     22  C   LIG    1        0.083   0.328  -4.369  0.00  0.00    +0.390 A 
ATOM     23  N   LIG    1       -0.441   0.995  -3.347  0.00  0.00    -0.580 NA
BRANCH  22  24
ATOM     24  O   LIG    1       -0.239   0.659  -5.643  0.00  0.00    -0.300 OA
ATOM     25  C   LIG    1       -1.148   1.746  -5.821  0.00  0.00    +0.260 C 
ENDBRANCH  22  24
ENDBRANCH   4  18
TORSDOF 4
