REMARK  Name = ZINCAx00000008Rl.0
REMARK                            x       y       z     vdW  Elec       q    Type
REMARK                         _______ _______ _______ _____ _____    ______ ____
ROOT
ATOM      1  N   LIG    1        0.002  -0.004   0.002  0.00  0.00    -0.660 N 
ATOM      2  H   LIG    1        0.845  -0.477  -0.084  0.00  0.00    +0.420 HD
ATOM      3  C   LIG    1       -0.016   1.343   0.013  0.00  0.00    +0.550 C 
ATOM      4  O   LIG    1       -1.077   1.937   0.017  0.00  0.00    -0.480 OA
ENDROOT
BRANCH   3   5
ATOM      5  C   LIG    1        1.254   2.099   0.013  0.00  0.00    -0.150 A 
ATOM      6  C   LIG    1        2.474   1.421   0.002  0.00  0.00    +0.180 A 
ATOM      7  C   LIG    1        3.655   2.132   0.002  0.00  0.00    -0.690 A 
ATOM      8  C   LIG    1        3.634   3.516   0.012  0.00  0.00    +0.180 A 
ATOM      9  C   LIG    1        2.430   4.196   0.024  0.00  0.00    +0.020 A 
ATOM     10  C   LIG    1        1.239   3.497   0.018  0.00  0.00    +0.070 A 
ATOM     11 CL   LIG    1       -0.272   4.351   0.024  0.00  0.00    -0.000 Cl
BRANCH   7  12
ATOM     12  S   LIG    1        5.196   1.277  -0.011  0.00  0.00    +2.690 S 
ATOM     13  O   LIG    1        4.942  -0.014   0.525  0.00  0.00    -0.950 OA
ATOM     14  O   LIG    1        6.156   2.171   0.536  0.00  0.00    -0.940 OA
BRANCH  12  15
ATOM     15  N   LIG    1        5.617   1.051  -1.596  0.00  0.00    -0.990 NA
ATOM     16  C   LIG    1        5.199  -0.160  -2.316  0.00  0.00    +0.290 C 
ATOM     17  C   LIG    1        4.478   0.263  -3.605  0.00  0.00    +0.010 C 
ATOM     18  C   LIG    1        5.389   1.190  -4.412  0.00  0.00    +0.020 C 
ATOM     19  C   LIG    1        5.691   2.449  -3.595  0.00  0.00    +0.010 C 
ATOM     20  C   LIG    1        6.422   2.054  -2.308  0.00  0.00    +0.290 C 
ENDBRANCH  12  15
ENDBRANCH   7  12
ENDBRANCH   3   5
BRANCH   1  26
ATOM     21  C   LIG    1       -1.284  -2.018  -0.388  0.00  0.00    +0.160 A 
ATOM     22  C   LIG    1       -2.471  -2.722  -0.273  0.00  0.00    -0.060 A 
ATOM     23  C   LIG    1       -3.564  -2.139   0.341  0.00  0.00    +0.160 A 
ATOM     24  C   LIG    1       -3.478  -0.853   0.840  0.00  0.00    -0.690 A 
ATOM     25  C   LIG    1       -2.295  -0.145   0.734  0.00  0.00    +0.170 A 
ATOM     26  C   LIG    1       -1.196  -0.721   0.115  0.00  0.00    +0.100 A 
BRANCH  24  27
ATOM     27  S   LIG    1       -4.876  -0.117   1.619  0.00  0.00    +2.690 S 
ATOM     28  O   LIG    1       -6.019  -0.793   1.114  0.00  0.00    -0.950 OA
ATOM     29  O   LIG    1       -4.697   1.289   1.519  0.00  0.00    -0.940 OA
BRANCH  27  30
ATOM     30  N   LIG    1       -4.789  -0.486   3.232  0.00  0.00    -1.000 NA
ATOM     31  C   LIG    1       -5.422  -1.702   3.765  0.00  0.00    +0.280 C 
ATOM     32  C   LIG    1       -4.380  -2.455   4.607  0.00  0.00    +0.220 C 
ATOM     33  O   LIG    1       -3.817  -1.558   5.569  0.00  0.00    -0.370 OA
ATOM     34  C   LIG    1       -3.110  -0.456   4.997  0.00  0.00    +0.220 C 
ATOM     35  C   LIG    1       -4.082   0.396   4.173  0.00  0.00    +0.280 C 
ENDBRANCH  27  30
ENDBRANCH  24  27
BRANCH  21  37
ATOM     36  C   LIG    1       -0.371  -3.921  -1.484  0.00  0.00    +0.250 C 
ATOM     37  O   LIG    1       -0.208  -2.589  -0.992  0.00  0.00    -0.310 OA
ENDBRANCH  21  37
ENDBRANCH   1  26
TORSDOF 7
