REMARK  Name = ZINCqH0000050cQn.0
REMARK                            x       y       z     vdW  Elec       q    Type
REMARK                         _______ _______ _______ _____ _____    ______ ____
ROOT
ATOM      1  C   LIG    1        0.040   9.330  -0.535  0.00  0.00    +0.520 C 
ATOM      2  N   LIG    1       -0.191   8.014  -0.717  0.00  0.00    -0.730 N 
ATOM      3  H   LIG    1        0.317   7.520  -1.379  0.00  0.00    +0.410 HD
ATOM      4  O   LIG    1       -0.595   9.948   0.294  0.00  0.00    -0.530 OA
ENDROOT
BRANCH   1   5
ATOM      5  C   LIG    1        1.087  10.032  -1.360  0.00  0.00    +0.060 C 
BRANCH   5   6
ATOM      6  C   LIG    1        1.148  11.507  -0.958  0.00  0.00    +0.060 C 
BRANCH   6   7
ATOM      7  C   LIG    1        2.210  12.221  -1.796  0.00  0.00    +0.200 C 
BRANCH   7   8
ATOM      8  O   LIG    1        2.267  13.598  -1.420  0.00  0.00    -0.310 OA
BRANCH   8  16
ATOM      9  C   LIG    1        2.387  16.328  -0.701  0.00  0.00    +0.100 C 
ATOM     10  C   LIG    1        3.272  15.728  -1.764  0.00  0.00    -0.100 A 
ATOM     11  C   LIG    1        4.190  16.519  -2.426  0.00  0.00    +0.070 A 
ATOM     12  C   LIG    1        4.998  15.970  -3.406  0.00  0.00    -0.070 A 
ATOM     13  C   LIG    1        4.892  14.627  -3.720  0.00  0.00    +0.060 A 
ATOM     14  C   LIG    1        3.978  13.831  -3.057  0.00  0.00    -0.050 A 
ATOM     15 CL   LIG    1        6.148  16.968  -4.241  0.00  0.00    -0.070 Cl
ATOM     16  C   LIG    1        3.167  14.380  -2.074  0.00  0.00    +0.130 A 
ENDBRANCH   8  16
ENDBRANCH   7   8
ENDBRANCH   6   7
ENDBRANCH   5   6
ENDBRANCH   1   5
BRANCH   2  17
ATOM     17  C   LIG    1       -1.209   7.331   0.085  0.00  0.00    +0.310 C 
BRANCH  17  18
ATOM     18  C   LIG    1       -1.270   5.856  -0.317  0.00  0.00    +0.130 C 
ATOM     19  C   LIG    1       -2.418   5.163   0.430  0.00  0.00    +0.240 C 
ATOM     20  O   LIG    1       -2.438   3.785   0.042  0.00  0.00    -0.300 OA
ATOM     21  C   LIG    1       -1.241   3.136   0.031  0.00  0.00    +0.050 A 
ATOM     22  C   LIG    1       -1.220   1.750   0.017  0.00  0.00    +0.030 A 
ATOM     23  C   LIG    1       -0.013   1.076   0.008  0.00  0.00    +0.020 A 
ATOM     24  C   LIG    1        1.175   1.782   0.000  0.00  0.00    +0.020 A 
ATOM     25  C   LIG    1        1.161   3.164   0.009  0.00  0.00    +0.020 A 
ATOM     26  C   LIG    1       -0.046   3.846   0.026  0.00  0.00    +0.050 A 
ATOM     27  O   LIG    1       -0.045   5.207   0.041  0.00  0.00    -0.300 OA
ENDBRANCH  17  18
ENDBRANCH   2  17
TORSDOF 7
