REMARK  Name = ZINCvU0000000Gfb.0
REMARK                            x       y       z     vdW  Elec       q    Type
REMARK                         _______ _______ _______ _____ _____    ______ ____
ROOT
ATOM      1  C   LIG    1        3.119   6.376   5.535  0.00  0.00    +0.200 A 
ATOM      2  N   LIG    1        4.402   6.679   5.588  0.00  0.00    -0.460 NA
ATOM      3  C   LIG    1        5.334   5.941   4.984  0.00  0.00    +0.140 A 
ATOM      4  C   LIG    1        6.695   6.289   5.058  0.00  0.00    +0.060 A 
ATOM      5  C   LIG    1        7.624   5.516   4.431  0.00  0.00    +0.060 A 
ATOM      6  C   LIG    1        7.250   4.380   3.715  0.00  0.00    -0.090 A 
ATOM      7  C   LIG    1        5.939   4.013   3.622  0.00  0.00    +0.110 A 
ATOM      8 BR   LIG    1        8.576   3.337   2.860  0.00  0.00    -0.040 Br
ATOM      9  C   LIG    1        4.960   4.781   4.258  0.00  0.00    -0.070 A 
ATOM     10  C   LIG    1        3.541   4.427   4.180  0.00  0.00    -0.070 A 
ATOM     11  C   LIG    1        2.642   5.251   4.838  0.00  0.00    +0.030 A 
ENDROOT
BRANCH  10  12
ATOM     12  C   LIG    1        3.087   3.233   3.435  0.00  0.00    +0.570 C 
ATOM     13  N   LIG    1        1.791   2.863   3.480  0.00  0.00    -0.710 N 
ATOM     14  H   LIG    1        1.157   3.380   4.002  0.00  0.00    +0.410 HD
ATOM     15  O   LIG    1        3.881   2.586   2.782  0.00  0.00    -0.520 OA
BRANCH  13  16
ATOM     16  C   LIG    1        1.341   1.681   2.742  0.00  0.00    +0.340 C 
ATOM     17  C   LIG    1        1.576   0.430   3.590  0.00  0.00    +0.050 C 
BRANCH  16  18
ATOM     18  C   LIG    1       -0.128   1.810   2.434  0.00  0.00    +0.190 A 
ATOM     19  N   LIG    1       -1.050   2.199   3.272  0.00  0.00    -0.480 NA
ATOM     20  C   LIG    1       -2.240   2.193   2.655  0.00  0.00    +0.150 A 
ATOM     21  C   LIG    1       -2.049   1.792   1.383  0.00  0.00    +0.130 A 
ATOM     22  N   LIG    1       -0.710   1.543   1.245  0.00  0.00    -0.450 N 
ATOM     23  C   LIG    1       -0.033   1.079   0.031  0.00  0.00    +0.320 C 
ENDBRANCH  16  18
ENDBRANCH  13  16
ENDBRANCH  10  12
BRANCH   1  25
ATOM     24  C   LIG    1        2.585   8.325   6.902  0.00  0.00    +0.100 C 
ATOM     25  C   LIG    1        2.154   7.245   6.230  0.00  0.00    +0.000 C 
BRANCH  24  31
ATOM     26  C   LIG    1        1.632  12.339   9.704  0.00  0.00    +0.090 C 
ATOM     27  C   LIG    1        1.155  11.127   8.947  0.00  0.00    -0.090 A 
ATOM     28  C   LIG    1       -0.196  10.828   8.904  0.00  0.00    +0.010 A 
ATOM     29  C   LIG    1       -0.644   9.716   8.212  0.00  0.00    +0.010 A 
ATOM     30  C   LIG    1        0.254   8.898   7.559  0.00  0.00    +0.020 A 
ATOM     31  C   LIG    1        1.620   9.194   7.597  0.00  0.00    -0.070 A 
ATOM     32  C   LIG    1        2.065  10.315   8.303  0.00  0.00    +0.030 A 
ENDBRANCH  24  31
ENDBRANCH   1  25
TORSDOF 5
