REMARK  Name = ZINCnE000001KGRB.1
REMARK                            x       y       z     vdW  Elec       q    Type
REMARK                         _______ _______ _______ _____ _____    ______ ____
ROOT
ATOM      1  C   LIG    1        3.647   2.162  -0.021  0.00  0.00    +0.270 C 
ATOM      2  C   LIG    1        3.630   3.536  -0.117  0.00  0.00    -0.220 C 
ENDROOT
BRANCH   1   5
ATOM      3  C   LIG    1        1.021  -0.511  -0.038  0.00  0.00    -0.010 A 
ATOM      4  C   LIG    1        2.189   0.172  -0.310  0.00  0.00    +0.000 A 
ATOM      5  C   LIG    1        2.410   1.432   0.264  0.00  0.00    -0.240 A 
ATOM      6  C   LIG    1        1.443   1.991   1.110  0.00  0.00    +0.090 A 
ATOM      7  C   LIG    1        0.280   1.302   1.375  0.00  0.00    -0.170 A 
ATOM      8 CL   LIG    1       -0.921   1.997   2.418  0.00  0.00    -0.090 Cl
ATOM      9  C   LIG    1        0.063   0.052   0.805  0.00  0.00    +0.300 A 
ATOM     10  O   LIG    1       -1.085  -0.622   1.071  0.00  0.00    -0.650 OA
BRANCH   3  12
ATOM     11  C   LIG    1        1.827  -2.250  -1.447  0.00  0.00    +0.200 C 
ATOM     12  O   LIG    1        0.804  -1.733  -0.593  0.00  0.00    -0.300 OA
ENDBRANCH   3  12
ENDBRANCH   1   5
BRANCH   2  13
ATOM     13  C   LIG    1        4.893   4.282  -0.236  0.00  0.00    +0.590 C 
ATOM     14  N   LIG    1        4.876   5.626  -0.331  0.00  0.00    -0.730 N 
ATOM     15  H   LIG    1        4.031   6.102  -0.321  0.00  0.00    +0.400 HD
ATOM     16  O   LIG    1        5.953   3.684  -0.248  0.00  0.00    -0.550 OA
BRANCH  14  17
ATOM     17  C   LIG    1        6.134   6.368  -0.449  0.00  0.00    +0.240 C 
ATOM     18  C   LIG    1        6.710   6.620   0.946  0.00  0.00    +0.000 C 
ATOM     19  C   LIG    1        8.024   7.395   0.823  0.00  0.00    +0.000 C 
ATOM     20  C   LIG    1        7.763   8.733   0.129  0.00  0.00    +0.000 C 
ATOM     21  C   LIG    1        7.187   8.481  -1.266  0.00  0.00    +0.020 C 
ATOM     22  C   LIG    1        5.873   7.706  -1.142  0.00  0.00    +0.010 C 
ENDBRANCH  14  17
ENDBRANCH   2  13
BRANCH   2  23
ATOM     23  C   LIG    1        2.383   4.239  -0.103  0.00  0.00    +0.260 C 
ATOM     24  N   LIG    1        1.393   4.797  -0.091  0.00  0.00    -0.440 NA
ENDBRANCH   2  23
TORSDOF 5
