REMARK  Name = ZINCpk00000xLn07.0
REMARK                            x       y       z     vdW  Elec       q    Type
REMARK                         _______ _______ _______ _____ _____    ______ ____
ROOT
ATOM      1  N   LIG    1       -6.115   0.298   4.669  0.00  0.00    -0.280 N 
ATOM      2  N   LIG    1       -4.858   0.453   5.264  0.00  0.00    -0.240 NA
ATOM      3  C   LIG    1       -3.999   0.811   4.350  0.00  0.00    +0.320 A 
ATOM      4  C   LIG    1       -4.683   0.900   3.116  0.00  0.00    -0.210 A 
ATOM      5  C   LIG    1       -6.003   0.579   3.357  0.00  0.00    +0.070 A 
ENDROOT
BRANCH   1  10
ATOM      6  O   LIG    1      -10.641  -1.147   7.170  0.00  0.00    -0.520 OA
ATOM      7  C   LIG    1       -9.605  -0.817   6.614  0.00  0.00    +0.500 A 
ATOM      8  C   LIG    1       -8.445  -0.555   7.371  0.00  0.00    +0.050 A 
ATOM      9  C   LIG    1       -7.301  -0.194   6.731  0.00  0.00    +0.090 A 
ATOM     10  C   LIG    1       -7.292  -0.078   5.328  0.00  0.00    +0.330 A 
ATOM     11  N   LIG    1       -8.376  -0.324   4.634  0.00  0.00    -0.220 NA
ATOM     12  N   LIG    1       -9.563  -0.702   5.271  0.00  0.00    -0.480 N 
ATOM     13  H   LIG    1      -10.358  -0.881   4.746  0.00  0.00    +0.450 HD
ENDBRANCH   1  10
BRANCH   4  14
ATOM     14  C   LIG    1       -4.097   1.274   1.816  0.00  0.00    +0.580 C 
ATOM     15  N   LIG    1       -2.785   1.570   1.728  0.00  0.00    -0.720 N 
ATOM     16  H   LIG    1       -2.226   1.538   2.521  0.00  0.00    +0.400 HD
ATOM     17  O   LIG    1       -4.797   1.314   0.822  0.00  0.00    -0.510 OA
BRANCH  15  18
ATOM     18  C   LIG    1       -2.203   1.941   0.436  0.00  0.00    +0.350 C 
BRANCH  18  19
ATOM     19  C   LIG    1       -0.732   2.221   0.610  0.00  0.00    -0.210 A 
ATOM     20  C   LIG    1       -0.172   3.408   0.904  0.00  0.00    +0.200 A 
ATOM     21  O   LIG    1        1.160   3.244   0.967  0.00  0.00    -0.170 OA
ATOM     22  C   LIG    1        1.466   1.960   0.722  0.00  0.00    +0.160 A 
ATOM     23  C   LIG    1        0.323   1.286   0.498  0.00  0.00    -0.050 A 
ENDBRANCH  18  19
ENDBRANCH  15  18
ENDBRANCH   4  14
BRANCH   5  24
ATOM     24  C   LIG    1       -7.114   0.544   2.339  0.00  0.00    +0.540 C 
ATOM     25  F   LIG    1       -7.252  -0.758   1.845  0.00  0.00    -0.160 F 
ATOM     26  F   LIG    1       -6.809   1.413   1.286  0.00  0.00    -0.130 F 
ATOM     27  F   LIG    1       -8.312   0.943   2.942  0.00  0.00    -0.150 F 
ENDBRANCH   5  24
TORSDOF 5
