REMARK  Name = ZINCpe000000VKNO.0
REMARK                            x       y       z     vdW  Elec       q    Type
REMARK                         _______ _______ _______ _____ _____    ______ ____
ROOT
ATOM      1  C   LIG    1        1.995  -2.830  -0.783  0.00  0.00    +0.530 C 
ATOM      2  N   LIG    1        1.209  -2.124   0.054  0.00  0.00    -0.560 N 
ATOM      3  C   LIG    1        0.521  -2.776   1.179  0.00  0.00    +0.330 C 
ATOM      4  C   LIG    1       -0.883  -2.237   1.275  0.00  0.00    +0.510 C 
ATOM      5  N   LIG    1       -1.171  -0.987   0.867  0.00  0.00    -0.660 N 
ATOM      6  H   LIG    1       -2.074  -0.645   0.969  0.00  0.00    +0.420 HD
ATOM      7  C   LIG    1       -0.185  -0.175   0.298  0.00  0.00    +0.130 A 
ATOM      8  C   LIG    1       -0.390   1.186   0.141  0.00  0.00    +0.000 A 
ATOM      9  C   LIG    1        0.596   1.970  -0.430  0.00  0.00    +0.030 A 
ATOM     10  C   LIG    1        1.786   1.403  -0.846  0.00  0.00    +0.010 A 
ATOM     11  C   LIG    1        2.000   0.044  -0.693  0.00  0.00    +0.050 A 
ATOM     12  O   LIG    1       -1.764  -2.939   1.725  0.00  0.00    -0.510 OA
ATOM     13  C   LIG    1        1.019  -0.745  -0.121  0.00  0.00    +0.110 A 
ATOM     14  O   LIG    1        2.475  -2.295  -1.760  0.00  0.00    -0.480 OA
ENDROOT
BRANCH   1  15
ATOM     15  C   LIG    1        2.278  -4.284  -0.505  0.00  0.00    +0.140 C 
ATOM     16  C   LIG    1        1.197  -5.148  -1.158  0.00  0.00    +0.070 C 
BRANCH  15  20
ATOM     17  C   LIG    1        6.336  -5.537  -1.000  0.00  0.00    +0.140 C 
ATOM     18  C   LIG    1        5.203  -6.428  -1.518  0.00  0.00    +0.070 C 
ATOM     19  C   LIG    1        3.901  -6.055  -0.806  0.00  0.00    +0.190 C 
ATOM     20  N   LIG    1        3.591  -4.642  -1.058  0.00  0.00    -0.520 NA
ATOM     21  C   LIG    1        4.643  -3.765  -0.526  0.00  0.00    +0.170 C 
ATOM     22  C   LIG    1        5.967  -4.069  -1.230  0.00  0.00    +0.030 C 
BRANCH  17  23
ATOM     23  O   LIG    1        6.524  -5.768   0.398  0.00  0.00    -0.560 OA
ATOM     24  H   LIG    1        7.228  -5.236   0.794  0.00  0.00    +0.380 HD
ENDBRANCH  17  23
BRANCH  17  25
ATOM     25  C   LIG    1        7.628  -5.865  -1.750  0.00  0.00    +0.150 C 
BRANCH  25  27
ATOM     26  C   LIG    1        9.943  -5.260  -1.904  0.00  0.00    +0.200 C 
ATOM     27  O   LIG    1        8.685  -5.033  -1.266  0.00  0.00    -0.390 OA
ENDBRANCH  25  27
ENDBRANCH  17  25
ENDBRANCH  15  20
ENDBRANCH   1  15
TORSDOF 5
