REMARK  Name = ZINCtV000002LOvJ.0
REMARK                            x       y       z     vdW  Elec       q    Type
REMARK                         _______ _______ _______ _____ _____    ______ ____
ROOT
ATOM      1  C   LIG    1        7.243  -3.323   0.529  0.00  0.00    +0.140 C 
ENDROOT
BRANCH   1   5
ATOM      2  C   LIG    1        3.318  -1.813   1.299  0.00  0.00    -0.050 A 
ATOM      3  C   LIG    1        4.100  -1.248   0.293  0.00  0.00    +0.020 A 
ATOM      4  C   LIG    1        5.369  -1.735   0.053  0.00  0.00    +0.040 A 
ATOM      5  C   LIG    1        5.860  -2.791   0.801  0.00  0.00    -0.070 A 
ATOM      6  C   LIG    1        5.086  -3.360   1.796  0.00  0.00    +0.030 A 
ATOM      7  C   LIG    1        3.818  -2.877   2.049  0.00  0.00    +0.030 A 
BRANCH   2  13
ATOM      8  C   LIG    1        1.752   0.090   1.744  0.00  0.00    -0.020 A 
ATOM      9  C   LIG    1        0.465   0.568   1.994  0.00  0.00    +0.070 A 
ATOM     10  C   LIG    1       -0.595  -0.312   2.067  0.00  0.00    +0.020 A 
ATOM     11  C   LIG    1       -0.391  -1.671   1.892  0.00  0.00    +0.040 A 
ATOM     12  C   LIG    1        0.875  -2.162   1.643  0.00  0.00    +0.030 A 
ATOM     13  C   LIG    1        1.957  -1.290   1.566  0.00  0.00    -0.000 A 
BRANCH   8  15
ATOM     14  N   LIG    1        3.732   1.720   1.606  0.00  0.00    -0.400 NA
ATOM     15  C   LIG    1        2.856   0.999   1.667  0.00  0.00    +0.250 C 
ENDBRANCH   8  15
ENDBRANCH   2  13
ENDBRANCH   1   5
BRANCH   1  16
ATOM     16  S   LIG    1        7.151  -4.638  -0.711  0.00  0.00    +0.030 S 
BRANCH  16  17
ATOM     17  C   LIG    1        8.857  -5.065  -0.832  0.00  0.00    +0.160 A 
ATOM     18  N   LIG    1        9.845  -4.518  -0.162  0.00  0.00    -0.280 NA
ATOM     19  N   LIG    1       10.960  -5.066  -0.492  0.00  0.00    -0.260 NA
ATOM     20  C   LIG    1       10.752  -5.999  -1.395  0.00  0.00    +0.260 A 
ATOM     21  N   LIG    1        9.396  -6.030  -1.636  0.00  0.00    -0.430 N 
BRANCH  20  22
ATOM     22  C   LIG    1       11.773  -6.852  -2.025  0.00  0.00    -0.130 A 
ATOM     23  C   LIG    1       13.037  -7.014  -1.578  0.00  0.00    +0.080 A 
ATOM     24  C   LIG    1       13.810  -7.866  -2.337  0.00  0.00    +0.020 A 
ATOM     25  C   LIG    1       13.193  -8.399  -3.396  0.00  0.00    -0.030 A 
ATOM     26  S   LIG    1       11.534  -7.823  -3.471  0.00  0.00    +0.120 S 
ENDBRANCH  20  22
BRANCH  21  27
ATOM     27  C   LIG    1        8.681  -6.912  -2.562  0.00  0.00    +0.190 C 
ATOM     28  C   LIG    1        7.257  -6.517  -2.957  0.00  0.00    +0.070 C 
ATOM     29  C   LIG    1        7.490  -7.698  -2.012  0.00  0.00    +0.060 C 
ENDBRANCH  21  27
ENDBRANCH  16  17
ENDBRANCH   1  16
TORSDOF 7
