REMARK  Name = ZINCvU0000000881.0
REMARK                            x       y       z     vdW  Elec       q    Type
REMARK                         _______ _______ _______ _____ _____    ______ ____
ROOT
ATOM      1  C   LIG    1       -0.016   1.177  -0.144  0.00  0.00    +0.560 C 
ATOM      2  N   LIG    1        1.095   1.899  -0.394  0.00  0.00    -0.570 N 
ATOM      3  O   LIG    1        0.080   0.018   0.211  0.00  0.00    -0.470 OA
ENDROOT
BRANCH   2   4
ATOM      4  C   LIG    1        0.984   3.198  -0.900  0.00  0.00    +0.130 A 
ATOM      5  C   LIG    1        1.141   4.290  -0.056  0.00  0.00    +0.010 A 
ATOM      6  C   LIG    1        1.032   5.571  -0.560  0.00  0.00    +0.010 A 
ATOM      7  C   LIG    1        0.767   5.768  -1.902  0.00  0.00    +0.020 A 
ATOM      8  C   LIG    1        0.611   4.683  -2.746  0.00  0.00    +0.020 A 
ATOM      9  C   LIG    1        0.724   3.399  -2.250  0.00  0.00    -0.070 A 
ATOM     10  C   LIG    1        0.559   2.218  -3.171  0.00  0.00    +0.090 C 
ENDBRANCH   2   4
BRANCH   1  15
ATOM     11  C   LIG    1       -3.625   1.661  -1.076  0.00  0.00    +0.120 A 
ATOM     12  C   LIG    1       -3.850   2.950  -0.612  0.00  0.00    -0.060 A 
ATOM     13  C   LIG    1       -2.832   3.658  -0.000  0.00  0.00    +0.050 A 
ATOM     14  C   LIG    1       -1.587   3.085   0.160  0.00  0.00    +0.010 A 
ATOM     15  C   LIG    1       -1.350   1.792  -0.308  0.00  0.00    -0.080 A 
ATOM     16  C   LIG    1       -2.378   1.079  -0.926  0.00  0.00    +0.040 A 
BRANCH  11  18
ATOM     17  C   LIG    1       -5.890   1.632  -1.798  0.00  0.00    +0.250 C 
ATOM     18  O   LIG    1       -4.630   0.971  -1.677  0.00  0.00    -0.320 OA
ENDBRANCH  11  18
ENDBRANCH   1  15
BRANCH   2  19
ATOM     19  C   LIG    1        2.417   1.324  -0.135  0.00  0.00    +0.380 C 
BRANCH  19  20
ATOM     20  C   LIG    1        2.906   0.613  -1.371  0.00  0.00    -0.200 A 
ATOM     21  C   LIG    1        3.711   1.261  -2.248  0.00  0.00    +0.140 A 
ATOM     22  C   LIG    1        4.173   0.541  -3.437  0.00  0.00    -0.130 A 
ATOM     23  C   LIG    1        5.009   1.155  -4.375  0.00  0.00    +0.070 A 
ATOM     24  C   LIG    1        5.419   0.457  -5.476  0.00  0.00    -0.020 A 
ATOM     25  C   LIG    1        5.013  -0.856  -5.671  0.00  0.00    +0.070 A 
ATOM     26  C   LIG    1        4.189  -1.481  -4.759  0.00  0.00    -0.130 A 
ATOM     27  C   LIG    1        3.756  -2.906  -4.984  0.00  0.00    +0.100 C 
ATOM     28  C   LIG    1        3.759  -0.790  -3.631  0.00  0.00    +0.190 A 
ATOM     29  N   LIG    1        2.936  -1.391  -2.703  0.00  0.00    -0.630 N 
ATOM     30  H   LIG    1        2.651  -2.308  -2.839  0.00  0.00    +0.410 HD
ATOM     31  C   LIG    1        2.520  -0.723  -1.613  0.00  0.00    +0.530 A 
ATOM     32  O   LIG    1        1.792  -1.285  -0.813  0.00  0.00    -0.490 OA
ENDBRANCH  19  20
ENDBRANCH   2  19
TORSDOF 5
