REMARK  Name = ZINCkj000005lkUh.0
REMARK                            x       y       z     vdW  Elec       q    Type
REMARK                         _______ _______ _______ _____ _____    ______ ____
ROOT
ATOM      1  C   LIG    1        0.940   5.836   3.066  0.00  0.00    +0.240 C 
ATOM      2  C   LIG    1       -0.231   6.816   3.178  0.00  0.00    +0.010 C 
ATOM      3  C   LIG    1       -0.072   7.918   2.128  0.00  0.00    +0.030 C 
ATOM      4  C   LIG    1       -0.094   7.298   0.729  0.00  0.00    +0.020 C 
ATOM      5  C   LIG    1        1.085   6.323   0.589  0.00  0.00    +0.270 C 
ATOM      6  N   LIG    1        1.015   5.345   1.683  0.00  0.00    -0.600 N 
ATOM      7  C   LIG    1        1.025   4.022   1.424  0.00  0.00    +0.520 C 
ATOM      8  O   LIG    1        1.072   3.226   2.337  0.00  0.00    -0.530 OA
ENDROOT
BRANCH   1   9
ATOM      9  C   LIG    1        0.721   4.658   4.017  0.00  0.00    +0.070 C 
BRANCH   9  10
ATOM     10  C   LIG    1        0.603   5.176   5.452  0.00  0.00    +0.240 C 
BRANCH  10  11
ATOM     11  N   LIG    1        0.514   4.039   6.378  0.00  0.00    -0.630 N 
ATOM     12  H   LIG    1        1.343   3.471   6.293  0.00  0.00    +0.440 HD
ATOM     13  H   LIG    1       -0.299   3.485   6.153  0.00  0.00    +0.440 HD
ATOM     14  H   LIG    1        0.436   4.381   7.324  0.00  0.00    +0.440 HD
ENDBRANCH  10  11
ENDBRANCH   9  10
ENDBRANCH   1   9
BRANCH   7  15
ATOM     15  C   LIG    1        0.976   3.534  -0.001  0.00  0.00    +0.340 C 
BRANCH  15  16
ATOM     16  N   LIG    1        0.998   2.069  -0.016  0.00  0.00    -0.480 N 
ATOM     17  C   LIG    1       -0.172   1.380   0.024  0.00  0.00    +0.340 A 
ATOM     18  C   LIG    1       -0.177   0.026   0.011  0.00  0.00    -0.200 A 
ATOM     19  C   LIG    1        1.034  -0.678  -0.044  0.00  0.00    +0.150 A 
ATOM     20  C   LIG    1        2.208   0.016  -0.084  0.00  0.00    -0.060 A 
ATOM     21 BR   LIG    1       -1.817  -0.915   0.067  0.00  0.00    -0.010 Br
ATOM     22  C   LIG    1        2.177   1.421  -0.069  0.00  0.00    +0.520 A 
ATOM     23  O   LIG    1        3.220   2.054  -0.104  0.00  0.00    -0.540 OA
ENDBRANCH  15  16
ENDBRANCH   7  15
TORSDOF 5
