REMARK  Name = ZINCrg000000oC1Z.0
REMARK                            x       y       z     vdW  Elec       q    Type
REMARK                         _______ _______ _______ _____ _____    ______ ____
ROOT
ATOM      1  C   LIG    1       -2.934  -0.673  -1.393  0.00  0.00    +0.500 C 
ATOM      2  N   LIG    1       -4.246  -0.471  -1.625  0.00  0.00    -0.610 N 
ATOM      3  C   LIG    1       -5.198  -0.335  -0.512  0.00  0.00    +0.290 C 
ATOM      4  C   LIG    1       -6.021   0.944  -0.734  0.00  0.00    +0.190 C 
ATOM      5  N   LIG    1       -6.631   0.901  -2.070  0.00  0.00    -0.520 NA
ATOM      6  C   LIG    1       -5.607   0.889  -3.123  0.00  0.00    +0.170 C 
ATOM      7  C   LIG    1       -4.766  -0.386  -2.999  0.00  0.00    +0.300 C 
ATOM      8  O   LIG    1       -2.164  -0.788  -2.324  0.00  0.00    -0.510 OA
ENDROOT
BRANCH   1   9
ATOM      9  C   LIG    1       -2.423  -0.757   0.022  0.00  0.00    +0.330 C 
BRANCH   9  18
ATOM     10  C   LIG    1       -0.345  -2.184  -0.006  0.00  0.00    +0.300 A 
ATOM     11  N   LIG    1        0.945  -2.014  -0.018  0.00  0.00    -0.490 NA
ATOM     12  C   LIG    1        1.230  -0.687  -0.013  0.00  0.00    +0.050 A 
ATOM     13  C   LIG    1        2.422   0.043  -0.020  0.00  0.00    +0.070 A 
ATOM     14  C   LIG    1        2.384   1.409  -0.012  0.00  0.00    +0.000 A 
ATOM     15  C   LIG    1        1.172   2.083   0.002  0.00  0.00    +0.030 A 
ATOM     16  C   LIG    1       -0.017   1.384   0.010  0.00  0.00    +0.010 A 
ATOM     17  C   LIG    1        0.002  -0.004   0.002  0.00  0.00    +0.060 A 
ATOM     18  N   LIG    1       -0.975  -0.979   0.006  0.00  0.00    -0.480 N 
BRANCH  10  20
ATOM     19  C   LIG    1       -1.287  -3.967  -1.450  0.00  0.00    +0.040 C 
ATOM     20  C   LIG    1       -1.039  -3.522  -0.007  0.00  0.00    +0.130 C 
ENDBRANCH  10  20
ENDBRANCH   9  18
ENDBRANCH   1   9
BRANCH   5  21
ATOM     21  C   LIG    1       -7.566   2.019  -2.257  0.00  0.00    +0.220 C 
BRANCH  21  22
ATOM     22  C   LIG    1       -8.732   1.861  -1.317  0.00  0.00    +0.520 C 
ATOM     23  N   LIG    1       -9.723   2.775  -1.312  0.00  0.00    -0.710 N 
ATOM     24  H   LIG    1       -9.684   3.535  -1.914  0.00  0.00    +0.400 HD
ATOM     25  O   LIG    1       -8.781   0.910  -0.565  0.00  0.00    -0.520 OA
BRANCH  23  26
ATOM     26  C   LIG    1      -10.857   2.621  -0.398  0.00  0.00    +0.220 C 
ATOM     27  C   LIG    1      -12.257   2.881  -0.959  0.00  0.00    +0.010 C 
ATOM     28  C   LIG    1      -11.618   3.886   0.002  0.00  0.00    +0.010 C 
ENDBRANCH  23  26
ENDBRANCH  21  22
ENDBRANCH   5  21
TORSDOF 6
