REMARK  Name = ZINCrD000000CyA3.0
REMARK                            x       y       z     vdW  Elec       q    Type
REMARK                         _______ _______ _______ _____ _____    ______ ____
ROOT
ATOM      1  O   LIG    1        3.966  -4.216  -1.275  0.00  0.00    -0.520 OA
ATOM      2  C   LIG    1        4.618  -3.194  -1.369  0.00  0.00    +0.580 C 
ATOM      3  N   LIG    1        5.957  -3.260  -1.506  0.00  0.00    -0.610 N 
ATOM      4  C   LIG    1        6.874  -2.111  -1.521  0.00  0.00    +0.270 C 
ATOM      5  C   LIG    1        8.300  -2.665  -1.725  0.00  0.00    +0.080 C 
ATOM      6  C   LIG    1        8.045  -4.049  -2.379  0.00  0.00    +0.160 C 
ATOM      7  C   LIG    1        6.746  -4.496  -1.658  0.00  0.00    +0.270 C 
ENDROOT
BRANCH   2   8
ATOM      8  C   LIG    1        3.943  -1.882  -1.333  0.00  0.00    -0.110 A 
ATOM      9  C   LIG    1        2.549  -1.812  -1.361  0.00  0.00    +0.120 A 
ATOM     10  C   LIG    1        1.917  -0.585  -1.327  0.00  0.00    -0.050 A 
ATOM     11  C   LIG    1        2.671   0.579  -1.266  0.00  0.00    +0.100 A 
ATOM     12  O   LIG    1        2.053   1.794  -1.233  0.00  0.00    -0.310 OA
ATOM     13  C   LIG    1        2.219   2.612  -2.392  0.00  0.00    +0.230 C 
ATOM     14  C   LIG    1        3.519   3.399  -2.316  0.00  0.00    +0.000 C 
ATOM     15  C   LIG    1        4.743   2.497  -2.340  0.00  0.00    +0.230 C 
ATOM     16  O   LIG    1        4.786   1.669  -1.177  0.00  0.00    -0.310 OA
ATOM     17  C   LIG    1        4.059   0.515  -1.238  0.00  0.00    +0.070 A 
ATOM     18 CL   LIG    1        0.184  -0.498  -1.363  0.00  0.00    -0.040 Cl
ATOM     19  C   LIG    1        4.699  -0.707  -1.271  0.00  0.00    +0.060 A 
ENDBRANCH   2   8
BRANCH   6  20
ATOM     20  C   LIG    1        9.176  -5.001  -2.088  0.00  0.00    -0.120 A 
ATOM     21  C   LIG    1        9.425  -5.401  -0.789  0.00  0.00    +0.060 A 
ATOM     22  C   LIG    1       10.460  -6.278  -0.521  0.00  0.00    -0.010 A 
ATOM     23  C   LIG    1       11.253  -6.747  -1.555  0.00  0.00    +0.100 A 
ATOM     24  C   LIG    1       11.006  -6.341  -2.855  0.00  0.00    -0.010 A 
ATOM     25  F   LIG    1       12.268  -7.600  -1.294  0.00  0.00    -0.140 F 
ATOM     26  C   LIG    1        9.968  -5.468  -3.121  0.00  0.00    +0.060 A 
ENDBRANCH   6  20
BRANCH   6  27
ATOM     27  O   LIG    1        7.837  -3.920  -3.787  0.00  0.00    -0.540 OA
ATOM     28  H   LIG    1        7.673  -4.758  -4.239  0.00  0.00    +0.380 HD
ENDBRANCH   6  27
TORSDOF 3
