REMARK  Name = ZINCvU0000000Jju.0
REMARK                            x       y       z     vdW  Elec       q    Type
REMARK                         _______ _______ _______ _____ _____    ______ ____
ROOT
ATOM      1  O   LIG    1        2.738   0.877   2.644  0.00  0.00    -0.510 OA
ATOM      2  C   LIG    1        3.401   1.786   2.188  0.00  0.00    +0.520 C 
ATOM      3  N   LIG    1        3.354   2.058   0.869  0.00  0.00    -0.730 N 
ATOM      4  H   LIG    1        3.884   2.784   0.505  0.00  0.00    +0.400 HD
ENDROOT
BRANCH   3   5
ATOM      5  C   LIG    1        2.504   1.257  -0.015  0.00  0.00    +0.370 C 
BRANCH   5   6
ATOM      6  C   LIG    1        3.049   1.310  -1.419  0.00  0.00    -0.090 A 
ATOM      7  C   LIG    1        3.542   2.498  -1.925  0.00  0.00    +0.010 A 
ATOM      8  C   LIG    1        4.045   2.545  -3.211  0.00  0.00    +0.020 A 
ATOM      9  C   LIG    1        4.048   1.407  -3.995  0.00  0.00    +0.010 A 
ATOM     10  C   LIG    1        3.550   0.220  -3.491  0.00  0.00    +0.020 A 
ATOM     11  C   LIG    1        3.050   0.171  -2.203  0.00  0.00    +0.030 A 
ENDBRANCH   5   6
BRANCH   5  12
ATOM     12  C   LIG    1        1.102   1.808   0.001  0.00  0.00    -0.180 A 
ATOM     13  C   LIG    1       -0.013   1.076   0.008  0.00  0.00    +0.020 A 
ATOM     14  C   LIG    1       -1.190   1.804   0.017  0.00  0.00    +0.010 A 
ATOM     15  C   LIG    1       -1.031   3.129   0.029  0.00  0.00    -0.050 A 
ATOM     16  S   LIG    1        0.685   3.517   0.015  0.00  0.00    +0.100 S 
ENDBRANCH   5  12
ENDBRANCH   3   5
BRANCH   2  17
ATOM     17  C   LIG    1        4.275   2.610   3.098  0.00  0.00    +0.220 C 
BRANCH  17  18
ATOM     18  N   LIG    1        4.150   2.117   4.476  0.00  0.00    -0.520 NA
ATOM     19  C   LIG    1        2.793   2.338   4.993  0.00  0.00    +0.180 C 
ATOM     20  C   LIG    1        2.658   1.685   6.370  0.00  0.00    +0.060 C 
ATOM     21  C   LIG    1        3.692   2.294   7.322  0.00  0.00    +0.080 C 
ATOM     22  C   LIG    1        5.093   2.093   6.737  0.00  0.00    +0.060 C 
ATOM     23  C   LIG    1        5.158   2.734   5.349  0.00  0.00    +0.180 C 
BRANCH  21  24
ATOM     24  C   LIG    1        3.604   1.613   8.663  0.00  0.00    +0.100 A 
ATOM     25  N   LIG    1        3.778   0.359   8.847  0.00  0.00    -0.460 NA
ATOM     26  C   LIG    1        3.673  -0.114  10.103  0.00  0.00    +0.080 A 
ATOM     27  C   LIG    1        3.818  -1.430  10.585  0.00  0.00    +0.080 A 
ATOM     28  C   LIG    1        3.664  -1.700  11.911  0.00  0.00    +0.030 A 
ATOM     29  C   LIG    1        3.363  -0.689  12.812  0.00  0.00    +0.040 A 
ATOM     30  C   LIG    1        3.216   0.607  12.369  0.00  0.00    +0.060 A 
ATOM     31  C   LIG    1        3.369   0.902  11.017  0.00  0.00    -0.180 A 
ATOM     32  S   LIG    1        3.253   2.417  10.127  0.00  0.00    +0.090 S 
ENDBRANCH  21  24
ENDBRANCH  17  18
ENDBRANCH   2  17
TORSDOF 6
