REMARK  Name = ZINCvU00000009L5.0
REMARK                            x       y       z     vdW  Elec       q    Type
REMARK                         _______ _______ _______ _____ _____    ______ ____
ROOT
ATOM      1  C   LIG    1        6.415  -6.909  -5.329  0.00  0.00    +0.250 A 
ATOM      2  C   LIG    1        5.298  -7.727  -5.168  0.00  0.00    -0.070 A 
ATOM      3  C   LIG    1        4.246  -7.307  -4.408  0.00  0.00    +0.090 A 
ATOM      4  C   LIG    1        4.289  -6.050  -3.787  0.00  0.00    -0.180 A 
ATOM      5  C   LIG    1        5.414  -5.228  -3.957  0.00  0.00    +0.110 A 
ATOM      6  C   LIG    1        6.463  -5.659  -4.715  0.00  0.00    -0.080 A 
ENDROOT
BRANCH   4   7
ATOM      7  C   LIG    1        3.163  -5.594  -2.971  0.00  0.00    +0.260 C 
ATOM      8  C   LIG    1        2.447  -6.500  -2.217  0.00  0.00    -0.160 C 
BRANCH   8   9
ATOM      9  C   LIG    1        1.218  -6.076  -1.530  0.00  0.00    +0.580 C 
ATOM     10  N   LIG    1        0.518  -6.961  -0.793  0.00  0.00    -0.720 N 
ATOM     11  H   LIG    1        0.825  -7.878  -0.717  0.00  0.00    +0.400 HD
ATOM     12  O   LIG    1        0.834  -4.926  -1.626  0.00  0.00    -0.530 OA
BRANCH  10  13
ATOM     13  C   LIG    1       -0.706  -6.539  -0.108  0.00  0.00    +0.280 C 
ATOM     14  C   LIG    1       -1.888  -6.630  -1.075  0.00  0.00    +0.040 C 
BRANCH  13  15
ATOM     15  C   LIG    1       -0.954  -7.437   1.076  0.00  0.00    -0.090 A 
ATOM     16  C   LIG    1       -1.415  -6.902   2.264  0.00  0.00    +0.020 A 
ATOM     17  C   LIG    1       -1.643  -7.726   3.351  0.00  0.00    +0.010 A 
ATOM     18  C   LIG    1       -1.411  -9.085   3.248  0.00  0.00    +0.000 A 
ATOM     19  C   LIG    1       -0.950  -9.620   2.060  0.00  0.00    +0.010 A 
ATOM     20  C   LIG    1       -0.722  -8.796   0.974  0.00  0.00    +0.000 A 
ENDBRANCH  13  15
ENDBRANCH  10  13
ENDBRANCH   8   9
BRANCH   8  21
ATOM     21  C   LIG    1        2.900  -7.854  -2.104  0.00  0.00    +0.250 C 
ATOM     22  N   LIG    1        3.260  -8.928  -2.015  0.00  0.00    -0.410 NA
ENDBRANCH   8  21
ENDBRANCH   4   7
BRANCH   1  23
ATOM     23  N   LIG    1        7.484  -7.342  -6.104  0.00  0.00    -0.610 N 
BRANCH  23  25
ATOM     24  C   LIG    1        6.814  -8.516  -8.142  0.00  0.00    +0.020 C 
ATOM     25  C   LIG    1        7.436  -8.655  -6.751  0.00  0.00    +0.270 C 
ENDBRANCH  23  25
BRANCH  23  26
ATOM     26  C   LIG    1        8.659  -6.484  -6.275  0.00  0.00    +0.340 C 
BRANCH  26  27
ATOM     27  C   LIG    1        9.658  -6.777  -5.184  0.00  0.00    -0.110 A 
ATOM     28  C   LIG    1        9.610  -6.073  -3.996  0.00  0.00    +0.020 A 
ATOM     29  C   LIG    1       10.523  -6.346  -2.994  0.00  0.00    +0.000 A 
ATOM     30  C   LIG    1       11.489  -7.315  -3.185  0.00  0.00    +0.000 A 
ATOM     31  C   LIG    1       11.540  -8.015  -4.376  0.00  0.00    +0.000 A 
ATOM     32  C   LIG    1       10.624  -7.747  -5.375  0.00  0.00    +0.010 A 
ENDBRANCH  26  27
ENDBRANCH  23  26
ENDBRANCH   1  23
TORSDOF 9
