REMARK  Name = ZINCpe000000WBi0.0
REMARK                            x       y       z     vdW  Elec       q    Type
REMARK                         _______ _______ _______ _____ _____    ______ ____
ROOT
ATOM      1  N   LIG    1        2.320   3.766   0.000  0.00  0.00    -0.460 N 
ATOM      2  C   LIG    1        2.388   4.704  -1.129  0.00  0.00    +0.210 C 
ATOM      3  C   LIG    1        3.651   5.562  -1.000  0.00  0.00    +0.310 C 
ATOM      4  N   LIG    1        4.811   4.669  -0.862  0.00  0.00    -1.000 NA
ATOM      5  C   LIG    1        4.759   3.612   0.160  0.00  0.00    +0.310 C 
ATOM      6  C   LIG    1        3.453   2.831  -0.015  0.00  0.00    +0.230 C 
ENDROOT
BRANCH   1  11
ATOM      7  C   LIG    1       -1.188   3.152   0.029  0.00  0.00    +0.390 A 
ATOM      8  C   LIG    1       -1.215   1.758   0.017  0.00  0.00    -0.120 A 
ATOM      9  C   LIG    1       -0.013   1.076   0.008  0.00  0.00    +0.380 A 
ATOM     10  N   LIG    1        1.121   1.761   0.001  0.00  0.00    -0.570 NA
ATOM     11  C   LIG    1        1.115   3.086   0.007  0.00  0.00    +0.530 A 
ATOM     12  N   LIG    1       -0.016   3.775   0.022  0.00  0.00    -0.590 NA
BRANCH   7  14
ATOM     13  C   LIG    1       -2.230   5.285   0.050  0.00  0.00    +0.260 C 
ATOM     14  O   LIG    1       -2.343   3.861   0.044  0.00  0.00    -0.300 OA
ENDBRANCH   7  14
ENDBRANCH   1  11
BRANCH   4  15
ATOM     15  S   LIG    1        6.142   4.848  -1.831  0.00  0.00    +2.690 S 
ATOM     16  O   LIG    1        7.232   4.268  -1.128  0.00  0.00    -0.940 OA
ATOM     17  O   LIG    1        6.135   6.198  -2.277  0.00  0.00    -0.940 OA
BRANCH  15  18
ATOM     18  C   LIG    1        5.884   3.851  -3.261  0.00  0.00    -0.660 A 
ATOM     19  C   LIG    1        6.315   2.536  -3.270  0.00  0.00    +0.130 A 
ATOM     20  C   LIG    1        6.112   1.748  -4.384  0.00  0.00    +0.060 A 
ATOM     21  C   LIG    1        5.479   2.284  -5.508  0.00  0.00    +0.030 A 
ATOM     22  C   LIG    1        5.051   3.613  -5.493  0.00  0.00    +0.050 A 
ATOM     23  C   LIG    1        5.256   4.388  -4.371  0.00  0.00    +0.130 A 
BRANCH  21  24
ATOM     24  C   LIG    1        5.269   1.473  -6.669  0.00  0.00    +0.240 C 
ATOM     25  N   LIG    1        5.102   0.830  -7.591  0.00  0.00    -0.390 NA
ENDBRANCH  21  24
ENDBRANCH  15  18
ENDBRANCH   4  15
TORSDOF 5
