REMARK  Name = ZINCpe000000WzJQ.0
REMARK                            x       y       z     vdW  Elec       q    Type
REMARK                         _______ _______ _______ _____ _____    ______ ____
ROOT
ATOM      1  N   LIG    1        5.507  -1.583   1.377  0.00  0.00    -0.720 N 
ATOM      2  H   LIG    1        5.885  -1.881   0.534  0.00  0.00    +0.400 HD
ATOM      3  C   LIG    1        6.155  -1.831   2.532  0.00  0.00    +0.500 C 
ATOM      4  O   LIG    1        5.682  -1.460   3.585  0.00  0.00    -0.520 OA
ENDROOT
BRANCH   1   5
ATOM      5  C   LIG    1        4.230  -0.865   1.393  0.00  0.00    +0.270 C 
BRANCH   5   6
ATOM      6  C   LIG    1        3.710  -0.717  -0.038  0.00  0.00    +0.080 C 
BRANCH   6  12
ATOM      7  C   LIG    1        2.380   1.409  -0.014  0.00  0.00    +0.130 A 
ATOM      8  C   LIG    1        1.170   2.086   0.002  0.00  0.00    -0.080 A 
ATOM      9  C   LIG    1       -0.017   1.378   0.010  0.00  0.00    +0.050 A 
ATOM     10  C   LIG    1        0.002  -0.004   0.002  0.00  0.00    -0.030 A 
ATOM     11  C   LIG    1        1.208  -0.681  -0.013  0.00  0.00    +0.050 A 
ATOM     12  C   LIG    1        2.396   0.022  -0.021  0.00  0.00    -0.120 A 
BRANCH   7  14
ATOM     13  C   LIG    1        3.456   3.530  -0.013  0.00  0.00    +0.250 C 
ATOM     14  O   LIG    1        3.548   2.104  -0.021  0.00  0.00    -0.310 OA
ENDBRANCH   7  14
ENDBRANCH   6  12
ENDBRANCH   5   6
ENDBRANCH   1   5
BRANCH   3  15
ATOM     15  C   LIG    1        7.469  -2.570   2.515  0.00  0.00    +0.420 C 
BRANCH  15  16
ATOM     16  N   LIG    1        7.967  -2.712   3.885  0.00  0.00    -0.450 N 
ATOM     17  N   LIG    1        8.799  -1.811   4.561  0.00  0.00    +0.050 NA
ATOM     18  N   LIG    1        9.026  -2.239   5.699  0.00  0.00    +0.040 NA
ATOM     19  N   LIG    1        8.364  -3.460   5.875  0.00  0.00    -0.390 N 
ATOM     20  C   LIG    1        7.704  -3.733   4.729  0.00  0.00    +0.650 A 
ATOM     21  O   LIG    1        7.010  -4.708   4.501  0.00  0.00    -0.500 OA
BRANCH  19  22
ATOM     22  C   LIG    1        8.379  -4.250   7.029  0.00  0.00    +0.040 A 
ATOM     23  C   LIG    1        9.037  -3.956   8.160  0.00  0.00    +0.010 A 
ATOM     24  C   LIG    1        8.902  -4.893   9.170  0.00  0.00    +0.030 A 
ATOM     25  C   LIG    1        8.139  -5.943   8.866  0.00  0.00    -0.050 A 
ATOM     26  S   LIG    1        7.531  -5.779   7.224  0.00  0.00    +0.200 S 
ENDBRANCH  19  22
ENDBRANCH  15  16
ENDBRANCH   3  15
TORSDOF 7
