REMARK  Name = ZINCqH00000088xg.0
REMARK                            x       y       z     vdW  Elec       q    Type
REMARK                         _______ _______ _______ _____ _____    ______ ____
ROOT
ATOM      1  C   LIG    1        3.483   4.567   2.590  0.00  0.00    +0.190 A 
ATOM      2  C   LIG    1        3.454   5.932   2.341  0.00  0.00    +0.020 A 
ATOM      3  C   LIG    1        2.714   6.427   1.285  0.00  0.00    +0.060 A 
ATOM      4  C   LIG    1        2.002   5.568   0.465  0.00  0.00    -0.010 A 
ATOM      5  C   LIG    1        2.024   4.209   0.693  0.00  0.00    +0.060 A 
ATOM      6  C   LIG    1        2.767   3.693   1.757  0.00  0.00    -0.160 A 
ENDROOT
BRANCH   6   7
ATOM      7  C   LIG    1        2.795   2.240   2.007  0.00  0.00    +0.560 C 
ATOM      8  N   LIG    1        1.641   1.560   2.160  0.00  0.00    -0.600 N 
ATOM      9  C   LIG    1        0.355   2.268   2.197  0.00  0.00    +0.260 C 
ATOM     10  C   LIG    1       -0.396   1.861   3.469  0.00  0.00    +0.010 C 
ATOM     11  C   LIG    1       -0.516   0.336   3.519  0.00  0.00    +0.020 C 
ATOM     12  C   LIG    1        0.881  -0.286   3.563  0.00  0.00    +0.010 C 
ATOM     13  C   LIG    1        1.646   0.097   2.293  0.00  0.00    +0.270 C 
ATOM     14  O   LIG    1        3.859   1.655   2.076  0.00  0.00    -0.530 OA
ENDBRANCH   6   7
BRANCH   1  16
ATOM     15  C   LIG    1        5.275   4.763   4.133  0.00  0.00    +0.570 C 
ATOM     16  N   LIG    1        4.224   4.066   3.657  0.00  0.00    -0.640 N 
ATOM     17  H   LIG    1        3.984   3.216   4.057  0.00  0.00    +0.420 HD
ATOM     18  O   LIG    1        5.640   5.774   3.568  0.00  0.00    -0.470 OA
BRANCH  15  23
ATOM     19  C   LIG    1        6.228   2.767   7.058  0.00  0.00    +0.290 A 
ATOM     20  N   LIG    1        7.266   3.423   7.559  0.00  0.00    -0.490 NA
ATOM     21  C   LIG    1        7.710   4.529   6.990  0.00  0.00    +0.380 A 
ATOM     22  C   LIG    1        7.077   5.007   5.850  0.00  0.00    -0.110 A 
ATOM     23  C   LIG    1        5.986   4.294   5.347  0.00  0.00    +0.160 A 
ATOM     24 CL   LIG    1        7.627   6.457   5.069  0.00  0.00    +0.010 Cl
ATOM     25  N   LIG    1        5.592   3.190   5.978  0.00  0.00    -0.470 NA
BRANCH  19  27
ATOM     26  C   LIG    1        6.864   1.214   9.220  0.00  0.00    +0.140 C 
ATOM     27  S   LIG    1        5.676   1.296   7.856  0.00  0.00    +0.030 S 
ENDBRANCH  19  27
ENDBRANCH  15  23
ENDBRANCH   1  16
TORSDOF 4
