REMARK  Name = ZINCqH00000086JZ.0
REMARK                            x       y       z     vdW  Elec       q    Type
REMARK                         _______ _______ _______ _____ _____    ______ ____
ROOT
ATOM      1  C   LIG    1        2.395   3.193  -0.446  0.00  0.00    +0.590 C 
ATOM      2  N   LIG    1        1.710   2.047  -0.264  0.00  0.00    -0.600 N 
ATOM      3  C   LIG    1        0.296   1.824  -0.617  0.00  0.00    +0.280 C 
ATOM      4  C   LIG    1        0.171   0.292  -0.808  0.00  0.00    +0.030 C 
ATOM      5  C   LIG    1        1.118  -0.238   0.301  0.00  0.00    +0.040 C 
ATOM      6  C   LIG    1        2.251   0.810   0.319  0.00  0.00    +0.210 C 
ATOM      7  O   LIG    1        3.585   3.236  -0.205  0.00  0.00    -0.520 OA
ENDROOT
BRANCH   1  12
ATOM      8  C   LIG    1       -0.265   5.404  -1.647  0.00  0.00    +0.120 A 
ATOM      9  C   LIG    1        0.391   6.619  -1.855  0.00  0.00    +0.030 A 
ATOM     10  C   LIG    1        1.745   6.710  -1.592  0.00  0.00    +0.090 A 
ATOM     11  C   LIG    1        2.408   5.584  -1.122  0.00  0.00    +0.040 A 
ATOM     12  C   LIG    1        1.696   4.402  -0.942  0.00  0.00    +0.090 A 
ATOM     13  N   LIG    1        0.395   4.349  -1.204  0.00  0.00    -0.460 NA
BRANCH   8  15
ATOM     14  C   LIG    1       -2.361   3.551  -1.564  0.00  0.00    +0.150 C 
ATOM     15  S   LIG    1       -1.991   5.278  -1.979  0.00  0.00    -0.060 S 
ENDBRANCH   8  15
ENDBRANCH   1  12
BRANCH   6  16
ATOM     16  C   LIG    1        2.702   1.064   1.759  0.00  0.00    +0.300 C 
BRANCH  16  17
ATOM     17  N   LIG    1        3.303  -0.156   2.305  0.00  0.00    -0.480 N 
ATOM     18  C   LIG    1        4.610  -0.568   2.142  0.00  0.00    +0.050 A 
ATOM     19  C   LIG    1        5.713  -0.044   1.482  0.00  0.00    +0.010 A 
ATOM     20  C   LIG    1        6.914  -0.723   1.515  0.00  0.00    +0.030 A 
ATOM     21  C   LIG    1        7.025  -1.923   2.202  0.00  0.00    +0.000 A 
ATOM     22  C   LIG    1        5.949  -2.453   2.857  0.00  0.00    +0.060 A 
ATOM     23  C   LIG    1        4.723  -1.783   2.838  0.00  0.00    +0.050 A 
ATOM     24  N   LIG    1        3.505  -2.045   3.378  0.00  0.00    -0.490 NA
ATOM     25  C   LIG    1        2.676  -1.090   3.070  0.00  0.00    +0.280 A 
ATOM     26  C   LIG    1        1.232  -1.030   3.496  0.00  0.00    +0.190 C 
ENDBRANCH  16  17
ENDBRANCH   6  16
TORSDOF 4
