REMARK  Name = ZINCqH0000001lsy.0
REMARK                            x       y       z     vdW  Elec       q    Type
REMARK                         _______ _______ _______ _____ _____    ______ ____
ROOT
ATOM      1  N   LIG    1       -2.954   1.285   0.196  0.00  0.00    -0.720 N 
ATOM      2  H   LIG    1       -3.579   2.026   0.218  0.00  0.00    +0.400 HD
ATOM      3  C   LIG    1       -2.809   0.559  -0.931  0.00  0.00    +0.540 C 
ATOM      4  O   LIG    1       -2.095  -0.421  -0.934  0.00  0.00    -0.520 OA
ENDROOT
BRANCH   1   5
ATOM      5  C   LIG    1       -2.166   0.954   1.386  0.00  0.00    +0.290 C 
BRANCH   5   6
ATOM      6  C   LIG    1       -2.846   1.512   2.609  0.00  0.00    -0.090 A 
ATOM      7  C   LIG    1       -3.426   2.766   2.566  0.00  0.00    +0.000 A 
ATOM      8  C   LIG    1       -4.053   3.277   3.687  0.00  0.00    +0.010 A 
ATOM      9  C   LIG    1       -4.092   2.538   4.854  0.00  0.00    +0.000 A 
ATOM     10  C   LIG    1       -3.507   1.286   4.899  0.00  0.00    +0.020 A 
ATOM     11  C   LIG    1       -2.884   0.773   3.777  0.00  0.00    +0.020 A 
ENDBRANCH   5   6
BRANCH   5  12
ATOM     12  C   LIG    1       -0.768   1.561   1.257  0.00  0.00    +0.020 C 
BRANCH  12  14
ATOM     13  C   LIG    1        1.455   1.804   2.372  0.00  0.00    +0.010 C 
ATOM     14  C   LIG    1        0.101   1.093   2.426  0.00  0.00    -0.020 C 
ATOM     15  C   LIG    1        0.315  -0.419   2.329  0.00  0.00    +0.020 C 
ENDBRANCH  12  14
ENDBRANCH   5  12
ENDBRANCH   1   5
BRANCH   3  16
ATOM     16  C   LIG    1       -3.535   0.967  -2.188  0.00  0.00    +0.100 C 
BRANCH  16  17
ATOM     17  S   LIG    1       -3.140  -0.197  -3.517  0.00  0.00    +0.120 S 
BRANCH  17  18
ATOM     18  C   LIG    1       -4.093   0.498  -4.825  0.00  0.00    +0.190 A 
ATOM     19  N   LIG    1       -4.856   1.567  -4.754  0.00  0.00    -0.340 NA
ATOM     20  N   LIG    1       -5.408   1.803  -5.889  0.00  0.00    -0.030 NA
ATOM     21  N   LIG    1       -5.054   0.913  -6.753  0.00  0.00    -0.070 NA
ATOM     22  N   LIG    1       -4.183   0.029  -6.092  0.00  0.00    -0.350 N 
BRANCH  22  23
ATOM     23  C   LIG    1       -3.517  -1.149  -6.654  0.00  0.00    +0.260 C 
ATOM     24  C   LIG    1       -2.652  -0.740  -7.864  0.00  0.00    +0.030 C 
ATOM     25  C   LIG    1       -2.812  -1.916  -8.859  0.00  0.00    +0.040 C 
ATOM     26  C   LIG    1       -4.300  -2.309  -8.690  0.00  0.00    +0.030 C 
ATOM     27  C   LIG    1       -4.564  -2.147  -7.178  0.00  0.00    +0.040 C 
ENDBRANCH  22  23
ENDBRANCH  17  18
ENDBRANCH  16  17
ENDBRANCH   3  16
TORSDOF 8
