REMARK  Name = ZINCrH000004rrkY.0
REMARK                            x       y       z     vdW  Elec       q    Type
REMARK                         _______ _______ _______ _____ _____    ______ ____
ROOT
ATOM      1  C   LIG    1       -1.987   9.563  -0.178  0.00  0.00    -0.680 A 
ATOM      2  C   LIG    1       -0.843  10.338  -0.238  0.00  0.00    +0.160 A 
ATOM      3  C   LIG    1        0.402   9.760  -0.058  0.00  0.00    +0.000 A 
ATOM      4  C   LIG    1        0.508   8.407   0.190  0.00  0.00    +0.110 A 
ATOM      5  C   LIG    1       -0.643   7.619   0.246  0.00  0.00    -0.150 A 
ATOM      6  C   LIG    1       -1.895   8.208   0.063  0.00  0.00    +0.200 A 
ENDROOT
BRANCH   5   7
ATOM      7  C   LIG    1       -0.536   6.167   0.505  0.00  0.00    +0.550 C 
ATOM      8  N   LIG    1        0.674   5.601   0.681  0.00  0.00    -0.660 N 
ATOM      9  H   LIG    1        1.469   6.156   0.712  0.00  0.00    +0.420 HD
ATOM     10  O   LIG    1       -1.540   5.484   0.558  0.00  0.00    -0.460 OA
BRANCH   8  11
ATOM     11  C   LIG    1        0.783   4.219   0.820  0.00  0.00    +0.360 A 
ATOM     12  C   LIG    1        2.041   3.632   0.893  0.00  0.00    -0.070 A 
ATOM     13  C   LIG    1        2.135   2.258   1.037  0.00  0.00    +0.090 A 
ATOM     14  C   LIG    1        0.963   1.516   1.091  0.00  0.00    -0.060 A 
ATOM     15  C   LIG    1       -0.253   2.166   1.012  0.00  0.00    +0.290 A 
ATOM     16  N   LIG    1       -0.312   3.478   0.881  0.00  0.00    -0.480 NA
ENDBRANCH   8  11
ENDBRANCH   5   7
BRANCH   1  17
ATOM     17  S   LIG    1       -3.567  10.309  -0.409  0.00  0.00    +2.690 S 
ATOM     18  O   LIG    1       -4.440   9.274  -0.839  0.00  0.00    -0.940 OA
ATOM     19  O   LIG    1       -3.344  11.498  -1.155  0.00  0.00    -0.940 OA
BRANCH  17  20
ATOM     20  N   LIG    1       -4.106  10.787   1.082  0.00  0.00    -1.050 N 
ATOM     21  H   LIG    1       -4.935  10.428   1.435  0.00  0.00    +0.430 HD
BRANCH  20  26
ATOM     22  C   LIG    1       -1.106  14.516   4.123  0.00  0.00    +0.090 C 
ATOM     23  C   LIG    1       -1.903  13.525   3.315  0.00  0.00    -0.090 A 
ATOM     24  C   LIG    1       -1.956  13.642   1.938  0.00  0.00    +0.030 A 
ATOM     25  C   LIG    1       -2.686  12.735   1.194  0.00  0.00    -0.010 A 
ATOM     26  C   LIG    1       -3.367  11.705   1.831  0.00  0.00    +0.140 A 
ATOM     27  C   LIG    1       -3.316  11.594   3.215  0.00  0.00    -0.100 A 
ATOM     28  C   LIG    1       -4.058  10.483   3.911  0.00  0.00    +0.080 C 
ATOM     29  C   LIG    1       -2.580  12.501   3.952  0.00  0.00    +0.030 A 
ENDBRANCH  20  26
ENDBRANCH  17  20
ENDBRANCH   1  17
TORSDOF 5
