REMARK  Name = ZINCrD000000f8ua.0
REMARK                            x       y       z     vdW  Elec       q    Type
REMARK                         _______ _______ _______ _____ _____    ______ ____
ROOT
ATOM      1  N   LIG    1        3.857  -5.239   1.210  0.00  0.00    -0.720 N 
ATOM      2  H   LIG    1        4.706  -4.824   0.993  0.00  0.00    +0.400 HD
ATOM      3  C   LIG    1        2.713  -4.537   1.090  0.00  0.00    +0.540 C 
ATOM      4  O   LIG    1        1.651  -5.057   1.361  0.00  0.00    -0.500 OA
ENDROOT
BRANCH   1   5
ATOM      5  C   LIG    1        3.818  -6.631   1.667  0.00  0.00    +0.440 C 
BRANCH   5   6
ATOM      6  C   LIG    1        5.032  -7.362   1.155  0.00  0.00    -0.120 A 
ATOM      7  C   LIG    1        6.181  -6.660   0.843  0.00  0.00    +0.070 A 
ATOM      8  C   LIG    1        7.297  -7.330   0.379  0.00  0.00    +0.040 A 
ATOM      9  C   LIG    1        7.262  -8.703   0.215  0.00  0.00    -0.000 A 
ATOM     10  C   LIG    1        6.111  -9.407   0.521  0.00  0.00    +0.010 A 
ATOM     11 CL   LIG    1        8.662  -9.543  -0.374  0.00  0.00    -0.050 Cl
ATOM     12  C   LIG    1        4.995  -8.736   0.992  0.00  0.00    +0.130 A 
ATOM     13  F   LIG    1        3.871  -9.423   1.291  0.00  0.00    -0.120 F 
ENDBRANCH   5   6
BRANCH   5  15
ATOM     14  C   LIG    1        3.803  -6.690   4.312  0.00  0.00    +0.070 C 
ATOM     15  C   LIG    1        3.809  -6.664   3.138  0.00  0.00    -0.210 C 
ENDBRANCH   5  15
ENDBRANCH   1   5
BRANCH   3  16
ATOM     16  C   LIG    1        2.752  -3.106   0.620  0.00  0.00    +0.090 C 
BRANCH  16  17
ATOM     17  S   LIG    1        1.066  -2.441   0.564  0.00  0.00    -0.090 S 
BRANCH  17  18
ATOM     18  C   LIG    1        1.317  -0.740  -0.015  0.00  0.00    +0.010 C 
ATOM     19  C   LIG    1        1.871  -0.762  -1.441  0.00  0.00    +0.070 C 
BRANCH  18  20
ATOM     20  C   LIG    1        0.002  -0.004   0.002  0.00  0.00    +0.550 C 
ATOM     21  N   LIG    1       -0.016   1.344   0.009  0.00  0.00    -0.630 N 
ATOM     22  H   LIG    1        0.817   1.840   0.004  0.00  0.00    +0.420 HD
ATOM     23  O   LIG    1       -1.040  -0.625   0.009  0.00  0.00    -0.490 OA
BRANCH  21  24
ATOM     24  C   LIG    1       -1.234   2.025   0.019  0.00  0.00    +0.240 A 
ATOM     25  N   LIG    1       -1.408   3.320   0.033  0.00  0.00    -0.390 NA
ATOM     26  O   LIG    1       -2.582   3.608   0.035  0.00  0.00    +0.100 OA
ATOM     27  C   LIG    1       -3.362   2.518   0.033  0.00  0.00    -0.020 A 
ATOM     28  C   LIG    1       -4.869   2.487   0.040  0.00  0.00    +0.190 C 
ATOM     29  C   LIG    1       -2.532   1.450   0.022  0.00  0.00    -0.040 A 
ENDBRANCH  21  24
ENDBRANCH  18  20
ENDBRANCH  17  18
ENDBRANCH  16  17
ENDBRANCH   3  16
TORSDOF 8
