REMARK  Name = ZINCpk00000KcSUF.2
REMARK                            x       y       z     vdW  Elec       q    Type
REMARK                         _______ _______ _______ _____ _____    ______ ____
ROOT
ATOM      1  C   LIG    1        2.368  -2.627   0.114  0.00  0.00    +0.220 A 
ATOM      2  N   LIG    1        2.062  -3.898   0.091  0.00  0.00    -0.320 NA
ATOM      3  N   LIG    1        0.787  -4.056   0.070  0.00  0.00    -0.040 NA
ATOM      4  N   LIG    1        0.196  -2.911   0.082  0.00  0.00    -0.070 NA
ATOM      5  N   LIG    1        1.208  -1.935   0.106  0.00  0.00    -0.320 N 
ENDROOT
BRANCH   5   6
ATOM      6  C   LIG    1        1.047  -0.542   0.123  0.00  0.00    +0.110 A 
ATOM      7  C   LIG    1        1.519   0.226  -0.932  0.00  0.00    -0.060 A 
ATOM      8  C   LIG    1        1.359   1.598  -0.912  0.00  0.00    +0.030 A 
ATOM      9  C   LIG    1        0.731   2.207   0.159  0.00  0.00    +0.050 A 
ATOM     10  C   LIG    1        0.260   1.444   1.212  0.00  0.00    +0.030 A 
ATOM     11  C   LIG    1        2.204  -0.436  -2.100  0.00  0.00    +0.090 C 
ATOM     12  C   LIG    1        0.417   0.072   1.197  0.00  0.00    -0.040 A 
ATOM     13  C   LIG    1       -0.097  -0.758   2.345  0.00  0.00    +0.100 C 
ENDBRANCH   5   6
BRANCH   1  14
ATOM     14  C   LIG    1        3.756  -2.043   0.142  0.00  0.00    +0.350 C 
BRANCH  14  18
ATOM     15  N   LIG    1        4.154  -2.606   4.310  0.00  0.00    -0.530 NA
ATOM     16  C   LIG    1        5.097  -3.307   3.428  0.00  0.00    +0.180 C 
ATOM     17  C   LIG    1        4.512  -3.379   2.015  0.00  0.00    +0.200 C 
ATOM     18  N   LIG    1        4.249  -2.019   1.526  0.00  0.00    -0.510 NA
ATOM     19  C   LIG    1        3.306  -1.318   2.409  0.00  0.00    +0.170 C 
ATOM     20  C   LIG    1        3.892  -1.245   3.821  0.00  0.00    +0.160 C 
ATOM     21  C   LIG    1        2.895  -0.552   4.752  0.00  0.00    +0.040 C 
BRANCH  15  22
ATOM     22  C   LIG    1        4.647  -2.582   5.694  0.00  0.00    +0.230 C 
BRANCH  22  23
ATOM     23  C   LIG    1        5.950  -1.783   5.758  0.00  0.00    +0.120 C 
BRANCH  23  25
ATOM     24  C   LIG    1        6.833   0.435   5.541  0.00  0.00    +0.200 C 
ATOM     25  O   LIG    1        5.676  -0.404   5.505  0.00  0.00    -0.380 OA
ENDBRANCH  23  25
ENDBRANCH  22  23
ENDBRANCH  15  22
ENDBRANCH  14  18
ENDBRANCH   1  14
TORSDOF 6
