REMARK  Name = ZINCvU000000056T.0
REMARK                            x       y       z     vdW  Elec       q    Type
REMARK                         _______ _______ _______ _____ _____    ______ ____
ROOT
ATOM      1  C   LIG    1       -7.274   1.253   0.360  0.00  0.00    -0.680 A 
ATOM      2  C   LIG    1       -7.432  -0.120   0.407  0.00  0.00    +0.160 A 
ATOM      3  C   LIG    1       -6.351  -0.956   0.191  0.00  0.00    +0.010 A 
ATOM      4  C   LIG    1       -5.107  -0.423  -0.078  0.00  0.00    +0.110 A 
ATOM      5  C   LIG    1       -4.939   0.962  -0.121  0.00  0.00    -0.160 A 
ATOM      6  C   LIG    1       -6.034   1.799   0.098  0.00  0.00    +0.210 A 
ENDROOT
BRANCH   5   7
ATOM      7  C   LIG    1       -3.608   1.540  -0.404  0.00  0.00    +0.560 C 
ATOM      8  N   LIG    1       -2.552   0.729  -0.615  0.00  0.00    -0.660 N 
ATOM      9  H   LIG    1       -2.678  -0.232  -0.647  0.00  0.00    +0.410 HD
ATOM     10  O   LIG    1       -3.466   2.746  -0.446  0.00  0.00    -0.500 OA
BRANCH   8  11
ATOM     11  C   LIG    1       -1.280   1.272  -0.786  0.00  0.00    +0.160 A 
ATOM     12  C   LIG    1       -1.119   2.483  -1.427  0.00  0.00    +0.030 A 
ATOM     13  C   LIG    1        0.147   3.033  -1.596  0.00  0.00    +0.060 A 
ATOM     14  C   LIG    1        1.260   2.393  -1.143  0.00  0.00    +0.030 A 
ATOM     15  C   LIG    1        1.143   1.153  -0.491  0.00  0.00    +0.140 A 
ATOM     16  N   LIG    1        2.223   0.509  -0.038  0.00  0.00    -0.470 NA
ATOM     17  C   LIG    1        2.122  -0.648   0.571  0.00  0.00    +0.290 A 
ATOM     18  C   LIG    1        0.889  -1.261   0.778  0.00  0.00    -0.030 A 
ATOM     19  C   LIG    1       -0.256  -0.654   0.340  0.00  0.00    +0.070 A 
ATOM     20  C   LIG    1       -0.142   0.585  -0.313  0.00  0.00    -0.110 A 
ENDBRANCH   8  11
ENDBRANCH   5   7
BRANCH   1  21
ATOM     21  S   LIG    1       -8.658   2.308   0.636  0.00  0.00    +2.690 S 
ATOM     22  O   LIG    1       -8.132   3.555   1.071  0.00  0.00    -0.930 OA
ATOM     23  O   LIG    1       -9.593   1.552   1.394  0.00  0.00    -0.940 OA
BRANCH  21  24
ATOM     24  N   LIG    1       -9.364   2.585  -0.835  0.00  0.00    -1.050 N 
ATOM     25  H   LIG    1       -9.436   3.491  -1.176  0.00  0.00    +0.430 HD
BRANCH  24  31
ATOM     26  C   LIG    1      -11.574  -1.802  -1.006  0.00  0.00    +0.110 C 
ATOM     27  C   LIG    1      -10.933  -0.625  -1.696  0.00  0.00    -0.040 A 
ATOM     28  C   LIG    1      -10.832  -0.605  -3.075  0.00  0.00    +0.010 A 
ATOM     29  C   LIG    1      -10.244   0.473  -3.713  0.00  0.00    +0.080 A 
ATOM     30  C   LIG    1       -9.756   1.533  -2.973  0.00  0.00    -0.120 A 
ATOM     31  C   LIG    1       -9.857   1.515  -1.587  0.00  0.00    +0.190 A 
ATOM     32 BR   LIG    1       -8.953   3.005  -3.846  0.00  0.00    -0.040 Br
ATOM     33  C   LIG    1      -10.442   0.429  -0.950  0.00  0.00    +0.000 A 
ENDBRANCH  24  31
ENDBRANCH  21  24
ENDBRANCH   1  21
TORSDOF 5
