REMARK  Name = ZINCpe000000Yk35.0
REMARK                            x       y       z     vdW  Elec       q    Type
REMARK                         _______ _______ _______ _____ _____    ______ ____
ROOT
ATOM      1  C   LIG    1       -0.739   1.584  -1.215  0.00  0.00    +0.520 C 
ATOM      2  N   LIG    1       -2.027   1.241  -1.420  0.00  0.00    -0.640 N 
ATOM      3  H   LIG    1       -2.485   0.674  -0.780  0.00  0.00    +0.410 HD
ATOM      4  O   LIG    1       -0.166   2.293  -2.014  0.00  0.00    -0.520 OA
ENDROOT
BRANCH   1  11
ATOM      5  C   LIG    1        0.980   0.740   5.925  0.00  0.00    +0.350 C 
ATOM      6  N   LIG    1        0.923   0.889   4.469  0.00  0.00    -0.380 N 
ATOM      7  C   LIG    1        1.955   0.719   3.612  0.00  0.00    +0.230 A 
ATOM      8  C   LIG    1        1.494   0.947   2.369  0.00  0.00    -0.240 A 
ATOM      9  C   LIG    1        2.251   0.887   1.064  0.00  0.00    +0.110 C 
ATOM     10  C   LIG    1        1.423   1.614  -0.003  0.00  0.00    +0.050 C 
ATOM     11  C   LIG    1       -0.013   1.086   0.008  0.00  0.00    +0.010 C 
ATOM     12  C   LIG    1       -0.737   1.579   1.267  0.00  0.00    +0.150 C 
ATOM     13  C   LIG    1        0.129   1.266   2.462  0.00  0.00    +0.080 A 
ATOM     14  N   LIG    1       -0.211   1.233   3.718  0.00  0.00    -0.290 NA
ENDBRANCH   1  11
BRANCH   2  15
ATOM     15  C   LIG    1       -2.705   1.707  -2.562  0.00  0.00    +0.010 A 
ATOM     16  C   LIG    1       -3.995   1.439  -2.889  0.00  0.00    +0.190 A 
ATOM     17  N   LIG    1       -4.261   2.074  -4.061  0.00  0.00    -0.370 N 
ATOM     18  N   LIG    1       -3.099   2.747  -4.458  0.00  0.00    -0.280 NA
ATOM     19  C   LIG    1       -2.171   2.534  -3.561  0.00  0.00    +0.270 A 
BRANCH  17  20
ATOM     20  C   LIG    1       -5.537   2.058  -4.780  0.00  0.00    +0.280 C 
ATOM     21  C   LIG    1       -6.467   3.130  -4.202  0.00  0.00    +0.030 C 
ATOM     22  C   LIG    1       -7.715   3.215  -5.085  0.00  0.00    +0.090 C 
ATOM     23  C   LIG    1       -8.265   1.839  -5.325  0.00  0.00    +0.520 C 
ATOM     24  N   LIG    1       -7.565   0.721  -5.128  0.00  0.00    -0.720 N 
ATOM     25  H   LIG    1       -7.990  -0.125  -5.340  0.00  0.00    +0.410 HD
ATOM     26  O   LIG    1       -9.408   1.738  -5.720  0.00  0.00    -0.550 OA
ATOM     27  C   LIG    1       -6.202   0.691  -4.614  0.00  0.00    +0.270 C 
ENDBRANCH  17  20
ENDBRANCH   2  15
TORSDOF 3
