REMARK  Name = ZINCrg000000qHhC.0
REMARK                            x       y       z     vdW  Elec       q    Type
REMARK                         _______ _______ _______ _____ _____    ______ ____
ROOT
ATOM      1  C   LIG    1       -0.787   2.893   1.346  0.00  0.00    +0.140 A 
ATOM      2  C   LIG    1       -0.259   3.737   0.395  0.00  0.00    +0.070 A 
ATOM      3  C   LIG    1       -0.361   5.133   0.547  0.00  0.00    -0.100 A 
ATOM      4  C   LIG    1       -1.012   5.616   1.691  0.00  0.00    -0.610 A 
ATOM      5  S   LIG    1       -0.930   7.377   1.511  0.00  0.00    +2.660 S 
ATOM      6  N   LIG    1       -0.110   7.477   0.057  0.00  0.00    -0.910 N 
ATOM      7  O   LIG    1       -0.066   7.870   2.525  0.00  0.00    -0.900 OA
ATOM      8  O   LIG    1       -2.253   7.846   1.289  0.00  0.00    -0.920 OA
ATOM      9  C   LIG    1       -1.536   4.781   2.635  0.00  0.00    +0.110 A 
ATOM     10  C   LIG    1        0.119   6.212  -0.323  0.00  0.00    +0.550 C 
ATOM     11  O   LIG    1        0.707   5.967  -1.358  0.00  0.00    -0.460 OA
ATOM     12  C   LIG    1       -1.435   3.402   2.471  0.00  0.00    +0.130 A 
ENDROOT
BRANCH   1  14
ATOM     13  C   LIG    1       -0.013   1.086   0.008  0.00  0.00    +0.250 C 
ATOM     14  O   LIG    1       -0.682   1.547   1.184  0.00  0.00    -0.290 OA
ENDBRANCH   1  14
BRANCH  12  15
ATOM     15  O   LIG    1       -1.958   2.562   3.401  0.00  0.00    -0.290 OA
ATOM     16  C   LIG    1       -2.606   3.160   4.525  0.00  0.00    +0.240 C 
ENDBRANCH  12  15
BRANCH   6  17
ATOM     17  C   LIG    1        0.278   8.697  -0.655  0.00  0.00    +0.380 C 
BRANCH  17  18
ATOM     18  C   LIG    1        1.695   9.061  -0.292  0.00  0.00    +0.490 C 
ATOM     19  N   LIG    1        2.268  10.155  -0.831  0.00  0.00    -0.610 N 
ATOM     20  C   LIG    1        1.514  10.991  -1.769  0.00  0.00    +0.300 C 
ATOM     21  O   LIG    1        2.319   8.370   0.485  0.00  0.00    -0.500 OA
BRANCH  19  22
ATOM     22  C   LIG    1        3.645  10.509  -0.479  0.00  0.00    +0.410 C 
BRANCH  22  23
ATOM     23  C   LIG    1        4.596   9.846  -1.441  0.00  0.00    -0.040 A 
ATOM     24  C   LIG    1        5.037  10.370  -2.599  0.00  0.00    -0.050 A 
ATOM     25  C   LIG    1        5.904   9.416  -3.177  0.00  0.00    -0.070 A 
ATOM     26  C   LIG    1        5.942   8.365  -2.338  0.00  0.00    +0.170 A 
ATOM     27  O   LIG    1        5.153   8.634  -1.286  0.00  0.00    -0.160 OA
ENDBRANCH  22  23
ENDBRANCH  19  22
ENDBRANCH  17  18
ENDBRANCH   6  17
TORSDOF 6
