REMARK  Name = ZINCrD0000073EVq.0
REMARK                            x       y       z     vdW  Elec       q    Type
REMARK                         _______ _______ _______ _____ _____    ______ ____
ROOT
ATOM      1  C   LIG    1       -2.453   0.577  -0.065  0.00  0.00    +0.190 C 
ATOM      2  C   LIG    1       -2.358  -0.517  -1.131  0.00  0.00    +0.070 C 
ENDROOT
BRANCH   1   3
ATOM      3  C   LIG    1       -1.247   1.476  -0.159  0.00  0.00    +0.520 C 
ATOM      4  N   LIG    1       -0.011   0.966   0.007  0.00  0.00    -0.670 N 
ATOM      5  H   LIG    1        0.109   0.009   0.110  0.00  0.00    +0.410 HD
ATOM      6  O   LIG    1       -1.390   2.659  -0.385  0.00  0.00    -0.490 OA
BRANCH   4   7
ATOM      7  C   LIG    1        1.100   1.816   0.026  0.00  0.00    +0.150 A 
ATOM      8  C   LIG    1        0.990   3.095   0.554  0.00  0.00    +0.020 A 
ATOM      9  C   LIG    1        2.089   3.929   0.571  0.00  0.00    +0.030 A 
ATOM     10  C   LIG    1        3.303   3.497   0.062  0.00  0.00    -0.110 A 
ATOM     11  C   LIG    1        4.635   4.210  -0.034  0.00  0.00    +0.080 C 
ATOM     12  C   LIG    1        5.674   3.094  -0.271  0.00  0.00    +0.030 C 
ATOM     13  C   LIG    1        4.831   1.994  -0.951  0.00  0.00    +0.080 C 
ATOM     14  C   LIG    1        3.416   2.223  -0.465  0.00  0.00    -0.080 A 
ATOM     15  C   LIG    1        2.318   1.381  -0.478  0.00  0.00    -0.010 A 
ENDBRANCH   4   7
ENDBRANCH   1   3
BRANCH   1  16
ATOM     16  O   LIG    1       -3.658   1.358  -0.279  0.00  0.00    -0.320 OA
BRANCH  16  17
ATOM     17  C   LIG    1       -4.777   0.940   0.343  0.00  0.00    +0.540 C 
ATOM     18  O   LIG    1       -4.748  -0.052   1.046  0.00  0.00    -0.490 OA
BRANCH  17  24
ATOM     19  C   LIG    1       -6.913   1.355  -0.873  0.00  0.00    +0.210 A 
ATOM     20  C   LIG    1       -8.097   2.058  -1.022  0.00  0.00    -0.110 A 
ATOM     21  C   LIG    1       -8.411   3.085  -0.152  0.00  0.00    +0.130 A 
ATOM     22  C   LIG    1       -7.552   3.420   0.878  0.00  0.00    -0.110 A 
ATOM     23  C   LIG    1       -6.364   2.727   1.049  0.00  0.00    +0.210 A 
ATOM     24  C   LIG    1       -6.035   1.682   0.172  0.00  0.00    -0.180 A 
BRANCH  19  26
ATOM     25  C   LIG    1       -7.546   0.073  -2.770  0.00  0.00    +0.260 C 
ATOM     26  O   LIG    1       -6.605   0.350  -1.731  0.00  0.00    -0.310 OA
ENDBRANCH  19  26
BRANCH  23  27
ATOM     27  O   LIG    1       -5.523   3.057   2.060  0.00  0.00    -0.310 OA
ATOM     28  C   LIG    1       -5.923   4.132   2.913  0.00  0.00    +0.260 C 
ENDBRANCH  23  27
ENDBRANCH  17  24
ENDBRANCH  16  17
ENDBRANCH   1  16
TORSDOF 7
