REMARK  Name = ZINCpe000000XTrI.0
REMARK                            x       y       z     vdW  Elec       q    Type
REMARK                         _______ _______ _______ _____ _____    ______ ____
ROOT
ATOM      1  C   LIG    1        3.495   2.275   0.042  0.00  0.00    +0.180 C 
ENDROOT
BRANCH   1   7
ATOM      2  C   LIG    1        7.760   0.159   1.585  0.00  0.00    +0.090 C 
ATOM      3  C   LIG    1        6.801   0.503   0.475  0.00  0.00    -0.080 A 
ATOM      4  C   LIG    1        7.082   0.123  -0.824  0.00  0.00    +0.000 A 
ATOM      5  C   LIG    1        6.203   0.438  -1.843  0.00  0.00    +0.000 A 
ATOM      6  C   LIG    1        5.040   1.131  -1.562  0.00  0.00    +0.030 A 
ATOM      7  C   LIG    1        4.761   1.516  -0.263  0.00  0.00    -0.080 A 
ATOM      8  C   LIG    1        5.640   1.200   0.755  0.00  0.00    +0.000 A 
ENDBRANCH   1   7
BRANCH   1   9
ATOM      9  N   LIG    1        3.248   3.262  -1.017  0.00  0.00    -0.520 NA
ATOM     10  C   LIG    1        4.368   4.208  -1.127  0.00  0.00    +0.150 C 
ATOM     11  C   LIG    1        4.097   5.179  -2.279  0.00  0.00    +0.220 C 
ATOM     12  O   LIG    1        2.849   5.841  -2.055  0.00  0.00    -0.380 OA
ATOM     13  C   LIG    1        1.737   4.949  -1.944  0.00  0.00    +0.220 C 
ATOM     14  C   LIG    1        1.984   3.975  -0.788  0.00  0.00    +0.150 C 
ENDBRANCH   1   9
BRANCH   1  15
ATOM     15  C   LIG    1        2.320   1.298   0.114  0.00  0.00    +0.300 C 
BRANCH  15  16
ATOM     16  N   LIG    1        2.523   0.370   1.228  0.00  0.00    -0.710 N 
ATOM     17  H   LIG    1        3.276   0.490   1.828  0.00  0.00    +0.410 HD
ATOM     18  C   LIG    1        1.664  -0.651   1.421  0.00  0.00    +0.590 C 
ATOM     19  O   LIG    1        0.721  -0.801   0.669  0.00  0.00    -0.520 OA
BRANCH  18  20
ATOM     20  C   LIG    1        1.866  -1.585   2.550  0.00  0.00    +0.020 A 
ATOM     21  N   LIG    1        2.890  -1.423   3.358  0.00  0.00    -0.180 NA
ATOM     22  N   LIG    1        3.106  -2.204   4.354  0.00  0.00    -0.440 N 
ATOM     23  H   LIG    1        3.873  -2.040   4.924  0.00  0.00    +0.440 HD
ATOM     24  C   LIG    1        2.299  -3.246   4.627  0.00  0.00    +0.480 A 
ATOM     25  C   LIG    1        1.178  -3.493   3.804  0.00  0.00    -0.010 A 
ATOM     26  O   LIG    1        2.533  -3.971   5.579  0.00  0.00    -0.520 OA
ATOM     27  C   LIG    1        0.959  -2.653   2.753  0.00  0.00    +0.140 A 
ENDBRANCH  18  20
ENDBRANCH  15  16
ENDBRANCH   1  15
TORSDOF 5
