REMARK  Name = ZINCkj000005jMLf.2
REMARK                            x       y       z     vdW  Elec       q    Type
REMARK                         _______ _______ _______ _____ _____    ______ ____
ROOT
ATOM      1  C   LIG    1        2.040   1.127  -1.261  0.00  0.00    +0.120 C 
ATOM      2  C   LIG    1        1.204   1.464  -2.498  0.00  0.00    +0.250 C 
ATOM      3  N   LIG    1        1.904   0.993  -3.702  0.00  0.00    -0.380 N 
ATOM      4  C   LIG    1        2.095  -0.461  -3.619  0.00  0.00    +0.230 C 
ATOM      5  C   LIG    1        2.929  -0.794  -2.379  0.00  0.00    +0.260 C 
ATOM      6  H   LIG    1        1.354   1.214  -4.518  0.00  0.00    +0.430 HD
ATOM      7  O   LIG    1        2.270  -0.284  -1.216  0.00  0.00    -0.350 OA
ENDROOT
BRANCH   1   9
ATOM      8  C   LIG    1        2.064   1.114   1.238  0.00  0.00    +0.030 C 
ATOM      9  C   LIG    1        1.286   1.562  -0.002  0.00  0.00    +0.240 C 
BRANCH   9  10
ATOM     10  O   LIG    1       -0.011   0.963   0.007  0.00  0.00    -0.550 OA
ATOM     11  H   LIG    1        0.002  -0.004   0.002  0.00  0.00    +0.390 HD
ENDBRANCH   9  10
ENDBRANCH   1   9
BRANCH   3  12
ATOM     12  C   LIG    1        3.212   1.654  -3.798  0.00  0.00    +0.310 C 
BRANCH  12  13
ATOM     13  C   LIG    1        3.877   1.266  -5.093  0.00  0.00    -0.160 A 
ATOM     14  C   LIG    1        4.853   0.290  -5.099  0.00  0.00    +0.040 A 
ATOM     15  C   LIG    1        5.461  -0.069  -6.288  0.00  0.00    +0.030 A 
ATOM     16  C   LIG    1        5.098   0.557  -7.463  0.00  0.00    +0.060 A 
ATOM     17  C   LIG    1        4.122   1.543  -7.457  0.00  0.00    -0.110 A 
ATOM     18  C   LIG    1        3.761   2.211  -8.758  0.00  0.00    +0.290 C 
ATOM     19  O   LIG    1        2.519   2.902  -8.631  0.00  0.00    -0.370 OA
ATOM     20  C   LIG    1        2.481   3.789  -7.507  0.00  0.00    +0.240 C 
ATOM     21  C   LIG    1        2.436   2.951  -6.228  0.00  0.00    +0.040 C 
ATOM     22  C   LIG    1        3.510   1.895  -6.272  0.00  0.00    -0.050 A 
ENDBRANCH  12  13
ENDBRANCH   3  12
TORSDOF 4
