REMARK  Name = ZINCkj000005jMLf.1
REMARK                            x       y       z     vdW  Elec       q    Type
REMARK                         _______ _______ _______ _____ _____    ______ ____
ROOT
ATOM      1  C   LIG    1       -3.832   2.659   2.768  0.00  0.00    +0.120 C 
ATOM      2  C   LIG    1       -3.214   2.746   1.370  0.00  0.00    +0.250 C 
ATOM      3  N   LIG    1       -1.929   2.032   1.360  0.00  0.00    -0.390 N 
ATOM      4  C   LIG    1       -2.151   0.622   1.712  0.00  0.00    +0.230 C 
ATOM      5  C   LIG    1       -2.772   0.539   3.108  0.00  0.00    +0.260 C 
ATOM      6  H   LIG    1       -1.305   2.452   2.032  0.00  0.00    +0.420 HD
ATOM      7  O   LIG    1       -3.993   1.284   3.127  0.00  0.00    -0.350 OA
ENDROOT
BRANCH   1   9
ATOM      8  C   LIG    1       -5.869   3.154   4.127  0.00  0.00    +0.030 C 
ATOM      9  C   LIG    1       -5.197   3.349   2.766  0.00  0.00    +0.240 C 
BRANCH   9  10
ATOM     10  O   LIG    1       -6.018   2.780   1.744  0.00  0.00    -0.550 OA
ATOM     11  H   LIG    1       -6.178   1.833   1.849  0.00  0.00    +0.390 HD
ENDBRANCH   9  10
ENDBRANCH   1   9
BRANCH   3  12
ATOM     12  C   LIG    1       -1.334   2.114   0.020  0.00  0.00    +0.320 C 
BRANCH  12  13
ATOM     13  C   LIG    1        0.047   1.510   0.046  0.00  0.00    -0.160 A 
ATOM     14  C   LIG    1        0.242   0.221  -0.408  0.00  0.00    +0.040 A 
ATOM     15  C   LIG    1        1.508  -0.335  -0.380  0.00  0.00    +0.030 A 
ATOM     16  C   LIG    1        2.571   0.401   0.102  0.00  0.00    +0.060 A 
ATOM     17  C   LIG    1        2.377   1.695   0.560  0.00  0.00    -0.110 A 
ATOM     18  C   LIG    1        3.562   2.463   1.086  0.00  0.00    +0.290 C 
ATOM     19  O   LIG    1        3.255   3.855   1.161  0.00  0.00    -0.360 OA
ATOM     20  C   LIG    1        2.040   4.126   1.869  0.00  0.00    +0.230 C 
ATOM     21  C   LIG    1        0.864   3.656   1.012  0.00  0.00    +0.040 C 
ATOM     22  C   LIG    1        1.114   2.249   0.530  0.00  0.00    -0.060 A 
ENDBRANCH  12  13
ENDBRANCH   3  12
TORSDOF 4
