REMARK  Name = ZINCpe00000gM5XH.0
REMARK                            x       y       z     vdW  Elec       q    Type
REMARK                         _______ _______ _______ _____ _____    ______ ____
ROOT
ATOM      1  S   LIG    1       -1.826   4.028   2.055  0.00  0.00    +2.690 S 
ATOM      2  O   LIG    1       -1.603   5.121   1.174  0.00  0.00    -0.940 OA
ATOM      3  O   LIG    1       -1.285   3.965   3.367  0.00  0.00    -0.950 OA
ENDROOT
BRANCH   1   8
ATOM      4  C   LIG    1       -5.487   3.149   3.483  0.00  0.00    -0.150 A 
ATOM      5  C   LIG    1       -6.326   3.651   2.487  0.00  0.00    +0.100 A 
ATOM      6  C   LIG    1       -5.783   4.261   1.375  0.00  0.00    +0.000 A 
ATOM      7  C   LIG    1       -4.410   4.379   1.248  0.00  0.00    +0.150 A 
ATOM      8  C   LIG    1       -3.573   3.878   2.229  0.00  0.00    -0.690 A 
ATOM      9  C   LIG    1       -4.103   3.267   3.346  0.00  0.00    +0.190 A 
BRANCH   4  12
ATOM     10  C   LIG    1       -7.689   2.409   6.490  0.00  0.00    +0.290 C 
ATOM     11  N   LIG    1       -7.179   2.992   5.246  0.00  0.00    -0.620 N 
ATOM     12  C   LIG    1       -6.063   2.495   4.678  0.00  0.00    +0.560 C 
ATOM     13  O   LIG    1       -5.529   1.508   5.146  0.00  0.00    -0.530 OA
ATOM     14  C   LIG    1       -7.882   4.114   4.621  0.00  0.00    +0.290 C 
ENDBRANCH   4  12
ENDBRANCH   1   8
BRANCH   1  15
ATOM     15  N   LIG    1       -1.294   2.674   1.264  0.00  0.00    -1.110 NA
ATOM     16  H   LIG    1       -0.708   2.047   1.717  0.00  0.00    +0.420 HD
BRANCH  15  17
ATOM     17  C   LIG    1       -1.708   2.423  -0.118  0.00  0.00    +0.280 C 
ATOM     18  C   LIG    1       -0.641   2.956  -1.083  0.00  0.00    +0.050 C 
ATOM     19  C   LIG    1        0.708   2.339  -0.711  0.00  0.00    +0.070 C 
ATOM     20  C   LIG    1        0.587   0.848  -0.588  0.00  0.00    +0.520 C 
ATOM     21  N   LIG    1       -0.578   0.218  -0.403  0.00  0.00    -0.710 N 
ATOM     22  H   LIG    1       -0.573  -0.746  -0.301  0.00  0.00    +0.400 HD
ATOM     23  O   LIG    1        1.597   0.180  -0.659  0.00  0.00    -0.550 OA
ATOM     24  C   LIG    1       -1.856   0.918  -0.354  0.00  0.00    +0.140 C 
ATOM     25  C   LIG    1       -2.884   0.258   0.575  0.00  0.00    +0.030 C 
ATOM     26  C   LIG    1       -3.940   0.582  -0.496  0.00  0.00    +0.020 C 
ATOM     27  C   LIG    1       -2.792   0.571  -1.520  0.00  0.00    +0.030 C 
ENDBRANCH  15  17
ENDBRANCH   1  15
TORSDOF 4
