REMARK  Name = ZINCvU00000008ug.0
REMARK                            x       y       z     vdW  Elec       q    Type
REMARK                         _______ _______ _______ _____ _____    ______ ____
ROOT
ATOM      1  C   LIG    1       -1.197  -0.917   0.009  0.00  0.00    +0.110 C 
ENDROOT
BRANCH   1   2
ATOM      2  C   LIG    1        0.002  -0.004   0.002  0.00  0.00    -0.160 A 
ATOM      3  C   LIG    1       -0.016   1.338   0.009  0.00  0.00    +0.230 A 
ATOM      4  N   LIG    1        1.264   1.822  -0.000  0.00  0.00    -0.590 N 
ATOM      5  H   LIG    1        1.504   2.762   0.003  0.00  0.00    +0.420 HD
ATOM      6  C   LIG    1        2.159   0.777  -0.014  0.00  0.00    +0.100 A 
ATOM      7  C   LIG    1        3.549   0.706  -0.028  0.00  0.00    -0.010 A 
ATOM      8  C   LIG    1        4.171  -0.523  -0.041  0.00  0.00    +0.020 A 
ATOM      9  C   LIG    1        3.426  -1.694  -0.040  0.00  0.00    -0.020 A 
ATOM     10  C   LIG    1        2.060  -1.648  -0.026  0.00  0.00    +0.050 A 
ATOM     11  C   LIG    1        1.409  -0.413  -0.014  0.00  0.00    -0.100 A 
ENDBRANCH   1   2
BRANCH   1  15
ATOM     12  C   LIG    1       -3.517  -0.194   3.525  0.00  0.00    +0.130 A 
ATOM     13  C   LIG    1       -2.981  -1.453   3.292  0.00  0.00    -0.020 A 
ATOM     14  C   LIG    1       -2.231  -1.684   2.155  0.00  0.00    +0.060 A 
ATOM     15  C   LIG    1       -2.015  -0.662   1.249  0.00  0.00    -0.110 A 
ATOM     16  C   LIG    1       -2.544   0.594   1.481  0.00  0.00    +0.050 A 
ATOM     17  C   LIG    1       -3.299   0.829   2.614  0.00  0.00    -0.080 A 
BRANCH  12  19
ATOM     18  C   LIG    1       -4.776   1.355   4.816  0.00  0.00    +0.250 C 
ATOM     19  O   LIG    1       -4.255   0.035   4.642  0.00  0.00    -0.320 OA
ENDBRANCH  12  19
ENDBRANCH   1  15
BRANCH   1  20
ATOM     20  C   LIG    1       -2.052  -0.646  -1.231  0.00  0.00    +0.270 C 
BRANCH  20  21
ATOM     21  N   LIG    1       -1.297  -1.007  -2.433  0.00  0.00    -0.720 N 
ATOM     22  H   LIG    1       -0.396  -1.358  -2.353  0.00  0.00    +0.400 HD
ATOM     23  C   LIG    1       -1.853  -0.852  -3.651  0.00  0.00    +0.520 C 
ATOM     24  O   LIG    1       -2.980  -0.413  -3.751  0.00  0.00    -0.530 OA
BRANCH  23  25
ATOM     25  C   LIG    1       -1.077  -1.224  -4.887  0.00  0.00    +0.110 C 
BRANCH  25  26
ATOM     26  C   LIG    1       -1.919  -0.956  -6.108  0.00  0.00    -0.090 A 
ATOM     27  C   LIG    1       -2.740  -1.949  -6.614  0.00  0.00    +0.130 A 
ATOM     28  C   LIG    1       -3.518  -1.700  -7.732  0.00  0.00    -0.010 A 
ATOM     29  C   LIG    1       -3.465  -0.465  -8.350  0.00  0.00    +0.060 A 
ATOM     30  C   LIG    1       -2.639   0.524  -7.849  0.00  0.00    +0.020 A 
ATOM     31  F   LIG    1       -2.788  -3.158  -6.013  0.00  0.00    -0.130 F 
ATOM     32  C   LIG    1       -1.867   0.279  -6.728  0.00  0.00    +0.000 A 
ATOM     33 CL   LIG    1       -0.831   1.523  -6.099  0.00  0.00    -0.050 Cl
ENDBRANCH  25  26
ENDBRANCH  23  25
ENDBRANCH  20  21
ENDBRANCH   1  20
TORSDOF 7
