REMARK  Name = ZINCpe000027pHek.0
REMARK                            x       y       z     vdW  Elec       q    Type
REMARK                         _______ _______ _______ _____ _____    ______ ____
ROOT
ATOM      1  C   LIG    1        7.054  -0.388  -1.693  0.00  0.00    +0.590 C 
ATOM      2  N   LIG    1        5.808  -0.204  -1.212  0.00  0.00    -0.610 N 
ATOM      3  C   LIG    1        5.287  -1.044  -0.123  0.00  0.00    +0.300 C 
ATOM      4  C   LIG    1        3.925  -1.602  -0.548  0.00  0.00    +0.230 C 
ATOM      5  N   LIG    1        3.049  -0.494  -0.950  0.00  0.00    -0.450 N 
ATOM      6  C   LIG    1        3.585   0.210  -2.123  0.00  0.00    +0.200 C 
ATOM      7  C   LIG    1        4.934   0.843  -1.762  0.00  0.00    +0.290 C 
ATOM      8  O   LIG    1        7.765  -1.257  -1.223  0.00  0.00    -0.510 OA
ENDROOT
BRANCH   1  15
ATOM      9  C   LIG    1        9.478   2.603  -6.352  0.00  0.00    +0.100 A 
ATOM     10  C   LIG    1        8.638   3.624  -5.912  0.00  0.00    -0.020 A 
ATOM     11  C   LIG    1        7.825   3.440  -4.818  0.00  0.00    +0.040 A 
ATOM     12  C   LIG    1        7.837   2.225  -4.138  0.00  0.00    +0.080 A 
ATOM     13  N   LIG    1        7.153   1.757  -3.038  0.00  0.00    -0.580 N 
ATOM     14  H   LIG    1        6.498   2.257  -2.526  0.00  0.00    +0.420 HD
ATOM     15  C   LIG    1        7.553   0.460  -2.785  0.00  0.00    +0.020 A 
ATOM     16  C   LIG    1        8.486   0.094  -3.703  0.00  0.00    +0.050 A 
ATOM     17  C   LIG    1        8.683   1.190  -4.578  0.00  0.00    -0.080 A 
ATOM     18  C   LIG    1        9.506   1.391  -5.694  0.00  0.00    +0.040 A 
BRANCH   9  20
ATOM     19  C   LIG    1       10.198   4.080  -8.072  0.00  0.00    +0.230 C 
ATOM     20  O   LIG    1       10.275   2.802  -7.436  0.00  0.00    -0.320 OA
ENDBRANCH   9  20
ENDBRANCH   1  15
BRANCH   5  21
ATOM     21  C   LIG    1        1.761  -0.940  -1.186  0.00  0.00    +0.480 A 
ATOM     22  N   LIG    1        1.340  -2.182  -1.074  0.00  0.00    -0.590 NA
ATOM     23  C   LIG    1        0.039  -2.244  -1.379  0.00  0.00    +0.490 A 
ATOM     24  N   LIG    1       -0.384  -1.042  -1.688  0.00  0.00    -0.360 NA
ATOM     25  N   LIG    1        0.716  -0.178  -1.570  0.00  0.00    -0.490 N 
ATOM     26  H   LIG    1        0.723   0.778  -1.733  0.00  0.00    +0.440 HD
BRANCH  23  27
ATOM     27  N   LIG    1       -0.741  -3.401  -1.369  0.00  0.00    -0.820 N 
ATOM     28  H   LIG    1       -0.344  -4.252  -1.127  0.00  0.00    +0.420 HD
ATOM     29  H   LIG    1       -1.681  -3.354  -1.606  0.00  0.00    +0.420 HD
ENDBRANCH  23  27
ENDBRANCH   5  21
TORSDOF 4
