REMARK  Name = ZINCrg00000fSukN.0
REMARK                            x       y       z     vdW  Elec       q    Type
REMARK                         _______ _______ _______ _____ _____    ______ ____
ROOT
ATOM      1  C   LIG    1       -2.053   9.195  -0.963  0.00  0.00    +0.180 C 
ENDROOT
BRANCH   1   2
ATOM      2  C   LIG    1       -1.737   7.757  -0.642  0.00  0.00    +0.440 A 
ATOM      3  N   LIG    1       -1.454   7.460   0.593  0.00  0.00    -0.530 NA
ATOM      4  C   LIG    1       -1.155   6.206   1.001  0.00  0.00    +0.550 A 
ATOM      5  C   LIG    1       -1.169   5.171  -0.056  0.00  0.00    -0.220 A 
ATOM      6  C   LIG    1       -1.479   5.550  -1.357  0.00  0.00    +0.050 A 
ATOM      7  S   LIG    1       -1.428   4.158  -2.406  0.00  0.00    +0.180 S 
ATOM      8  C   LIG    1       -0.993   3.087  -1.081  0.00  0.00    -0.200 A 
ATOM      9  C   LIG    1       -0.758   1.595  -1.228  0.00  0.00    +0.120 C 
ATOM     10  C   LIG    1       -0.013   1.086   0.008  0.00  0.00    +0.030 C 
ATOM     11  C   LIG    1       -0.734   1.582   1.265  0.00  0.00    +0.020 C 
ATOM     12  C   LIG    1       -0.531   3.092   1.395  0.00  0.00    +0.110 C 
ATOM     13  C   LIG    1       -0.896   3.758   0.074  0.00  0.00    -0.030 A 
ATOM     14  O   LIG    1       -0.892   5.946   2.164  0.00  0.00    -0.460 OA
ATOM     15  N   LIG    1       -1.768   6.865  -1.656  0.00  0.00    -0.580 N 
ATOM     16  H   LIG    1       -1.985   7.139  -2.561  0.00  0.00    +0.430 HD
ENDBRANCH   1   2
BRANCH   1  18
ATOM     17  N   LIG    1       -4.636   9.552  -0.911  0.00  0.00    -0.360 NA
ATOM     18  C   LIG    1       -3.511   9.396  -0.934  0.00  0.00    +0.200 C 
ENDBRANCH   1  18
BRANCH   1  19
ATOM     19  C   LIG    1       -1.401  10.092   0.058  0.00  0.00    +0.350 C 
ATOM     20  O   LIG    1       -1.148   9.668   1.160  0.00  0.00    -0.320 OA
BRANCH  19  21
ATOM     21  C   LIG    1       -1.067  11.518  -0.296  0.00  0.00    +0.150 C 
ATOM     22  C   LIG    1       -2.329  12.396  -0.187  0.00  0.00    +0.030 C 
ATOM     23  C   LIG    1       -1.949  13.479   0.852  0.00  0.00    +0.050 C 
ATOM     24  C   LIG    1       -0.400  13.441   0.809  0.00  0.00    +0.170 C 
ATOM     25  O   LIG    1       -0.100  12.038   0.632  0.00  0.00    -0.320 OA
BRANCH  24  26
ATOM     26  C   LIG    1        0.179  13.953   2.103  0.00  0.00    +0.520 C 
ATOM     27  O   LIG    1        0.810  13.207   2.821  0.00  0.00    -0.510 OA
ATOM     28  N   LIG    1       -0.004  15.239   2.461  0.00  0.00    -0.850 N 
ATOM     29  H   LIG    1        0.369  15.568   3.294  0.00  0.00    +0.410 HD
ATOM     30  H   LIG    1       -0.509  15.835   1.887  0.00  0.00    +0.400 HD
ENDBRANCH  24  26
ENDBRANCH  19  21
ENDBRANCH   1  19
TORSDOF 5
