REMARK  Name = ZINCkj00000y7yCS.0
REMARK                            x       y       z     vdW  Elec       q    Type
REMARK                         _______ _______ _______ _____ _____    ______ ____
ROOT
ATOM      1  N   LIG    1        1.786   1.850   2.326  0.00  0.00    -0.490 NA
ATOM      2  C   LIG    1        2.675   0.881   1.662  0.00  0.00    +0.230 C 
ATOM      3  C   LIG    1        2.397   0.954   0.142  0.00  0.00    +0.010 C 
ATOM      4  C   LIG    1        3.688   1.421  -0.531  0.00  0.00    +0.220 C 
ATOM      5  O   LIG    1        3.408   1.889  -1.850  0.00  0.00    -0.360 OA
ATOM      6  C   LIG    1        2.623   3.080  -1.855  0.00  0.00    +0.220 C 
ATOM      7  C   LIG    1        1.278   2.815  -1.239  0.00  0.00    +0.030 C 
ATOM      8  C   LIG    1        1.280   1.980   0.001  0.00  0.00    -0.070 C 
ATOM      9  C   LIG    1        1.304   2.798   1.297  0.00  0.00    +0.230 C 
ENDROOT
BRANCH   1  15
ATOM     10  C   LIG    1        2.208   3.054   7.078  0.00  0.00    +0.210 C 
ATOM     11  C   LIG    1        2.687   3.125   5.651  0.00  0.00    +0.180 C 
ATOM     12  N   LIG    1        3.761   3.835   5.358  0.00  0.00    -0.440 NA
ATOM     13  C   LIG    1        4.221   3.928   4.125  0.00  0.00    +0.370 C 
ATOM     14  C   LIG    1        3.593   3.276   3.084  0.00  0.00    +0.020 C 
ATOM     15  C   LIG    1        2.452   2.519   3.349  0.00  0.00    +0.230 C 
ATOM     16  H   LIG    1        4.226   4.301   6.070  0.00  0.00    +0.460 HD
ATOM     17  C   LIG    1        1.998   2.446   4.667  0.00  0.00    -0.060 C 
ATOM     18 CL   LIG    1        0.587   1.515   5.062  0.00  0.00    +0.050 Cl
ENDBRANCH   1  15
BRANCH   8  19
ATOM     19  C   LIG    1       -0.014   1.209   0.009  0.00  0.00    +0.530 C 
ATOM     20  O   LIG    1        0.002  -0.004   0.002  0.00  0.00    -0.520 OA
ATOM     21  N   LIG    1       -1.191   1.867   0.018  0.00  0.00    -0.850 N 
ATOM     22  H   LIG    1       -1.204   2.837   0.023  0.00  0.00    +0.400 HD
ATOM     23  H   LIG    1       -2.024   1.370   0.019  0.00  0.00    +0.410 HD
ENDBRANCH   8  19
TORSDOF 2
