REMARK  Name = ZINCvU00000003VC.0
REMARK                            x       y       z     vdW  Elec       q    Type
REMARK                         _______ _______ _______ _____ _____    ______ ____
ROOT
ATOM      1  C   LIG    1        0.588  -4.235  -0.046  0.00  0.00    +0.190 A 
ATOM      2  N   LIG    1        0.212  -2.975  -0.049  0.00  0.00    -0.270 NA
ATOM      3  N   LIG    1        1.348  -2.160  -0.074  0.00  0.00    -0.300 N 
ATOM      4  C   LIG    1        2.453  -2.925  -0.077  0.00  0.00    +0.300 A 
ATOM      5  C   LIG    1        2.054  -4.246  -0.060  0.00  0.00    -0.280 A 
ENDROOT
BRANCH   1   9
ATOM      6  C   LIG    1       -1.965  -7.640   0.019  0.00  0.00    +0.120 A 
ATOM      7  C   LIG    1       -0.859  -7.586   0.853  0.00  0.00    -0.040 A 
ATOM      8  C   LIG    1       -0.030  -6.483   0.835  0.00  0.00    +0.100 A 
ATOM      9  C   LIG    1       -0.303  -5.420  -0.025  0.00  0.00    -0.030 A 
ATOM     10  C   LIG    1       -1.418  -5.470  -0.860  0.00  0.00    +0.000 A 
ATOM     11  C   LIG    1       -2.243  -6.580  -0.842  0.00  0.00    +0.090 A 
BRANCH   6  13
ATOM     12  C   LIG    1       -2.436  -9.777   0.947  0.00  0.00    +0.240 C 
ATOM     13  O   LIG    1       -2.780  -8.728   0.041  0.00  0.00    -0.300 OA
ENDBRANCH   6  13
BRANCH  11  14
ATOM     14  O   LIG    1       -3.328  -6.635  -1.660  0.00  0.00    -0.300 OA
ATOM     15  C   LIG    1       -3.553  -5.513  -2.516  0.00  0.00    +0.240 C 
ENDBRANCH  11  14
ENDBRANCH   1   9
BRANCH   3  16
ATOM     16  C   LIG    1        1.335  -0.760  -0.088  0.00  0.00    +0.140 A 
ATOM     17  C   LIG    1        0.128  -0.074  -0.083  0.00  0.00    +0.030 A 
ATOM     18  C   LIG    1        0.119   1.307  -0.096  0.00  0.00    +0.050 A 
ATOM     19  C   LIG    1        1.311   2.007  -0.114  0.00  0.00    +0.010 A 
ATOM     20  C   LIG    1        2.515   1.327  -0.120  0.00  0.00    +0.050 A 
ATOM     21  C   LIG    1        2.531  -0.053  -0.106  0.00  0.00    -0.010 A 
ENDBRANCH   3  16
BRANCH   5  22
ATOM     22  C   LIG    1        2.927  -5.432  -0.058  0.00  0.00    +0.600 C 
ATOM     23  N   LIG    1        4.262  -5.285  -0.171  0.00  0.00    -0.670 N 
ATOM     24  H   LIG    1        4.654  -4.398  -0.173  0.00  0.00    +0.410 HD
ATOM     25  O   LIG    1        2.443  -6.543   0.047  0.00  0.00    -0.500 OA
BRANCH  23  26
ATOM     26  C   LIG    1        5.082  -6.413  -0.286  0.00  0.00    +0.180 A 
ATOM     27  C   LIG    1        4.567  -7.599  -0.791  0.00  0.00    +0.030 A 
ATOM     28  C   LIG    1        5.379  -8.711  -0.903  0.00  0.00    +0.050 A 
ATOM     29  C   LIG    1        6.704  -8.644  -0.513  0.00  0.00    +0.000 A 
ATOM     30  C   LIG    1        7.221  -7.465  -0.009  0.00  0.00    +0.070 A 
ATOM     31  C   LIG    1        6.415  -6.347   0.100  0.00  0.00    -0.130 A 
ATOM     32 BR   LIG    1        7.125  -4.732   0.781  0.00  0.00    -0.050 Br
ENDBRANCH  23  26
ENDBRANCH   5  22
TORSDOF 6
