REMARK  Name = ZINCqH0000002G9X.0
REMARK                            x       y       z     vdW  Elec       q    Type
REMARK                         _______ _______ _______ _____ _____    ______ ____
ROOT
ATOM      1  C   LIG    1       -8.001   0.804   3.024  0.00  0.00    +0.100 A 
ATOM      2  C   LIG    1       -9.209   0.139   3.149  0.00  0.00    -0.030 A 
ATOM      3  C   LIG    1       -9.380  -1.100   2.558  0.00  0.00    +0.060 A 
ATOM      4  C   LIG    1       -8.349  -1.677   1.842  0.00  0.00    -0.170 A 
ATOM      5  C   LIG    1       -7.141  -1.017   1.708  0.00  0.00    +0.020 A 
ATOM      6  C   LIG    1       -6.960   0.223   2.303  0.00  0.00    +0.200 A 
ENDROOT
BRANCH   4   7
ATOM      7  C   LIG    1       -8.542  -3.027   1.201  0.00  0.00    +0.510 C 
ATOM      8  F   LIG    1       -7.608  -3.929   1.722  0.00  0.00    -0.180 F 
ATOM      9  F   LIG    1       -8.363  -2.917  -0.182  0.00  0.00    -0.180 F 
ATOM     10  F   LIG    1       -9.835  -3.490   1.468  0.00  0.00    -0.180 F 
ENDBRANCH   4   7
BRANCH   6  11
ATOM     11  N   LIG    1       -5.737   0.891   2.173  0.00  0.00    -0.730 N 
ATOM     12  H   LIG    1       -5.613   1.760   2.586  0.00  0.00    +0.420 HD
BRANCH  11  13
ATOM     13  C   LIG    1       -4.644   0.278   1.414  0.00  0.00    +0.310 C 
BRANCH  13  14
ATOM     14  C   LIG    1       -3.448   1.194   1.427  0.00  0.00    +0.510 C 
ATOM     15  N   LIG    1       -2.317   0.835   0.788  0.00  0.00    -0.720 N 
ATOM     16  H   LIG    1       -2.273  -0.013   0.320  0.00  0.00    +0.410 HD
ATOM     17  O   LIG    1       -3.503   2.255   2.013  0.00  0.00    -0.520 OA
BRANCH  15  18
ATOM     18  C   LIG    1       -1.154   1.726   0.801  0.00  0.00    +0.310 C 
ATOM     19  C   LIG    1       -0.705   1.957   2.245  0.00  0.00    +0.090 C 
BRANCH  18  20
ATOM     20  C   LIG    1       -0.013   1.086   0.008  0.00  0.00    -0.040 C 
ATOM     21  C   LIG    1        0.460   1.806  -1.256  0.00  0.00    +0.030 C 
ATOM     22  C   LIG    1        1.335   1.811  -0.001  0.00  0.00    +0.050 C 
ENDBRANCH  18  20
BRANCH  18  23
ATOM     23  C   LIG    1       -1.516   3.014   0.187  0.00  0.00    +0.200 C 
ATOM     24  N   LIG    1       -1.795   4.008  -0.286  0.00  0.00    -0.400 NA
ENDBRANCH  18  23
ENDBRANCH  15  18
ENDBRANCH  13  14
ENDBRANCH  11  13
ENDBRANCH   6  11
BRANCH   1  25
ATOM     25  O   LIG    1       -7.831   2.023   3.605  0.00  0.00    -0.310 OA
BRANCH  25  26
ATOM     26  C   LIG    1       -8.941   2.557   4.329  0.00  0.00    +0.190 C 
BRANCH  26  28
ATOM     27  C   LIG    1       -9.752   4.495   5.681  0.00  0.00    +0.040 C 
ATOM     28  C   LIG    1       -8.564   3.923   4.905  0.00  0.00    +0.020 C 
ENDBRANCH  26  28
ENDBRANCH  25  26
ENDBRANCH   1  25
TORSDOF 10
