REMARK  Name = ZINCrD00000F5LuX.0
REMARK                            x       y       z     vdW  Elec       q    Type
REMARK                         _______ _______ _______ _____ _____    ______ ____
ROOT
ATOM      1  N   LIG    1       -2.104  -0.775   1.419  0.00  0.00    -0.980 NA
ENDROOT
BRANCH   1   2
ATOM      2  S   LIG    1       -0.597  -0.982   0.764  0.00  0.00    +2.700 S 
ATOM      3  O   LIG    1       -0.748  -0.839  -0.642  0.00  0.00    -0.950 OA
ATOM      4  O   LIG    1        0.289  -0.183   1.535  0.00  0.00    -0.920 OA
BRANCH   2   8
ATOM      5  C   LIG    1        0.025  -4.706   1.903  0.00  0.00    +0.070 A 
ATOM      6  N   LIG    1        0.837  -4.653   0.878  0.00  0.00    -0.250 NA
ATOM      7  N   LIG    1        0.756  -3.370   0.321  0.00  0.00    -0.310 N 
ATOM      8  C   LIG    1       -0.131  -2.657   1.047  0.00  0.00    -0.490 A 
ATOM      9  C   LIG    1        1.502  -2.887  -0.843  0.00  0.00    +0.370 C 
ATOM     10  C   LIG    1       -0.594  -3.458   2.034  0.00  0.00    +0.000 A 
BRANCH   5  12
ATOM     11  C   LIG    1        0.703  -5.799   4.023  0.00  0.00    +0.050 C 
ATOM     12  C   LIG    1       -0.200  -5.902   2.791  0.00  0.00    +0.070 C 
ATOM     13  C   LIG    1       -1.664  -5.941   3.234  0.00  0.00    +0.040 C 
ENDBRANCH   5  12
ENDBRANCH   2   8
ENDBRANCH   1   2
BRANCH   1  14
ATOM     14  C   LIG    1       -2.249  -0.519   2.854  0.00  0.00    +0.310 C 
BRANCH  14  15
ATOM     15  C   LIG    1       -2.395   0.986   3.092  0.00  0.00    -0.040 C 
ATOM     16  C   LIG    1       -1.242   1.704   2.453  0.00  0.00    -0.050 C 
ATOM     17  C   LIG    1       -0.599   2.680   3.004  0.00  0.00    -0.050 C 
ATOM     18  C   LIG    1       -0.904   3.223   4.369  0.00  0.00    +0.050 C 
ATOM     19  C   LIG    1       -2.299   2.776   4.814  0.00  0.00    +0.020 C 
ATOM     20  C   LIG    1       -3.704   1.473   2.469  0.00  0.00    +0.030 C 
ATOM     21  C   LIG    1       -2.415   1.262   4.597  0.00  0.00    +0.030 C 
ENDBRANCH  14  15
ENDBRANCH   1  14
BRANCH   1  22
ATOM     22  C   LIG    1       -3.291  -0.847   0.564  0.00  0.00    +0.320 C 
BRANCH  22  23
ATOM     23  C   LIG    1       -3.898  -2.249   0.652  0.00  0.00    -0.050 C 
ATOM     24  C   LIG    1       -5.231  -2.312  -0.127  0.00  0.00    +0.010 C 
ATOM     25  C   LIG    1       -4.976  -3.369  -1.223  0.00  0.00    +0.190 C 
ATOM     26  O   LIG    1       -3.912  -4.194  -0.700  0.00  0.00    -0.370 OA
ATOM     27  C   LIG    1       -2.993  -3.277  -0.063  0.00  0.00    +0.190 C 
ENDBRANCH  22  23
ENDBRANCH   1  22
TORSDOF 7
