REMARK  Name = ZINCvU00000008hH.0
REMARK                            x       y       z     vdW  Elec       q    Type
REMARK                         _______ _______ _______ _____ _____    ______ ____
ROOT
ATOM      1  C   LIG    1       -1.132   2.895  -0.672  0.00  0.00    +0.170 A 
ATOM      2  C   LIG    1        0.055   2.182  -0.546  0.00  0.00    +0.000 A 
ATOM      3  C   LIG    1        1.259   2.849  -0.493  0.00  0.00    +0.100 A 
ATOM      4  C   LIG    1        1.286   4.244  -0.561  0.00  0.00    -0.050 A 
ATOM      5  C   LIG    1        0.092   4.957  -0.682  0.00  0.00    +0.040 A 
ATOM      6  C   LIG    1       -1.109   4.284  -0.735  0.00  0.00    +0.030 A 
ENDROOT
BRANCH   4   7
ATOM      7  C   LIG    1        2.576   4.963  -0.504  0.00  0.00    +0.350 A 
ATOM      8  N   LIG    1        3.734   4.463  -0.861  0.00  0.00    -0.460 NA
ATOM      9  C   LIG    1        4.705   5.392  -0.682  0.00  0.00    +0.050 A 
ATOM     10  C   LIG    1        6.087   5.389  -0.897  0.00  0.00    +0.070 A 
ATOM     11  C   LIG    1        6.825   6.516  -0.613  0.00  0.00    +0.010 A 
ATOM     12  C   LIG    1        6.209   7.655  -0.114  0.00  0.00    +0.040 A 
ATOM     13  C   LIG    1        4.847   7.675   0.104  0.00  0.00    +0.020 A 
ATOM     14  C   LIG    1        4.086   6.549  -0.177  0.00  0.00    +0.060 A 
ATOM     15  N   LIG    1        2.740   6.254  -0.079  0.00  0.00    -0.550 N 
BRANCH  15  16
ATOM     16  C   LIG    1        1.685   7.153   0.396  0.00  0.00    +0.640 C 
ATOM     17  F   LIG    1        2.264   8.244   1.054  0.00  0.00    -0.170 F 
ATOM     18  F   LIG    1        0.848   6.465   1.281  0.00  0.00    -0.170 F 
ENDBRANCH  15  16
ENDBRANCH   4   7
BRANCH   1  20
ATOM     19  C   LIG    1       -3.347   2.684  -1.507  0.00  0.00    +0.530 C 
ATOM     20  N   LIG    1       -2.350   2.215  -0.731  0.00  0.00    -0.670 N 
ATOM     21  H   LIG    1       -2.479   1.405  -0.213  0.00  0.00    +0.420 HD
ATOM     22  O   LIG    1       -3.214   3.736  -2.095  0.00  0.00    -0.500 OA
BRANCH  19  23
ATOM     23  C   LIG    1       -4.627   1.901  -1.645  0.00  0.00    +0.100 C 
BRANCH  23  24
ATOM     24  S   LIG    1       -5.760   2.785  -2.745  0.00  0.00    +0.100 S 
BRANCH  24  30
ATOM     25  C   LIG    1       -7.977  -1.542  -1.145  0.00  0.00    +0.140 C 
ATOM     26  C   LIG    1       -8.069  -0.283  -1.969  0.00  0.00    +0.190 A 
ATOM     27  C   LIG    1       -9.213  -0.004  -2.699  0.00  0.00    -0.090 A 
ATOM     28  C   LIG    1       -9.257   1.164  -3.444  0.00  0.00    +0.200 A 
ATOM     29  N   LIG    1       -8.211   1.974  -3.436  0.00  0.00    -0.510 NA
ATOM     30  C   LIG    1       -7.131   1.678  -2.727  0.00  0.00    +0.290 A 
ATOM     31  C   LIG    1      -10.481   1.507  -4.254  0.00  0.00    +0.150 C 
ATOM     32  N   LIG    1       -7.056   0.567  -2.008  0.00  0.00    -0.540 NA
ENDBRANCH  24  30
ENDBRANCH  23  24
ENDBRANCH  19  23
ENDBRANCH   1  20
TORSDOF 6
