REMARK  Name = ZINCrD00000lbTfg.0
REMARK                            x       y       z     vdW  Elec       q    Type
REMARK                         _______ _______ _______ _____ _____    ______ ____
ROOT
ATOM      1  C   LIG    1       -8.206   3.170   1.578  0.00  0.00    +0.520 C 
ATOM      2  N   LIG    1       -6.985   3.735   1.494  0.00  0.00    -0.520 N 
ATOM      3  H   LIG    1       -6.872   4.677   1.694  0.00  0.00    +0.430 HD
ATOM      4  O   LIG    1       -8.347   1.992   1.327  0.00  0.00    -0.510 OA
ENDROOT
BRANCH   2   5
ATOM      5  N   LIG    1       -5.880   2.961   1.117  0.00  0.00    -0.520 N 
ATOM      6  H   LIG    1       -5.993   2.019   0.916  0.00  0.00    +0.430 HD
ATOM      7  C   LIG    1       -4.659   3.526   1.033  0.00  0.00    +0.520 C 
ATOM      8  O   LIG    1       -4.517   4.704   1.284  0.00  0.00    -0.510 OA
BRANCH   7   9
ATOM      9  C   LIG    1       -3.470   2.694   0.628  0.00  0.00    +0.190 C 
ATOM     10  C   LIG    1       -3.649   2.217  -0.815  0.00  0.00    +0.060 C 
BRANCH   9  11
ATOM     11  O   LIG    1       -2.281   3.482   0.724  0.00  0.00    -0.280 OA
BRANCH  11  12
ATOM     12  C   LIG    1       -1.111   2.814   0.902  0.00  0.00    +0.130 A 
ATOM     13  C   LIG    1        0.064   3.518   1.122  0.00  0.00    +0.010 A 
ATOM     14  C   LIG    1        1.253   2.838   1.297  0.00  0.00    +0.070 A 
ATOM     15  C   LIG    1        1.272   1.455   1.263  0.00  0.00    -0.070 A 
ATOM     16  C   LIG    1        0.100   0.751   1.049  0.00  0.00    +0.070 A 
ATOM     17 CL   LIG    1        2.767   0.602   1.490  0.00  0.00    -0.070 Cl
ATOM     18  C   LIG    1       -1.090   1.427   0.869  0.00  0.00    -0.060 A 
ENDBRANCH  11  12
ENDBRANCH   9  11
ENDBRANCH   7   9
ENDBRANCH   2   5
BRANCH   1  19
ATOM     19  C   LIG    1       -9.395   4.002   1.983  0.00  0.00    +0.190 C 
ATOM     20  C   LIG    1       -9.215   4.479   3.426  0.00  0.00    +0.060 C 
BRANCH  19  21
ATOM     21  O   LIG    1      -10.583   3.214   1.886  0.00  0.00    -0.280 OA
BRANCH  21  27
ATOM     22  C   LIG    1      -15.392   3.089   1.058  0.00  0.00    +0.100 C 
ATOM     23  C   LIG    1      -14.113   3.855   1.284  0.00  0.00    -0.050 A 
ATOM     24  C   LIG    1      -14.129   5.237   1.292  0.00  0.00    -0.030 A 
ATOM     25  C   LIG    1      -12.958   5.943   1.498  0.00  0.00    +0.050 A 
ATOM     26  C   LIG    1      -11.770   5.268   1.703  0.00  0.00    -0.080 A 
ATOM     27  C   LIG    1      -11.751   3.881   1.690  0.00  0.00    +0.130 A 
ATOM     28  C   LIG    1      -12.927   3.175   1.483  0.00  0.00    -0.110 A 
ATOM     29  C   LIG    1      -12.911   1.668   1.475  0.00  0.00    +0.100 C 
ENDBRANCH  21  27
ENDBRANCH  19  21
ENDBRANCH   1  19
TORSDOF 7
