REMARK  Name = ZINCqH0000006bua.0
REMARK                            x       y       z     vdW  Elec       q    Type
REMARK                         _______ _______ _______ _____ _____    ______ ____
ROOT
ATOM      1  C   LIG    1        0.521   5.151   2.732  0.00  0.00    +0.140 C 
ATOM      2  C   LIG    1        0.891   4.535   4.083  0.00  0.00    +0.100 C 
ENDROOT
BRANCH   1   3
ATOM      3  C   LIG    1        1.392   6.353   2.473  0.00  0.00    +0.200 A 
ATOM      4  N   LIG    1        2.646   6.316   2.120  0.00  0.00    -0.450 NA
ATOM      5  C   LIG    1        3.095   7.573   1.979  0.00  0.00    +0.180 A 
ATOM      6  C   LIG    1        2.063   8.409   2.259  0.00  0.00    +0.010 A 
ATOM      7  O   LIG    1        1.000   7.632   2.562  0.00  0.00    -0.180 OA
BRANCH   6   8
ATOM      8  C   LIG    1        2.094   9.887   2.233  0.00  0.00    -0.010 A 
ATOM      9  C   LIG    1        0.946  10.618   2.541  0.00  0.00    +0.050 A 
ATOM     10  C   LIG    1        0.983  11.997   2.519  0.00  0.00    +0.030 A 
ATOM     11  C   LIG    1        2.153  12.655   2.182  0.00  0.00    -0.030 A 
ATOM     12  C   LIG    1        3.294  11.936   1.870  0.00  0.00    +0.040 A 
ATOM     13 CL   LIG    1        2.190  14.391   2.151  0.00  0.00    -0.060 Cl
ATOM     14  C   LIG    1        3.271  10.557   1.893  0.00  0.00    +0.060 A 
ENDBRANCH   6   8
ENDBRANCH   1   3
BRANCH   1  15
ATOM     15  S   LIG    1        0.774   3.928   1.422  0.00  0.00    +0.090 S 
BRANCH  15  22
ATOM     16  N   LIG    1       -0.698   1.558   1.213  0.00  0.00    -0.530 N 
ATOM     17  C   LIG    1       -1.686   0.912   1.864  0.00  0.00    +0.660 A 
ATOM     18  N   LIG    1       -2.047   1.673   2.917  0.00  0.00    -0.540 N 
ATOM     19  H   LIG    1       -2.735   1.464   3.568  0.00  0.00    +0.460 HD
ATOM     20  N   LIG    1       -1.244   2.822   2.899  0.00  0.00    -0.280 NA
ATOM     21  O   LIG    1       -2.166  -0.165   1.556  0.00  0.00    -0.540 OA
ATOM     22  C   LIG    1       -0.440   2.736   1.878  0.00  0.00    +0.250 A 
BRANCH  16  23
ATOM     23  C   LIG    1       -0.013   1.086   0.008  0.00  0.00    +0.340 C 
BRANCH  23  24
ATOM     24  C   LIG    1       -0.753   1.593  -1.232  0.00  0.00    +0.020 C 
BRANCH  24  25
ATOM     25  C   LIG    1       -0.037   1.099  -2.490  0.00  0.00    +0.190 C 
BRANCH  25  27
ATOM     26  C   LIG    1       -0.138   1.166  -4.884  0.00  0.00    +0.200 C 
ATOM     27  O   LIG    1       -0.728   1.573  -3.648  0.00  0.00    -0.390 OA
ENDBRANCH  25  27
ENDBRANCH  24  25
ENDBRANCH  23  24
ENDBRANCH  16  23
ENDBRANCH  15  22
ENDBRANCH   1  15
TORSDOF 8
