REMARK  Name = ZINCpe000000XT8U.0
REMARK                            x       y       z     vdW  Elec       q    Type
REMARK                         _______ _______ _______ _____ _____    ______ ____
ROOT
ATOM      1  N   LIG    1       -6.207   3.677   4.189  0.00  0.00    -0.730 N 
ATOM      2  H   LIG    1       -5.967   4.182   4.982  0.00  0.00    +0.400 HD
ATOM      3  C   LIG    1       -5.265   3.371   3.275  0.00  0.00    +0.520 C 
ATOM      4  O   LIG    1       -5.564   2.740   2.284  0.00  0.00    -0.520 OA
ENDROOT
BRANCH   3   5
ATOM      5  C   LIG    1       -3.839   3.814   3.485  0.00  0.00    +0.180 C 
ATOM      6  C   LIG    1       -3.304   3.210   4.784  0.00  0.00    +0.030 C 
BRANCH   5   7
ATOM      7  N   LIG    1       -3.015   3.360   2.357  0.00  0.00    -0.520 NA
ATOM      8  C   LIG    1       -1.643   3.874   2.467  0.00  0.00    +0.190 C 
ATOM      9  C   LIG    1       -0.840   3.446   1.236  0.00  0.00    +0.180 C 
ATOM     10  N   LIG    1       -0.843   1.980   1.138  0.00  0.00    -0.530 NA
ATOM     11  C   LIG    1       -2.215   1.466   1.028  0.00  0.00    +0.180 C 
ATOM     12  C   LIG    1       -3.018   1.894   2.259  0.00  0.00    +0.190 C 
BRANCH  10  13
ATOM     13  C   LIG    1       -0.019   1.526   0.010  0.00  0.00    +0.190 C 
BRANCH  13  14
ATOM     14  C   LIG    1        1.461   1.645   0.380  0.00  0.00    +0.160 C 
ATOM     15  C   LIG    1        2.320   1.184  -0.799  0.00  0.00    -0.010 C 
BRANCH  14  16
ATOM     16  O   LIG    1        1.735   0.825   1.518  0.00  0.00    -0.550 OA
ATOM     17  H   LIG    1        2.657   0.851   1.809  0.00  0.00    +0.370 HD
ENDBRANCH  14  16
ENDBRANCH  13  14
ENDBRANCH  10  13
ENDBRANCH   5   7
ENDBRANCH   3   5
BRANCH   1  18
ATOM     18  C   LIG    1       -7.592   3.247   3.986  0.00  0.00    +0.290 C 
BRANCH  18  19
ATOM     19  C   LIG    1       -8.451   3.720   5.160  0.00  0.00    +0.200 C 
BRANCH  19  20
ATOM     20  O   LIG    1       -8.496   5.148   5.172  0.00  0.00    -0.310 OA
BRANCH  20  26
ATOM     21  C   LIG    1      -10.146   9.211   7.315  0.00  0.00    +0.090 C 
ATOM     22  C   LIG    1      -10.050   7.709   7.237  0.00  0.00    -0.050 A 
ATOM     23  C   LIG    1      -10.703   6.926   8.170  0.00  0.00    -0.040 A 
ATOM     24  C   LIG    1      -10.617   5.548   8.101  0.00  0.00    +0.050 A 
ATOM     25  C   LIG    1       -9.884   4.950   7.095  0.00  0.00    -0.090 A 
ATOM     26  C   LIG    1       -9.223   5.734   6.160  0.00  0.00    +0.130 A 
ATOM     27  C   LIG    1       -9.311   7.116   6.232  0.00  0.00    -0.020 A 
ENDBRANCH  20  26
ENDBRANCH  19  20
ENDBRANCH  18  19
ENDBRANCH   1  18
TORSDOF 9
