REMARK  Name = ZINCvU0000000GKR.0
REMARK                            x       y       z     vdW  Elec       q    Type
REMARK                         _______ _______ _______ _____ _____    ______ ____
ROOT
ATOM      1  C   LIG    1        3.565   2.990   0.371  0.00  0.00    +0.300 C 
ENDROOT
BRANCH   1   2
ATOM      2  C   LIG    1        3.924   2.448   1.731  0.00  0.00    -0.110 A 
ATOM      3  C   LIG    1        3.849   3.266   2.843  0.00  0.00    +0.030 A 
ATOM      4  C   LIG    1        4.174   2.767   4.091  0.00  0.00    +0.000 A 
ATOM      5  C   LIG    1        4.581   1.453   4.225  0.00  0.00    +0.010 A 
ATOM      6  C   LIG    1        4.661   0.636   3.112  0.00  0.00    +0.010 A 
ATOM      7  C   LIG    1        4.332   1.134   1.865  0.00  0.00    +0.020 A 
ENDBRANCH   1   2
BRANCH   1   8
ATOM      8  C   LIG    1        4.724   3.784  -0.174  0.00  0.00    +0.520 C 
ATOM      9  N   LIG    1        5.918   3.189  -0.366  0.00  0.00    -0.670 N 
ATOM     10  H   LIG    1        6.053   2.270  -0.084  0.00  0.00    +0.420 HD
ATOM     11  O   LIG    1        4.583   4.959  -0.441  0.00  0.00    -0.500 OA
BRANCH   9  12
ATOM     12  C   LIG    1        6.963   3.895  -0.971  0.00  0.00    +0.150 A 
ATOM     13  C   LIG    1        6.689   4.836  -1.954  0.00  0.00    +0.050 A 
ATOM     14  C   LIG    1        7.723   5.536  -2.546  0.00  0.00    +0.040 A 
ATOM     15  C   LIG    1        9.030   5.292  -2.167  0.00  0.00    +0.060 A 
ATOM     16  C   LIG    1        9.307   4.352  -1.192  0.00  0.00    -0.160 A 
ATOM     17  C   LIG    1        8.278   3.653  -0.593  0.00  0.00    +0.040 A 
BRANCH  16  18
ATOM     18  C   LIG    1       10.733   4.089  -0.782  0.00  0.00    +0.510 C 
ATOM     19  F   LIG    1       10.768   3.692   0.559  0.00  0.00    -0.180 F 
ATOM     20  F   LIG    1       11.487   5.257  -0.943  0.00  0.00    -0.170 F 
ATOM     21  F   LIG    1       11.269   3.075  -1.583  0.00  0.00    -0.170 F 
ENDBRANCH  16  18
ENDBRANCH   9  12
ENDBRANCH   1   8
BRANCH   1  22
ATOM     22  N   LIG    1        2.390   3.858   0.486  0.00  0.00    -0.720 N 
ATOM     23  H   LIG    1        2.503   4.817   0.583  0.00  0.00    +0.410 HD
BRANCH  22  28
ATOM     24  C   LIG    1       -1.278   3.572   0.532  0.00  0.00    +0.190 A 
ATOM     25  C   LIG    1       -1.433   2.200   0.387  0.00  0.00    -0.080 A 
ATOM     26  C   LIG    1       -0.322   1.384   0.285  0.00  0.00    +0.080 A 
ATOM     27  C   LIG    1        0.946   1.931   0.316  0.00  0.00    -0.090 A 
ATOM     28  C   LIG    1        1.108   3.305   0.456  0.00  0.00    +0.240 A 
ATOM     29  C   LIG    1       -0.005   4.126   0.564  0.00  0.00    -0.050 A 
BRANCH  24  32
ATOM     30  C   LIG    1       -3.640   6.473   0.115  0.00  0.00    +0.110 C 
ATOM     31  C   LIG    1       -2.394   5.625   0.087  0.00  0.00    +0.510 C 
ATOM     32  N   LIG    1       -2.403   4.397   0.641  0.00  0.00    -0.680 N 
ATOM     33  H   LIG    1       -3.189   4.084   1.116  0.00  0.00    +0.410 HD
ATOM     34  O   LIG    1       -1.384   6.049  -0.433  0.00  0.00    -0.520 OA
ENDBRANCH  24  32
ENDBRANCH  22  28
ENDBRANCH   1  22
TORSDOF 7
