REMARK  Name = ZINCrD00000gYB1q.0
REMARK                            x       y       z     vdW  Elec       q    Type
REMARK                         _______ _______ _______ _____ _____    ______ ____
ROOT
ATOM      1  N   LIG    1        5.001   3.361   2.371  0.00  0.00    -0.700 N 
ATOM      2  H   LIG    1        5.886   3.043   2.132  0.00  0.00    +0.410 HD
ATOM      3  C   LIG    1        4.847   4.592   2.897  0.00  0.00    +0.570 C 
ATOM      4  O   LIG    1        3.739   4.990   3.197  0.00  0.00    -0.510 OA
ENDROOT
BRANCH   3   5
ATOM      5  C   LIG    1        6.030   5.462   3.111  0.00  0.00    +0.150 A 
ATOM      6  N   LIG    1        7.227   5.012   2.785  0.00  0.00    -0.440 NA
ATOM      7  C   LIG    1        8.312   5.761   2.956  0.00  0.00    +0.170 A 
ATOM      8  C   LIG    1        9.599   5.300   2.609  0.00  0.00    -0.120 A 
ATOM      9  C   LIG    1       10.667   6.121   2.817  0.00  0.00    +0.300 A 
ATOM     10  N   LIG    1       10.530   7.333   3.334  0.00  0.00    -0.470 NA
ATOM     11  C   LIG    1        9.365   7.830   3.680  0.00  0.00    +0.360 A 
ATOM     12 BR   LIG    1        9.838   3.576   1.870  0.00  0.00    -0.010 Br
ATOM     13  C   LIG    1        8.200   7.066   3.507  0.00  0.00    -0.150 A 
ATOM     14  C   LIG    1        6.930   7.552   3.862  0.00  0.00    +0.130 A 
ATOM     15  C   LIG    1        5.850   6.739   3.659  0.00  0.00    +0.030 A 
ENDBRANCH   3   5
BRANCH   1  21
ATOM     16  C   LIG    1        0.861   2.316   0.264  0.00  0.00    +0.550 C 
ATOM     17  N   LIG    1        2.103   1.880   0.556  0.00  0.00    -0.610 N 
ATOM     18  C   LIG    1        2.394   0.442   0.627  0.00  0.00    +0.260 C 
ATOM     19  C   LIG    1        3.045   0.136   1.980  0.00  0.00    +0.030 C 
ATOM     20  C   LIG    1        4.270   1.035   2.166  0.00  0.00    -0.020 C 
ATOM     21  C   LIG    1        3.833   2.502   2.160  0.00  0.00    +0.240 C 
ATOM     22  C   LIG    1        4.943   0.709   3.501  0.00  0.00    +0.030 C 
ATOM     23  C   LIG    1        3.192   2.834   0.804  0.00  0.00    +0.270 C 
ATOM     24  O   LIG    1        0.652   3.505   0.123  0.00  0.00    -0.530 OA
BRANCH  16  27
ATOM     25  C   LIG    1       -2.582   0.794  -0.386  0.00  0.00    +0.090 C 
ATOM     26  C   LIG    1       -1.429   1.763  -0.316  0.00  0.00    -0.010 C 
ATOM     27  C   LIG    1       -0.240   1.352   0.116  0.00  0.00    -0.120 C 
ATOM     28  C   LIG    1       -1.625   3.198  -0.734  0.00  0.00    +0.080 C 
ENDBRANCH  16  27
ENDBRANCH   1  21
TORSDOF 3
