REMARK  Name = ZINCvU0000000B2e.0
REMARK                            x       y       z     vdW  Elec       q    Type
REMARK                         _______ _______ _______ _____ _____    ______ ____
ROOT
ATOM      1  C   LIG    1       -1.528  -1.722  -0.988  0.00  0.00    -0.110 A 
ATOM      2  C   LIG    1       -2.716  -2.454  -0.949  0.00  0.00    +0.080 A 
ATOM      3  C   LIG    1       -3.640  -2.214   0.047  0.00  0.00    +0.010 A 
ATOM      4  C   LIG    1       -3.397  -1.250   1.011  0.00  0.00    +0.060 A 
ATOM      5  C   LIG    1       -2.226  -0.520   0.992  0.00  0.00    +0.030 A 
ATOM      6  C   LIG    1       -1.283  -0.743  -0.008  0.00  0.00    +0.010 A 
ENDROOT
BRANCH   6   7
ATOM      7  C   LIG    1       -0.027   0.042  -0.036  0.00  0.00    -0.010 A 
ATOM      8  C   LIG    1        0.298   0.804  -1.158  0.00  0.00    +0.070 A 
ATOM      9  C   LIG    1        1.469   1.533  -1.178  0.00  0.00    +0.060 A 
ATOM     10  C   LIG    1        2.321   1.509  -0.087  0.00  0.00    -0.180 A 
ATOM     11  C   LIG    1        2.004   0.755   1.028  0.00  0.00    +0.070 A 
ATOM     12  C   LIG    1        0.836   0.022   1.060  0.00  0.00    +0.030 A 
BRANCH  10  13
ATOM     13  C   LIG    1        3.599   2.308  -0.116  0.00  0.00    +0.510 C 
ATOM     14  F   LIG    1        3.931   2.702   1.185  0.00  0.00    -0.180 F 
ATOM     15  F   LIG    1        3.422   3.442  -0.916  0.00  0.00    -0.180 F 
ATOM     16  F   LIG    1        4.628   1.521  -0.642  0.00  0.00    -0.180 F 
ENDBRANCH  10  13
ENDBRANCH   6   7
BRANCH   1  18
ATOM     17  O   LIG    1        0.545  -1.420  -2.015  0.00  0.00    -0.460 OA
ATOM     18  C   LIG    1       -0.536  -1.973  -2.051  0.00  0.00    +0.490 C 
BRANCH  18  19
ATOM     19  O   LIG    1       -0.830  -2.815  -3.061  0.00  0.00    -0.330 OA
BRANCH  19  20
ATOM     20  C   LIG    1        0.194  -3.014  -4.071  0.00  0.00    +0.260 C 
ATOM     21  C   LIG    1       -0.481  -3.255  -5.437  0.00  0.00    -0.230 C 
ATOM     22  S   LIG    1       -0.577  -5.088  -5.447  0.00  0.00    +2.470 S 
ATOM     23  C   LIG    1        0.760  -5.386  -4.315  0.00  0.00    -0.600 A 
ATOM     24  C   LIG    1        1.461  -6.541  -4.037  0.00  0.00    +0.140 A 
ATOM     25  C   LIG    1        2.491  -6.525  -3.115  0.00  0.00    +0.050 A 
ATOM     26  C   LIG    1        2.807  -5.340  -2.478  0.00  0.00    +0.080 A 
ATOM     27  C   LIG    1        2.101  -4.190  -2.755  0.00  0.00    -0.030 A 
ATOM     28 CL   LIG    1        2.518  -2.714  -1.941  0.00  0.00    -0.020 Cl
ATOM     29  O   LIG    1       -1.744  -5.557  -4.787  0.00  0.00    -0.910 OA
ATOM     30  O   LIG    1       -0.148  -5.626  -6.690  0.00  0.00    -0.920 OA
ATOM     31  C   LIG    1        1.053  -4.192  -3.682  0.00  0.00    -0.070 A 
ENDBRANCH  19  20
ENDBRANCH  18  19
ENDBRANCH   1  18
TORSDOF 5
