REMARK  Name = ZINCqH0000037JT2.0
REMARK                            x       y       z     vdW  Elec       q    Type
REMARK                         _______ _______ _______ _____ _____    ______ ____
ROOT
ATOM      1  N   LIG    1       -4.839   5.220  -0.517  0.00  0.00    -0.680 N 
ATOM      2  H   LIG    1       -4.848   4.478   0.107  0.00  0.00    +0.410 HD
ATOM      3  C   LIG    1       -3.666   5.768  -0.894  0.00  0.00    +0.710 C 
ATOM      4  N   LIG    1       -2.505   5.232  -0.470  0.00  0.00    -0.730 N 
ATOM      5  H   LIG    1       -2.512   4.452   0.107  0.00  0.00    +0.400 HD
ATOM      6  O   LIG    1       -3.657   6.745  -1.617  0.00  0.00    -0.570 OA
ENDROOT
BRANCH   1  13
ATOM      7  C   LIG    1       -6.951   3.383  -1.002  0.00  0.00    +0.100 C 
ATOM      8  C   LIG    1       -7.099   4.857  -1.276  0.00  0.00    -0.120 A 
ATOM      9  C   LIG    1       -8.285   5.349  -1.771  0.00  0.00    +0.100 A 
ATOM     10  C   LIG    1       -8.420   6.716  -2.030  0.00  0.00    -0.160 A 
ATOM     11  C   LIG    1       -7.350   7.580  -1.780  0.00  0.00    +0.060 A 
ATOM     12  C   LIG    1       -6.167   7.082  -1.281  0.00  0.00    +0.020 A 
ATOM     13  C   LIG    1       -6.037   5.721  -1.023  0.00  0.00    +0.190 A 
BRANCH  10  14
ATOM     14  C   LIG    1       -9.689   7.247  -2.565  0.00  0.00    +0.570 C 
ATOM     15  O   LIG    1      -10.619   6.494  -2.781  0.00  0.00    -0.540 OA
ATOM     16  N   LIG    1       -9.816   8.565  -2.814  0.00  0.00    -0.850 N 
ATOM     17  H   LIG    1      -10.650   8.913  -3.166  0.00  0.00    +0.410 HD
ATOM     18  H   LIG    1       -9.074   9.165  -2.641  0.00  0.00    +0.400 HD
ENDBRANCH  10  14
ENDBRANCH   1  13
BRANCH   4  19
ATOM     19  C   LIG    1       -1.230   5.827  -0.880  0.00  0.00    +0.260 C 
ATOM     20  C   LIG    1       -0.879   5.356  -2.293  0.00  0.00    +0.030 C 
BRANCH  19  21
ATOM     21  C   LIG    1       -0.130   5.395   0.090  0.00  0.00    +0.040 C 
ATOM     22  C   LIG    1       -0.080   3.869   0.148  0.00  0.00    +0.020 C 
ATOM     23  C   LIG    1        0.872   3.459   1.278  0.00  0.00    +0.020 C 
ATOM     24  C   LIG    1        0.216   3.810   2.612  0.00  0.00    +0.080 C 
ATOM     25  C   LIG    1       -0.252   5.242   2.612  0.00  0.00    -0.070 A 
ATOM     26  C   LIG    1       -0.526   5.832   3.839  0.00  0.00    +0.000 A 
ATOM     27  C   LIG    1       -0.964   7.139   3.905  0.00  0.00    +0.000 A 
ATOM     28  C   LIG    1       -1.138   7.865   2.742  0.00  0.00    +0.000 A 
ATOM     29  C   LIG    1       -0.860   7.282   1.523  0.00  0.00    +0.010 A 
ATOM     30  C   LIG    1       -0.416   5.968   1.454  0.00  0.00    -0.070 A 
ENDBRANCH  19  21
ENDBRANCH   4  19
TORSDOF 4
