REMARK  Name = ZINCpk00000ebEVo.0
REMARK                            x       y       z     vdW  Elec       q    Type
REMARK                         _______ _______ _______ _____ _____    ______ ____
ROOT
ATOM      1  O   LIG    1        1.076  -3.005  -0.958  0.00  0.00    -0.570 OA
ATOM      2  C   LIG    1        1.546  -2.206  -1.744  0.00  0.00    +0.710 C 
ATOM      3  N   LIG    1        1.806  -2.583  -3.012  0.00  0.00    -0.630 N 
ATOM      4  C   LIG    1        2.474  -1.664  -3.944  0.00  0.00    +0.260 C 
ATOM      5  C   LIG    1        3.700  -2.374  -4.537  0.00  0.00    +0.040 C 
ATOM      6  C   LIG    1        3.262  -3.698  -5.166  0.00  0.00    +0.080 C 
ATOM      7  C   LIG    1        2.656  -4.601  -4.090  0.00  0.00    +0.030 C 
ATOM      8  C   LIG    1        1.422  -3.918  -3.490  0.00  0.00    +0.300 C 
ATOM      9  N   LIG    1        1.808  -0.945  -1.349  0.00  0.00    -0.730 N 
ATOM     10  H   LIG    1        2.250  -0.329  -1.954  0.00  0.00    +0.400 HD
ENDROOT
BRANCH   6  11
ATOM     11  C   LIG    1        4.456  -4.381  -5.781  0.00  0.00    +0.080 A 
ATOM     12  N   LIG    1        4.448  -5.104  -6.872  0.00  0.00    -0.290 NA
ATOM     13  N   LIG    1        5.754  -5.556  -7.106  0.00  0.00    -0.480 N 
ATOM     14  H   LIG    1        6.041  -6.111  -7.848  0.00  0.00    +0.440 HD
ATOM     15  C   LIG    1        6.540  -5.086  -6.115  0.00  0.00    +0.240 A 
ATOM     16  C   LIG    1        5.762  -4.356  -5.282  0.00  0.00    -0.120 A 
ENDBRANCH   6  11
BRANCH   9  17
ATOM     17  C   LIG    1        1.425  -0.504  -0.005  0.00  0.00    +0.270 C 
ATOM     18  C   LIG    1        2.257   0.729   0.417  0.00  0.00    +0.060 C 
ATOM     19  C   LIG    1        1.331   1.892  -0.003  0.00  0.00    +0.270 C 
ATOM     20  N   LIG    1       -0.027   1.335   0.009  0.00  0.00    -0.620 N 
ATOM     21  C   LIG    1       -0.004  -0.008   0.002  0.00  0.00    +0.510 C 
ATOM     22  O   LIG    1       -0.986  -0.720   0.003  0.00  0.00    -0.480 OA
BRANCH  20  23
ATOM     23  C   LIG    1       -1.251   2.141   0.020  0.00  0.00    +0.350 C 
BRANCH  23  24
ATOM     24  C   LIG    1       -1.667   2.415   1.466  0.00  0.00    +0.430 C 
ATOM     25  F   LIG    1       -1.902   1.202   2.122  0.00  0.00    -0.170 F 
ATOM     26  F   LIG    1       -2.836   3.185   1.477  0.00  0.00    -0.180 F 
ATOM     27  F   LIG    1       -0.646   3.110   2.122  0.00  0.00    -0.180 F 
ENDBRANCH  23  24
ENDBRANCH  20  23
ENDBRANCH   9  17
TORSDOF 4
