REMARK  Name = ZINCvU00000005xj.0
REMARK                            x       y       z     vdW  Elec       q    Type
REMARK                         _______ _______ _______ _____ _____    ______ ____
ROOT
ATOM      1  N   LIG    1        2.588   0.307  -7.253  0.00  0.00    -0.520 N 
ATOM      2  C   LIG    1        3.531  -0.170  -8.098  0.00  0.00    +0.560 A 
ATOM      3  C   LIG    1        4.312  -1.334  -7.657  0.00  0.00    -0.190 A 
ATOM      4  C   LIG    1        5.303  -1.901  -8.458  0.00  0.00    +0.120 A 
ATOM      5  C   LIG    1        6.004  -2.994  -7.994  0.00  0.00    -0.060 A 
ATOM      6  C   LIG    1        5.732  -3.528  -6.740  0.00  0.00    +0.090 A 
ATOM      7  C   LIG    1        4.766  -2.986  -5.940  0.00  0.00    +0.050 A 
ATOM      8 CL   LIG    1        7.239  -3.708  -8.984  0.00  0.00    -0.060 Cl
ATOM      9  C   LIG    1        4.037  -1.879  -6.382  0.00  0.00    +0.170 A 
ATOM     10  N   LIG    1        3.072  -1.315  -5.618  0.00  0.00    -0.530 NA
ATOM     11  O   LIG    1        3.722   0.343  -9.185  0.00  0.00    -0.490 OA
ATOM     12  C   LIG    1        2.389  -0.277  -6.034  0.00  0.00    +0.370 A 
ENDROOT
BRANCH   1  13
ATOM     13  C   LIG    1        1.777   1.462  -7.646  0.00  0.00    +0.300 C 
BRANCH  13  15
ATOM     14  C   LIG    1        3.793   2.905  -7.957  0.00  0.00    +0.040 C 
ATOM     15  C   LIG    1        2.473   2.749  -7.199  0.00  0.00    -0.030 C 
ATOM     16  C   LIG    1        1.569   3.947  -7.498  0.00  0.00    +0.040 C 
ENDBRANCH  13  15
ENDBRANCH   1  13
BRANCH  12  17
ATOM     17  S   LIG    1        1.152   0.393  -4.974  0.00  0.00    +0.080 S 
BRANCH  17  18
ATOM     18  C   LIG    1        1.309  -0.726  -3.560  0.00  0.00    +0.020 C 
ATOM     19  C   LIG    1        0.910  -2.141  -3.983  0.00  0.00    +0.090 C 
BRANCH  18  20
ATOM     20  C   LIG    1        0.406  -0.260  -2.447  0.00  0.00    +0.550 C 
ATOM     21  N   LIG    1        0.655  -0.634  -1.176  0.00  0.00    -0.540 N 
ATOM     22  C   LIG    1        1.648  -1.537  -0.786  0.00  0.00    +0.140 A 
ATOM     23  C   LIG    1        2.569  -2.233  -1.571  0.00  0.00    -0.020 A 
ATOM     24  C   LIG    1        3.478  -3.088  -0.983  0.00  0.00    +0.050 A 
ATOM     25  C   LIG    1        3.482  -3.263   0.388  0.00  0.00    -0.010 A 
ATOM     26  C   LIG    1        2.572  -2.578   1.172  0.00  0.00    +0.060 A 
ATOM     27  C   LIG    1        1.661  -1.720   0.588  0.00  0.00    -0.130 A 
ATOM     28  C   LIG    1        0.575  -0.862   1.197  0.00  0.00    +0.100 C 
ATOM     29  C   LIG    1       -0.076  -0.152  -0.001  0.00  0.00    +0.240 C 
ATOM     30  C   LIG    1        0.076   1.365   0.134  0.00  0.00    +0.040 C 
ATOM     31  O   LIG    1       -0.545   0.450  -2.696  0.00  0.00    -0.500 OA
ENDBRANCH  18  20
ENDBRANCH  17  18
ENDBRANCH  12  17
TORSDOF 5
