REMARK  Name = ZINCvU00000007L1.0
REMARK                            x       y       z     vdW  Elec       q    Type
REMARK                         _______ _______ _______ _____ _____    ______ ____
ROOT
ATOM      1  C   LIG    1       -1.373   1.716  -0.142  0.00  0.00    +0.150 A 
ATOM      2  C   LIG    1       -0.452   0.847   0.291  0.00  0.00    -0.040 A 
ATOM      3  S   LIG    1        1.049   1.777   0.449  0.00  0.00    -0.000 S 
ATOM      4  C   LIG    1        0.327   3.307  -0.083  0.00  0.00    +0.400 A 
ATOM      5  N   LIG    1        0.925   4.476  -0.205  0.00  0.00    -0.500 NA
ATOM      6  N   LIG    1       -0.982   3.013  -0.339  0.00  0.00    -0.490 N 
ENDROOT
BRANCH   5   7
ATOM      7  C   LIG    1        2.253   4.600   0.096  0.00  0.00    +0.140 A 
ATOM      8  C   LIG    1        3.152   3.594  -0.269  0.00  0.00    -0.020 A 
ATOM      9  C   LIG    1        4.491   3.726   0.038  0.00  0.00    +0.040 A 
ATOM     10  C   LIG    1        4.944   4.849   0.705  0.00  0.00    +0.000 A 
ATOM     11  C   LIG    1        4.061   5.850   1.070  0.00  0.00    +0.050 A 
ATOM     12  C   LIG    1        2.720   5.736   0.765  0.00  0.00    -0.030 A 
ATOM     13 CL   LIG    1        1.614   6.995   1.218  0.00  0.00    -0.060 Cl
ENDBRANCH   5   7
BRANCH   1  16
ATOM     14  C   LIG    1       -4.332  -0.163  -1.505  0.00  0.00    +0.150 A 
ATOM     15  C   LIG    1       -3.026   0.233  -1.269  0.00  0.00    -0.060 A 
ATOM     16  C   LIG    1       -2.767   1.291  -0.396  0.00  0.00    +0.030 A 
ATOM     17  C   LIG    1       -3.823   1.943   0.240  0.00  0.00    -0.080 A 
ATOM     18  C   LIG    1       -5.127   1.546  -0.003  0.00  0.00    +0.160 A 
ATOM     19  C   LIG    1       -5.383   0.492  -0.874  0.00  0.00    +0.040 A 
BRANCH  14  21
ATOM     20  C   LIG    1       -3.458  -1.821  -2.969  0.00  0.00    +0.250 C 
ATOM     21  O   LIG    1       -4.585  -1.193  -2.355  0.00  0.00    -0.300 OA
ENDBRANCH  14  21
BRANCH  18  22
ATOM     22  O   LIG    1       -6.158   2.185   0.613  0.00  0.00    -0.300 OA
ATOM     23  C   LIG    1       -5.831   3.326   1.408  0.00  0.00    +0.250 C 
ENDBRANCH  18  22
BRANCH  19  24
ATOM     24  O   LIG    1       -6.666   0.101  -1.107  0.00  0.00    -0.310 OA
ATOM     25  C   LIG    1       -7.204  -0.905  -0.247  0.00  0.00    +0.240 C 
ENDBRANCH  19  24
ENDBRANCH   1  16
BRANCH   6  26
ATOM     26  C   LIG    1       -1.921   4.036  -0.806  0.00  0.00    +0.320 C 
BRANCH  26  27
ATOM     27  C   LIG    1       -2.009   3.987  -2.333  0.00  0.00    +0.130 C 
ATOM     28  C   LIG    1       -3.056   5.003  -2.830  0.00  0.00    +0.010 C 
ATOM     29  C   LIG    1       -2.260   5.938  -3.773  0.00  0.00    +0.010 C 
ATOM     30  C   LIG    1       -1.032   5.064  -4.136  0.00  0.00    +0.200 C 
ATOM     31  O   LIG    1       -0.745   4.360  -2.908  0.00  0.00    -0.350 OA
ENDBRANCH  26  27
ENDBRANCH   6  26
TORSDOF 7
