REMARK  Name = ZINCqH0000001NeF.0
REMARK                            x       y       z     vdW  Elec       q    Type
REMARK                         _______ _______ _______ _____ _____    ______ ____
ROOT
ATOM      1  C   LIG    1        0.127  -4.286   0.189  0.00  0.00    +0.360 C 
ENDROOT
BRANCH   1   2
ATOM      2  N   LIG    1       -1.240  -4.802   0.295  0.00  0.00    -0.520 N 
ATOM      3  C   LIG    1       -1.809  -4.962   1.517  0.00  0.00    +0.600 A 
ATOM      4  N   LIG    1       -3.021  -5.411   1.658  0.00  0.00    -0.490 NA
ATOM      5  C   LIG    1       -3.777  -5.753   0.591  0.00  0.00    +0.070 A 
ATOM      6  C   LIG    1       -3.257  -5.621  -0.686  0.00  0.00    -0.210 A 
ATOM      7  C   LIG    1       -4.197  -6.033  -1.730  0.00  0.00    -0.050 A 
ATOM      8  C   LIG    1       -5.365  -6.454  -1.263  0.00  0.00    -0.220 A 
ATOM      9  C   LIG    1       -6.283  -6.864  -2.411  0.00  0.00    +0.130 C 
ATOM     10  C   LIG    1       -5.345  -7.049  -3.620  0.00  0.00    +0.050 C 
ATOM     11  C   LIG    1       -4.182  -6.105  -3.256  0.00  0.00    +0.100 C 
ATOM     12  S   LIG    1       -5.413  -6.382   0.498  0.00  0.00    +0.230 S 
ATOM     13  C   LIG    1       -1.925  -5.120  -0.822  0.00  0.00    +0.560 A 
ATOM     14  O   LIG    1       -1.420  -4.983  -1.923  0.00  0.00    -0.510 OA
ENDBRANCH   1   2
BRANCH   1  17
ATOM     15  N   LIG    1        1.240  -2.087  -0.022  0.00  0.00    -0.660 N 
ATOM     16  H   LIG    1        2.084  -2.555  -0.112  0.00  0.00    +0.410 HD
ATOM     17  C   LIG    1        0.091  -2.783   0.085  0.00  0.00    +0.500 C 
ATOM     18  O   LIG    1       -0.973  -2.200   0.098  0.00  0.00    -0.500 OA
BRANCH  15  24
ATOM     19  C   LIG    1        2.236   0.035  -0.605  0.00  0.00    -0.100 A 
ATOM     20  C   LIG    1        2.208   1.415  -0.585  0.00  0.00    +0.030 A 
ATOM     21  C   LIG    1        1.164   2.078   0.035  0.00  0.00    -0.010 A 
ATOM     22  C   LIG    1        0.146   1.362   0.636  0.00  0.00    +0.030 A 
ATOM     23  C   LIG    1        0.168  -0.019   0.619  0.00  0.00    +0.010 A 
ATOM     24  C   LIG    1        1.215  -0.688  -0.002  0.00  0.00    +0.150 A 
BRANCH  19  26
ATOM     25  C   LIG    1        3.499  -0.202  -2.726  0.00  0.00    +0.040 C 
ATOM     26  C   LIG    1        3.374  -0.686  -1.280  0.00  0.00    +0.020 C 
ATOM     27  C   LIG    1        4.676  -0.398  -0.532  0.00  0.00    +0.030 C 
ENDBRANCH  19  26
ENDBRANCH  15  24
ENDBRANCH   1  17
TORSDOF 4
