REMARK  Name = ZINCrS000002dkR8.0
REMARK                            x       y       z     vdW  Elec       q    Type
REMARK                         _______ _______ _______ _____ _____    ______ ____
ROOT
ATOM      1  C   LIG    1       -1.180  -4.922  -0.013  0.00  0.00    +0.230 C 
ENDROOT
BRANCH   1   5
ATOM      2  C   LIG    1       -0.689  -9.163   0.185  0.00  0.00    +0.180 A 
ATOM      3  C   LIG    1       -1.725  -8.550   0.876  0.00  0.00    +0.010 A 
ATOM      4  C   LIG    1       -1.881  -7.179   0.810  0.00  0.00    +0.090 A 
ATOM      5  C   LIG    1       -1.007  -6.418   0.057  0.00  0.00    -0.200 A 
ATOM      6  C   LIG    1        0.022  -7.027  -0.637  0.00  0.00    +0.070 A 
ATOM      7  C   LIG    1        0.186  -8.397  -0.570  0.00  0.00    -0.050 A 
BRANCH   2   9
ATOM      8  C   LIG    1        0.555 -11.074  -0.488  0.00  0.00    +0.260 C 
ATOM      9  O   LIG    1       -0.533 -10.511   0.249  0.00  0.00    -0.300 OA
ENDBRANCH   2   9
ENDBRANCH   1   5
BRANCH   1  10
ATOM     10  N   LIG    1       -1.974  -4.576  -1.199  0.00  0.00    -0.400 N 
ATOM     11  C   LIG    1       -1.387  -5.205  -2.410  0.00  0.00    +0.260 C 
ATOM     12  C   LIG    1       -2.576  -5.238  -3.404  0.00  0.00    +0.080 C 
ATOM     13  C   LIG    1       -3.782  -5.556  -2.491  0.00  0.00    +0.080 C 
ATOM     14  C   LIG    1       -3.340  -5.131  -1.078  0.00  0.00    +0.260 C 
ATOM     15  H   LIG    1       -2.015  -3.574  -1.311  0.00  0.00    +0.410 HD
ENDBRANCH   1  10
BRANCH   1  16
ATOM     16  C   LIG    1        0.193  -4.254  -0.106  0.00  0.00    +0.320 C 
BRANCH  16  17
ATOM     17  N   LIG    1        0.022  -2.811  -0.294  0.00  0.00    -0.710 NA
ATOM     18  H   LIG    1       -0.869  -2.430  -0.340  0.00  0.00    +0.410 HD
BRANCH  17  19
ATOM     19  C   LIG    1        1.133  -1.990  -0.406  0.00  0.00    +0.350 C 
ATOM     20  C   LIG    1        2.416  -2.511  -0.343  0.00  0.00    -0.080 C 
ATOM     21  C   LIG    1        3.509  -1.663  -0.458  0.00  0.00    +0.280 C 
ATOM     22  N   LIG    1        3.368  -0.369  -0.627  0.00  0.00    -0.500 NA
ATOM     23  C   LIG    1        2.159   0.203  -0.697  0.00  0.00    +0.170 C 
ATOM     24  C   LIG    1        2.025   1.590  -0.878  0.00  0.00    +0.020 C 
ATOM     25  C   LIG    1        0.783   2.145  -0.944  0.00  0.00    +0.130 C 
ATOM     26  C   LIG    1       -0.361   1.359  -0.836  0.00  0.00    +0.060 C 
ATOM     27  C   LIG    1       -0.268   0.011  -0.661  0.00  0.00    +0.070 C 
ATOM     28  H   LIG    1        4.159   0.188  -0.703  0.00  0.00    +0.450 HD
ATOM     29  C   LIG    1        4.898  -2.244  -0.389  0.00  0.00    +0.190 C 
ATOM     30  C   LIG    1        0.994  -0.593  -0.588  0.00  0.00    -0.130 C 
ENDBRANCH  17  19
ENDBRANCH  16  17
ENDBRANCH   1  16
TORSDOF 6
