REMARK  Name = ZINCrg000000tdqz.0
REMARK                            x       y       z     vdW  Elec       q    Type
REMARK                         _______ _______ _______ _____ _____    ______ ____
ROOT
ATOM      1  N   LIG    1        9.008   2.022  -3.404  0.00  0.00    -0.720 N 
ATOM      2  H   LIG    1        8.771   2.859  -2.974  0.00  0.00    +0.420 HD
ATOM      3  C   LIG    1        8.487   0.863  -2.957  0.00  0.00    +0.520 C 
ATOM      4  O   LIG    1        8.784  -0.183  -3.495  0.00  0.00    -0.530 OA
ENDROOT
BRANCH   1   5
ATOM      5  C   LIG    1        9.934   2.019  -4.539  0.00  0.00    +0.300 C 
BRANCH   5   7
ATOM      6  O   LIG    1        9.946   4.350  -4.167  0.00  0.00    -0.530 OA
ATOM      7  C   LIG    1       10.368   3.431  -4.837  0.00  0.00    +0.510 C 
ATOM      8  N   LIG    1       11.226   3.674  -5.848  0.00  0.00    -0.720 N 
ATOM      9  H   LIG    1       11.564   2.939  -6.384  0.00  0.00    +0.410 HD
BRANCH   8  10
ATOM     10  C   LIG    1       11.648   5.046  -6.138  0.00  0.00    +0.320 C 
BRANCH  10  11
ATOM     11  C   LIG    1       12.601   5.043  -7.305  0.00  0.00    -0.120 A 
ATOM     12  C   LIG    1       13.960   4.923  -7.088  0.00  0.00    +0.020 A 
ATOM     13  C   LIG    1       14.834   4.915  -8.159  0.00  0.00    +0.010 A 
ATOM     14  C   LIG    1       14.348   5.039  -9.448  0.00  0.00    +0.010 A 
ATOM     15  C   LIG    1       12.989   5.165  -9.665  0.00  0.00    +0.010 A 
ATOM     16  C   LIG    1       12.115   5.167  -8.594  0.00  0.00    +0.020 A 
ENDBRANCH  10  11
ENDBRANCH   8  10
ENDBRANCH   5   7
ENDBRANCH   1   5
BRANCH   3  17
ATOM     17  C   LIG    1        7.534   0.866  -1.789  0.00  0.00    +0.320 C 
BRANCH  17  18
ATOM     18  N   LIG    1        7.112  -0.507  -1.500  0.00  0.00    -1.110 NA
ATOM     19  H   LIG    1        7.266  -1.209  -2.151  0.00  0.00    +0.430 HD
BRANCH  18  20
ATOM     20  S   LIG    1        6.372  -0.860  -0.061  0.00  0.00    +2.690 S 
ATOM     21  O   LIG    1        6.060  -2.246  -0.099  0.00  0.00    -0.960 OA
ATOM     22  O   LIG    1        7.171  -0.271   0.956  0.00  0.00    -0.950 OA
BRANCH  20  23
ATOM     23  C   LIG    1        4.832  -0.004  -0.043  0.00  0.00    -0.600 C 
ATOM     24  C   LIG    1        3.695  -0.685  -0.036  0.00  0.00    +0.220 C 
BRANCH  24  25
ATOM     25  C   LIG    1        2.403   0.034  -0.020  0.00  0.00    -0.100 A 
ATOM     26  C   LIG    1        1.204  -0.681  -0.013  0.00  0.00    +0.040 A 
ATOM     27  C   LIG    1        0.002  -0.004   0.002  0.00  0.00    +0.000 A 
ATOM     28  C   LIG    1       -0.017   1.379   0.010  0.00  0.00    +0.030 A 
ATOM     29  C   LIG    1        1.168   2.093   0.002  0.00  0.00    +0.000 A 
ATOM     30  C   LIG    1        2.377   1.429  -0.013  0.00  0.00    +0.040 A 
ENDBRANCH  24  25
ENDBRANCH  20  23
ENDBRANCH  18  20
ENDBRANCH  17  18
ENDBRANCH   3  17
TORSDOF 9
