REMARK  Name = ZINCrD0000071Job.0
REMARK                            x       y       z     vdW  Elec       q    Type
REMARK                         _______ _______ _______ _____ _____    ______ ____
ROOT
ATOM      1  C   LIG    1        1.411   2.466   0.090  0.00  0.00    -0.100 A 
ATOM      2  C   LIG    1        0.137   2.061   0.476  0.00  0.00    +0.080 A 
ATOM      3  C   LIG    1       -0.129   0.719   0.682  0.00  0.00    +0.030 A 
ATOM      4  C   LIG    1        0.866  -0.227   0.508  0.00  0.00    +0.060 A 
ATOM      5  C   LIG    1        2.137   0.157   0.125  0.00  0.00    +0.050 A 
ATOM      6  C   LIG    1        2.424   1.504  -0.088  0.00  0.00    -0.080 A 
ENDROOT
BRANCH   1   7
ATOM      7  C   LIG    1        1.700   3.899  -0.131  0.00  0.00    +0.510 C 
ATOM      8  O   LIG    1        2.834   4.260  -0.373  0.00  0.00    -0.480 OA
BRANCH   7   9
ATOM      9  O   LIG    1        0.705   4.805  -0.065  0.00  0.00    -0.340 OA
BRANCH   9  10
ATOM     10  C   LIG    1        1.062   6.194  -0.294  0.00  0.00    +0.380 C 
BRANCH  10  15
ATOM     11  N   LIG    1       -1.009   7.391  -1.177  0.00  0.00    -0.290 N 
ATOM     12  N   LIG    1       -1.932   8.132  -0.663  0.00  0.00    -0.080 NA
ATOM     13  N   LIG    1       -1.698   8.273   0.595  0.00  0.00    -0.070 NA
ATOM     14  N   LIG    1       -0.629   7.624   0.907  0.00  0.00    -0.270 NA
ATOM     15  C   LIG    1       -0.170   7.054  -0.181  0.00  0.00    +0.170 A 
BRANCH  11  16
ATOM     16  C   LIG    1       -0.898   6.989  -2.582  0.00  0.00    +0.340 C 
BRANCH  16  18
ATOM     17  C   LIG    1       -1.537   5.257  -4.265  0.00  0.00    +0.040 C 
ATOM     18  C   LIG    1       -1.653   5.677  -2.799  0.00  0.00    +0.020 C 
ENDBRANCH  16  18
ENDBRANCH  11  16
ENDBRANCH  10  15
ENDBRANCH   9  10
ENDBRANCH   7   9
ENDBRANCH   1   7
BRANCH   6  19
ATOM     19  C   LIG    1        3.782   1.920  -0.497  0.00  0.00    +0.450 C 
ATOM     20  O   LIG    1        4.681   1.948   0.321  0.00  0.00    -0.430 OA
BRANCH  19  21
ATOM     21  C   LIG    1        4.047   2.300  -1.899  0.00  0.00    -0.140 A 
ATOM     22  C   LIG    1        3.055   2.136  -2.870  0.00  0.00    +0.070 A 
ATOM     23  C   LIG    1        3.307   2.497  -4.176  0.00  0.00    +0.020 A 
ATOM     24  C   LIG    1        4.544   3.014  -4.529  0.00  0.00    -0.010 A 
ATOM     25  C   LIG    1        5.533   3.174  -3.572  0.00  0.00    +0.020 A 
ATOM     26 CL   LIG    1        4.855   3.461  -6.177  0.00  0.00    -0.060 Cl
ATOM     27  C   LIG    1        5.292   2.821  -2.261  0.00  0.00    +0.100 A 
ENDBRANCH  19  21
ENDBRANCH   6  19
TORSDOF 8
