REMARK  Name = ZINCpk00000kV8ql.0
REMARK                            x       y       z     vdW  Elec       q    Type
REMARK                         _______ _______ _______ _____ _____    ______ ____
ROOT
ATOM      1  C   LIG    1        0.967  -4.497   2.821  0.00  0.00    +0.210 C 
ATOM      2  C   LIG    1        1.924  -5.431   3.569  0.00  0.00    +0.020 C 
ATOM      3  C   LIG    1        2.141  -4.903   4.988  0.00  0.00    +0.020 C 
ATOM      4  C   LIG    1        2.775  -3.511   4.925  0.00  0.00    +0.010 C 
ATOM      5  C   LIG    1        1.833  -2.558   4.193  0.00  0.00    +0.280 C 
ATOM      6  N   LIG    1        1.498  -3.129   2.881  0.00  0.00    -0.610 N 
ATOM      7  C   LIG    1        1.681  -2.413   1.754  0.00  0.00    +0.520 C 
ATOM      8  O   LIG    1        1.493  -2.928   0.672  0.00  0.00    -0.520 OA
ENDROOT
BRANCH   1   9
ATOM      9  C   LIG    1        0.853  -4.940   1.361  0.00  0.00    +0.320 C 
BRANCH   9  11
ATOM     10  C   LIG    1        0.222  -6.942   0.124  0.00  0.00    +0.590 C 
ATOM     11  N   LIG    1        0.297  -6.294   1.304  0.00  0.00    -0.720 N 
ATOM     12  H   LIG    1       -0.016  -6.725   2.114  0.00  0.00    +0.400 HD
ATOM     13  O   LIG    1        0.536  -6.372  -0.904  0.00  0.00    -0.530 OA
BRANCH  10  19
ATOM     14  C   LIG    1        0.129  -8.772  -2.368  0.00  0.00    +0.380 C 
ATOM     15  N   LIG    1       -0.285  -9.153  -1.016  0.00  0.00    -0.260 N 
ATOM     16  N   LIG    1       -0.746 -10.304  -0.679  0.00  0.00    -0.280 NA
ATOM     17  C   LIG    1       -1.028 -10.339   0.598  0.00  0.00    +0.190 A 
ATOM     18  C   LIG    1       -0.715  -9.091   1.141  0.00  0.00    -0.030 A 
ATOM     19  C   LIG    1       -0.242  -8.338   0.080  0.00  0.00    -0.040 A 
ENDBRANCH  10  19
ENDBRANCH   9  11
ENDBRANCH   1   9
BRANCH   7  20
ATOM     20  C   LIG    1        2.118  -0.974   1.838  0.00  0.00    +0.040 C 
BRANCH  20  21
ATOM     21  C   LIG    1        2.250  -0.398   0.426  0.00  0.00    +0.320 C 
BRANCH  21  22
ATOM     22  N   LIG    1        2.675   1.002   0.508  0.00  0.00    -0.450 N 
ATOM     23  C   LIG    1        1.846   2.082   0.578  0.00  0.00    +0.140 A 
ATOM     24  C   LIG    1        2.605   3.194   0.644  0.00  0.00    -0.070 A 
ATOM     25  C   LIG    1        3.954   2.787   0.604  0.00  0.00    -0.070 A 
ATOM     26  C   LIG    1        3.966   1.441   0.520  0.00  0.00    +0.140 A 
ENDBRANCH  21  22
ENDBRANCH  20  21
ENDBRANCH   7  20
TORSDOF 6
