REMARK  Name = ZINCqH0000001nQi.0
REMARK                            x       y       z     vdW  Elec       q    Type
REMARK                         _______ _______ _______ _____ _____    ______ ____
ROOT
ATOM      1  N   LIG    1       -1.129   1.681   0.453  0.00  0.00    -0.450 N 
ATOM      2  C   LIG    1       -2.041   1.106   1.292  0.00  0.00    +0.160 A 
ATOM      3  N   LIG    1       -2.289   1.972   2.249  0.00  0.00    -0.280 NA
ATOM      4  N   LIG    1       -1.600   3.041   2.066  0.00  0.00    -0.250 NA
ATOM      5  C   LIG    1       -0.865   2.921   0.985  0.00  0.00    +0.220 A 
ENDROOT
BRANCH   5   6
ATOM      6  C   LIG    1        0.068   3.931   0.441  0.00  0.00    -0.060 A 
ATOM      7  C   LIG    1        1.100   3.543  -0.414  0.00  0.00    +0.050 A 
ATOM      8  C   LIG    1        1.963   4.491  -0.924  0.00  0.00    +0.010 A 
ATOM      9  C   LIG    1        1.816   5.823  -0.581  0.00  0.00    +0.070 A 
ATOM     10  C   LIG    1        0.799   6.216   0.272  0.00  0.00    +0.000 A 
ATOM     11  C   LIG    1       -0.077   5.278   0.785  0.00  0.00    +0.140 A 
ATOM     12  F   LIG    1       -1.069   5.662   1.617  0.00  0.00    -0.110 F 
ENDBRANCH   5   6
BRANCH   1  13
ATOM     13  C   LIG    1       -0.548   1.095  -0.758  0.00  0.00    +0.310 C 
BRANCH  13  15
ATOM     14  C   LIG    1        0.230  -0.947   0.453  0.00  0.00    +0.050 C 
ATOM     15  C   LIG    1        0.675   0.255  -0.383  0.00  0.00    -0.040 C 
ATOM     16  C   LIG    1        1.366  -0.236  -1.656  0.00  0.00    +0.040 C 
ENDBRANCH  13  15
ENDBRANCH   1  13
BRANCH   2  17
ATOM     17  S   LIG    1       -2.751  -0.498   1.123  0.00  0.00    +0.030 S 
BRANCH  17  18
ATOM     18  C   LIG    1       -3.826  -0.520   2.579  0.00  0.00    +0.150 C 
BRANCH  18  19
ATOM     19  C   LIG    1       -4.558  -1.836   2.643  0.00  0.00    +0.020 A 
ATOM     20  C   LIG    1       -4.186  -2.788   3.546  0.00  0.00    -0.070 A 
ATOM     21  C   LIG    1       -4.884  -4.008   3.586  0.00  0.00    +0.510 A 
ATOM     22  N   LIG    1       -5.907  -4.226   2.739  0.00  0.00    -0.500 N 
ATOM     23  C   LIG    1       -6.279  -3.280   1.840  0.00  0.00    +0.310 A 
ATOM     24  C   LIG    1       -6.629  -5.501   2.789  0.00  0.00    +0.330 C 
ATOM     25  O   LIG    1       -4.561  -4.868   4.389  0.00  0.00    -0.550 OA
ATOM     26  C   LIG    1       -5.632  -2.093   1.779  0.00  0.00    -0.070 A 
ENDBRANCH  18  19
ENDBRANCH  17  18
ENDBRANCH   2  17
TORSDOF 6
