REMARK  Name = ZINCrH000004lcDc.0
REMARK                            x       y       z     vdW  Elec       q    Type
REMARK                         _______ _______ _______ _____ _____    ______ ____
ROOT
ATOM      1  C   LIG    1       -3.510   7.002   0.172  0.00  0.00    -0.250 A 
ATOM      2  C   LIG    1       -2.816   6.326   1.183  0.00  0.00    +0.430 A 
ATOM      3  N   LIG    1       -1.576   5.935   0.957  0.00  0.00    -0.530 NA
ATOM      4  C   LIG    1       -0.988   6.174  -0.208  0.00  0.00    +0.580 A 
ATOM      5  N   LIG    1       -1.610   6.816  -1.189  0.00  0.00    -0.520 NA
ATOM      6  C   LIG    1       -2.853   7.234  -1.044  0.00  0.00    +0.190 A 
ENDROOT
BRANCH   1   8
ATOM      7  N   LIG    1       -5.839   6.584   0.791  0.00  0.00    -0.600 N 
ATOM      8  C   LIG    1       -4.898   7.457   0.381  0.00  0.00    +0.580 C 
ATOM      9  O   LIG    1       -5.193   8.620   0.182  0.00  0.00    -0.500 OA
ATOM     10  C   LIG    1       -5.470   5.200   1.100  0.00  0.00    +0.280 C 
BRANCH   7  11
ATOM     11  C   LIG    1       -7.231   7.018   0.929  0.00  0.00    +0.180 C 
ATOM     12  C   LIG    1       -7.749   7.510  -0.424  0.00  0.00    +0.050 C 
ATOM     13  C   LIG    1       -7.312   8.156   1.949  0.00  0.00    +0.050 C 
BRANCH  11  14
ATOM     14  C   LIG    1       -8.088   5.843   1.406  0.00  0.00    +0.180 C 
BRANCH  14  16
ATOM     15  C   LIG    1      -10.334   5.239   1.984  0.00  0.00    +0.200 C 
ATOM     16  O   LIG    1       -9.446   6.267   1.541  0.00  0.00    -0.380 OA
ENDBRANCH  14  16
ENDBRANCH  11  14
ENDBRANCH   7  11
ENDBRANCH   1   8
BRANCH   6  17
ATOM     17  C   LIG    1       -3.552   7.957  -2.166  0.00  0.00    +0.520 C 
ATOM     18  F   LIG    1       -4.901   7.586  -2.191  0.00  0.00    -0.160 F 
ATOM     19  F   LIG    1       -2.953   7.619  -3.384  0.00  0.00    -0.160 F 
ATOM     20  F   LIG    1       -3.453   9.338  -1.964  0.00  0.00    -0.150 F 
ENDBRANCH   6  17
BRANCH   4  21
ATOM     21  N   LIG    1        0.310   5.748  -0.403  0.00  0.00    -0.620 N 
ATOM     22  H   LIG    1        0.770   5.958  -1.231  0.00  0.00    +0.430 HD
BRANCH  21  23
ATOM     23  C   LIG    1        0.963   5.014   0.592  0.00  0.00    +0.150 A 
ATOM     24  C   LIG    1        1.844   3.998   0.243  0.00  0.00    -0.010 A 
ATOM     25  C   LIG    1        2.487   3.275   1.228  0.00  0.00    +0.030 A 
ATOM     26  C   LIG    1        2.254   3.561   2.561  0.00  0.00    +0.000 A 
ATOM     27  C   LIG    1        1.373   4.568   2.912  0.00  0.00    +0.030 A 
ATOM     28  C   LIG    1        0.731   5.298   1.931  0.00  0.00    +0.030 A 
ENDBRANCH  21  23
ENDBRANCH   4  21
TORSDOF 7
