REMARK  Name = ZINCrD000000CEhN.0
REMARK                            x       y       z     vdW  Elec       q    Type
REMARK                         _______ _______ _______ _____ _____    ______ ____
ROOT
ATOM      1  C   LIG    1        0.257   1.438   4.822  0.00  0.00    -0.120 A 
ATOM      2  C   LIG    1        0.317   1.901   3.507  0.00  0.00    +0.030 A 
ATOM      3  C   LIG    1        0.847   3.147   3.238  0.00  0.00    +0.030 A 
ATOM      4  C   LIG    1        1.331   3.934   4.266  0.00  0.00    +0.010 A 
ATOM      5  C   LIG    1        1.282   3.479   5.578  0.00  0.00    +0.140 A 
ATOM      6  C   LIG    1        0.745   2.233   5.860  0.00  0.00    +0.080 A 
ENDROOT
BRANCH   1   8
ATOM      7  O   LIG    1        0.099  -0.541   6.055  0.00  0.00    -0.520 OA
ATOM      8  C   LIG    1       -0.317   0.107   5.114  0.00  0.00    +0.560 C 
ATOM      9  N   LIG    1       -1.301  -0.388   4.338  0.00  0.00    -0.610 N 
ATOM     10  C   LIG    1       -1.908   0.428   3.274  0.00  0.00    +0.250 C 
ATOM     11  C   LIG    1       -3.432   0.372   3.432  0.00  0.00    +0.220 C 
ATOM     12  O   LIG    1       -3.849  -0.994   3.502  0.00  0.00    -0.380 OA
ATOM     13  C   LIG    1       -3.329  -1.708   4.627  0.00  0.00    +0.220 C 
ATOM     14  C   LIG    1       -1.800  -1.759   4.529  0.00  0.00    +0.260 C 
ENDBRANCH   1   8
BRANCH   5  15
ATOM     15  N   LIG    1        1.773   4.280   6.615  0.00  0.00    -0.670 N 
ATOM     16  H   LIG    1        1.672   5.244   6.573  0.00  0.00    +0.410 HD
ATOM     17  C   LIG    1        2.386   3.712   7.673  0.00  0.00    +0.520 C 
ATOM     18  O   LIG    1        2.438   2.504   7.767  0.00  0.00    -0.510 OA
BRANCH  17  19
ATOM     19  C   LIG    1        3.007   4.579   8.738  0.00  0.00    -0.070 C 
ATOM     20  C   LIG    1        1.930   5.465   9.367  0.00  0.00    +0.040 C 
ATOM     21  C   LIG    1        2.561   6.344  10.448  0.00  0.00    +0.000 C 
ATOM     22  C   LIG    1        3.644   7.225   9.822  0.00  0.00    +0.020 C 
ATOM     23  C   LIG    1        4.721   6.339   9.193  0.00  0.00    +0.000 C 
ATOM     24  C   LIG    1        5.346   5.451  10.272  0.00  0.00    +0.020 C 
ATOM     25  C   LIG    1        4.263   4.571  10.898  0.00  0.00    -0.010 C 
ATOM     26  C   LIG    1        3.186   5.457  11.527  0.00  0.00    +0.020 C 
ATOM     27  C   LIG    1        4.090   5.459   8.112  0.00  0.00    +0.040 C 
ATOM     28  C   LIG    1        3.632   3.691   9.816  0.00  0.00    +0.050 C 
ENDBRANCH  17  19
ENDBRANCH   5  15
TORSDOF 3
