REMARK  Name = ZINCrD000000BoIY.0
REMARK                            x       y       z     vdW  Elec       q    Type
REMARK                         _______ _______ _______ _____ _____    ______ ____
ROOT
ATOM      1  C   LIG    1        2.490   1.048  -0.016  0.00  0.00    +0.320 C 
ENDROOT
BRANCH   1   2
ATOM      2  C   LIG    1        1.175   1.783   0.000  0.00  0.00    -0.100 A 
ATOM      3  C   LIG    1       -0.013   1.076   0.008  0.00  0.00    +0.030 A 
ATOM      4  C   LIG    1       -1.219   1.751   0.017  0.00  0.00    +0.030 A 
ATOM      5  C   LIG    1       -1.238   3.133   0.030  0.00  0.00    -0.110 A 
ATOM      6  C   LIG    1       -0.050   3.840   0.022  0.00  0.00    +0.040 A 
ATOM      7  C   LIG    1        1.156   3.165   0.008  0.00  0.00    +0.030 A 
BRANCH   5   8
ATOM      8  C   LIG    1       -2.553   3.869   0.047  0.00  0.00    +0.340 C 
BRANCH   8   9
ATOM      9  N   LIG    1       -2.993   4.114  -1.329  0.00  0.00    -0.490 N 
ATOM     10  C   LIG    1       -3.770   3.196  -1.959  0.00  0.00    +0.290 A 
ATOM     11  C   LIG    1       -4.188   3.401  -3.230  0.00  0.00    -0.080 A 
ATOM     12  C   LIG    1       -3.818   4.570  -3.909  0.00  0.00    +0.120 A 
ATOM     13  C   LIG    1       -3.038   5.491  -3.274  0.00  0.00    -0.090 A 
ATOM     14  C   LIG    1       -2.625   5.250  -1.952  0.00  0.00    +0.510 A 
ATOM     15  O   LIG    1       -1.930   6.067  -1.371  0.00  0.00    -0.550 OA
ENDBRANCH   8   9
ENDBRANCH   5   8
ENDBRANCH   1   2
BRANCH   1  18
ATOM     16  O   LIG    1        4.755  -0.220  -0.748  0.00  0.00    -0.540 OA
ATOM     17  C   LIG    1        4.057   0.171  -1.663  0.00  0.00    +0.560 C 
ATOM     18  N   LIG    1        2.903   0.817  -1.403  0.00  0.00    -0.720 N 
ATOM     19  H   LIG    1        2.346   1.128  -2.133  0.00  0.00    +0.400 HD
BRANCH  17  20
ATOM     20  C   LIG    1        4.473  -0.061  -3.060  0.00  0.00    -0.120 A 
ATOM     21  C   LIG    1        3.662   0.385  -4.113  0.00  0.00    +0.010 A 
ATOM     22  C   LIG    1        4.038   0.181  -5.407  0.00  0.00    +0.050 A 
ATOM     23  C   LIG    1        5.234  -0.488  -5.689  0.00  0.00    -0.080 A 
ATOM     24  C   LIG    1        5.913  -0.868  -6.927  0.00  0.00    -0.060 A 
ATOM     25  C   LIG    1        7.046  -1.501  -6.576  0.00  0.00    +0.240 A 
ATOM     26  N   LIG    1        7.147  -1.557  -5.215  0.00  0.00    -0.590 N 
ATOM     27  H   LIG    1        7.879  -1.966  -4.727  0.00  0.00    +0.420 HD
ATOM     28  C   LIG    1        6.054  -0.946  -4.639  0.00  0.00    +0.080 A 
ATOM     29  C   LIG    1        5.667  -0.729  -3.326  0.00  0.00    +0.080 A 
ENDBRANCH  17  20
ENDBRANCH   1  18
TORSDOF 5
