REMARK  Name = ZINCrg00000fSsyQ.0
REMARK                            x       y       z     vdW  Elec       q    Type
REMARK                         _______ _______ _______ _____ _____    ______ ____
ROOT
ATOM      1  C   LIG    1        0.640   3.376   0.014  0.00  0.00    +0.210 C 
ATOM      2  N   LIG    1        1.094   1.974   0.002  0.00  0.00    -0.720 N 
ATOM      3  H   LIG    1        2.012   1.662  -0.009  0.00  0.00    +0.450 HD
ATOM      4  C   LIG    1       -0.014   1.211   0.009  0.00  0.00    +0.700 C 
ATOM      5  N   LIG    1       -1.137   1.940   0.018  0.00  0.00    -0.680 N 
ATOM      6  H   LIG    1       -2.031   1.563   0.019  0.00  0.00    +0.440 HD
ATOM      7  O   LIG    1        0.002  -0.004   0.002  0.00  0.00    -0.520 OA
ATOM      8  C   LIG    1       -0.871   3.261   0.028  0.00  0.00    +0.530 C 
ATOM      9  O   LIG    1       -1.675   4.169   0.040  0.00  0.00    -0.430 OA
ENDROOT
BRANCH   1  15
ATOM     10  C   LIG    1        0.202   2.470   2.945  0.00  0.00    +0.320 C 
ATOM     11  N   LIG    1        0.929   3.670   2.523  0.00  0.00    -0.440 N 
ATOM     12  C   LIG    1        1.534   4.583   3.344  0.00  0.00    +0.160 A 
ATOM     13  C   LIG    1        2.075   5.525   2.548  0.00  0.00    +0.160 A 
ATOM     14  N   LIG    1        1.813   5.192   1.275  0.00  0.00    -0.450 NA
ATOM     15  C   LIG    1        1.130   4.081   1.253  0.00  0.00    +0.180 A 
ENDBRANCH   1  15
BRANCH   1  16
ATOM     16  C   LIG    1        1.116   4.106  -1.243  0.00  0.00    +0.350 C 
BRANCH  16  17
ATOM     17  N   LIG    1        0.586   3.431  -2.430  0.00  0.00    -0.730 N 
ATOM     18  H   LIG    1        0.026   2.646  -2.332  0.00  0.00    +0.400 HD
ATOM     19  C   LIG    1        0.877   3.902  -3.659  0.00  0.00    +0.550 C 
ATOM     20  O   LIG    1        1.577   4.885  -3.782  0.00  0.00    -0.520 OA
BRANCH  19  21
ATOM     21  C   LIG    1        0.331   3.208  -4.881  0.00  0.00    -0.050 C 
ATOM     22  C   LIG    1        1.328   2.477  -5.782  0.00  0.00    +0.080 C 
ATOM     23  C   LIG    1        0.697   3.791  -6.247  0.00  0.00    +0.050 C 
BRANCH  23  24
ATOM     24  C   LIG    1       -0.342   3.717  -7.336  0.00  0.00    -0.050 A 
ATOM     25  C   LIG    1       -0.817   2.488  -7.755  0.00  0.00    +0.020 A 
ATOM     26  C   LIG    1       -1.774   2.420  -8.750  0.00  0.00    +0.030 A 
ATOM     27  C   LIG    1       -2.248   3.581  -9.335  0.00  0.00    -0.040 A 
ATOM     28  C   LIG    1       -1.768   4.810  -8.919  0.00  0.00    +0.030 A 
ATOM     29 CL   LIG    1       -3.444   3.495 -10.591  0.00  0.00    -0.070 Cl
ATOM     30  C   LIG    1       -0.816   4.878  -7.919  0.00  0.00    +0.050 A 
ENDBRANCH  23  24
ENDBRANCH  19  21
ENDBRANCH  16  17
ENDBRANCH   1  16
TORSDOF 5
