REMARK  Name = ZINCqH0000051zTG.0
REMARK                            x       y       z     vdW  Elec       q    Type
REMARK                         _______ _______ _______ _____ _____    ______ ____
ROOT
ATOM      1  O   LIG    1       -3.334  -4.926   0.006  0.00  0.00    -0.470 OA
ATOM      2  C   LIG    1       -2.304  -4.284   0.000  0.00  0.00    +0.520 C 
ENDROOT
BRANCH   2   3
ATOM      3  C   LIG    1       -2.353  -2.801   0.009  0.00  0.00    +0.150 A 
ATOM      4  C   LIG    1       -3.579  -2.133   0.025  0.00  0.00    +0.000 A 
ATOM      5  C   LIG    1       -3.574  -0.744   0.033  0.00  0.00    +0.350 A 
ATOM      6  N   LIG    1       -2.420  -0.102   0.025  0.00  0.00    -0.490 NA
ATOM      7  C   LIG    1       -1.271  -0.765   0.011  0.00  0.00    +0.360 A 
ATOM      8  N   LIG    1       -1.230  -2.088  -0.002  0.00  0.00    -0.470 NA
BRANCH   7   9
ATOM      9  C   LIG    1        0.002  -0.004   0.002  0.00  0.00    -0.050 A 
ATOM     10  C   LIG    1       -0.017   1.390   0.010  0.00  0.00    +0.100 A 
ATOM     11  C   LIG    1        1.170   2.093   0.002  0.00  0.00    +0.020 A 
ATOM     12  C   LIG    1        2.378   1.417  -0.013  0.00  0.00    -0.010 A 
ATOM     13  C   LIG    1        2.402   0.033  -0.021  0.00  0.00    +0.020 A 
ATOM     14 CL   LIG    1        3.868   2.309  -0.023  0.00  0.00    -0.060 Cl
ATOM     15  C   LIG    1        1.221  -0.680  -0.013  0.00  0.00    +0.090 A 
ENDBRANCH   7   9
ENDBRANCH   2   3
BRANCH   2  16
ATOM     16  O   LIG    1       -1.116  -4.918  -0.015  0.00  0.00    -0.310 OA
BRANCH  16  17
ATOM     17  C   LIG    1       -1.144  -6.370  -0.024  0.00  0.00    +0.170 C 
ATOM     18  C   LIG    1        0.130  -6.930   0.623  0.00  0.00    +0.140 C 
ATOM     19  C   LIG    1        0.825  -7.743  -0.444  0.00  0.00    -0.040 A 
ATOM     20  C   LIG    1        2.005  -8.460  -0.399  0.00  0.00    +0.010 A 
ATOM     21  C   LIG    1        2.452  -9.139  -1.518  0.00  0.00    +0.070 A 
ATOM     22  C   LIG    1        1.721  -9.104  -2.692  0.00  0.00    +0.000 A 
ATOM     23  C   LIG    1        0.542  -8.394  -2.752  0.00  0.00    +0.090 A 
ATOM     24  C   LIG    1        0.080  -7.702  -1.622  0.00  0.00    -0.190 A 
ATOM     25  C   LIG    1       -1.132  -6.885  -1.443  0.00  0.00    +0.390 C 
ATOM     26  O   LIG    1       -1.973  -6.664  -2.287  0.00  0.00    -0.410 OA
ENDBRANCH  16  17
ENDBRANCH   2  16
TORSDOF 4
