REMARK  Name = ZINCpk000000ouWW.0
REMARK                            x       y       z     vdW  Elec       q    Type
REMARK                         _______ _______ _______ _____ _____    ______ ____
ROOT
ATOM      1  N   LIG    1       -0.551   0.401  -5.168  0.00  0.00    -0.540 N 
ATOM      2  C   LIG    1        0.695  -0.084  -5.282  0.00  0.00    +0.710 A 
ATOM      3  N   LIG    1        1.389  -0.541  -4.227  0.00  0.00    -0.660 N 
ATOM      4  H   LIG    1        2.288  -0.883  -4.357  0.00  0.00    +0.430 HD
ATOM      5  C   LIG    1        0.854  -0.530  -2.989  0.00  0.00    +0.580 A 
ATOM      6  C   LIG    1       -0.508  -0.008  -2.816  0.00  0.00    -0.440 A 
ATOM      7  O   LIG    1        1.486  -0.944  -2.034  0.00  0.00    -0.500 OA
ATOM      8  O   LIG    1        1.214  -0.111  -6.380  0.00  0.00    -0.530 OA
ATOM      9  C   LIG    1       -1.186   0.450  -3.959  0.00  0.00    +0.550 A 
ENDROOT
BRANCH   9  10
ATOM     10  N   LIG    1       -2.452   0.939  -3.863  0.00  0.00    -0.800 N 
ATOM     11  H   LIG    1       -3.042   0.914  -4.633  0.00  0.00    +0.410 HD
ATOM     12  H   LIG    1       -2.764   1.314  -3.024  0.00  0.00    +0.440 HD
ENDBRANCH   9  10
BRANCH   6  13
ATOM     13  C   LIG    1       -1.119   0.028  -1.544  0.00  0.00    +0.440 C 
ATOM     14  O   LIG    1       -2.285   0.350  -1.440  0.00  0.00    -0.480 OA
BRANCH  13  15
ATOM     15  C   LIG    1       -0.324  -0.335  -0.317  0.00  0.00    +0.210 C 
BRANCH  15  16
ATOM     16  N   LIG    1       -1.179  -0.220   0.872  0.00  0.00    -0.520 NA
ATOM     17  C   LIG    1       -1.569   1.177   1.108  0.00  0.00    +0.190 C 
BRANCH  16  18
ATOM     18  C   LIG    1       -0.518  -0.789   2.054  0.00  0.00    +0.230 C 
BRANCH  18  19
ATOM     19  C   LIG    1       -1.541  -1.037   3.132  0.00  0.00    -0.070 A 
ATOM     20  C   LIG    1       -1.557  -0.245   4.265  0.00  0.00    +0.030 A 
ATOM     21  C   LIG    1       -2.496  -0.473   5.254  0.00  0.00    +0.010 A 
ATOM     22  C   LIG    1       -3.418  -1.492   5.111  0.00  0.00    +0.020 A 
ATOM     23  C   LIG    1       -3.403  -2.284   3.978  0.00  0.00    +0.010 A 
ATOM     24  C   LIG    1       -2.468  -2.053   2.985  0.00  0.00    -0.010 A 
ATOM     25 CL   LIG    1       -2.454  -3.043   1.559  0.00  0.00    -0.060 Cl
ENDBRANCH  18  19
ENDBRANCH  16  18
ENDBRANCH  15  16
ENDBRANCH  13  15
ENDBRANCH   6  13
BRANCH   1  26
ATOM     26  C   LIG    1       -1.247   0.881  -6.364  0.00  0.00    +0.310 C 
BRANCH  26  28
ATOM     27  C   LIG    1       -2.750   0.228  -8.250  0.00  0.00    +0.040 C 
ATOM     28  C   LIG    1       -2.023  -0.274  -7.000  0.00  0.00    +0.000 C 
ENDBRANCH  26  28
ENDBRANCH   1  26
TORSDOF 8
