REMARK  Name = ZINCpk000004ANOo.0
REMARK                            x       y       z     vdW  Elec       q    Type
REMARK                         _______ _______ _______ _____ _____    ______ ____
ROOT
ATOM      1  C   LIG    1       -0.439   3.285  -2.948  0.00  0.00    +0.520 C 
ATOM      2  N   LIG    1       -0.274   2.897  -1.668  0.00  0.00    -0.720 N 
ATOM      3  H   LIG    1        0.207   3.467  -1.047  0.00  0.00    +0.400 HD
ATOM      4  O   LIG    1       -1.040   2.573  -3.724  0.00  0.00    -0.530 OA
ENDROOT
BRANCH   1   9
ATOM      5  C   LIG    1       -0.680   8.296  -5.027  0.00  0.00    +0.550 C 
ATOM      6  N   LIG    1       -0.084   7.206  -4.504  0.00  0.00    -0.610 N 
ATOM      7  C   LIG    1        0.398   6.126  -5.376  0.00  0.00    +0.280 C 
ATOM      8  C   LIG    1       -0.203   4.801  -4.897  0.00  0.00    +0.060 C 
ATOM      9  C   LIG    1        0.121   4.604  -3.414  0.00  0.00    -0.010 C 
ATOM     10  C   LIG    1       -0.502   5.740  -2.599  0.00  0.00    +0.030 C 
ATOM     11  C   LIG    1        0.096   7.076  -3.052  0.00  0.00    +0.280 C 
ATOM     12  O   LIG    1       -0.740   8.436  -6.234  0.00  0.00    -0.540 OA
BRANCH   5  14
ATOM     13  C   LIG    1       -1.935  10.339  -4.652  0.00  0.00    +0.140 C 
ATOM     14  C   LIG    1       -1.257   9.316  -4.139  0.00  0.00    -0.090 C 
ENDBRANCH   5  14
ENDBRANCH   1   9
BRANCH   2  15
ATOM     15  C   LIG    1       -0.819   1.615  -1.214  0.00  0.00    +0.250 C 
ATOM     16  C   LIG    1       -2.237   1.795  -0.625  0.00  0.00    +0.060 C 
ATOM     17  C   LIG    1       -2.002   1.977   0.859  0.00  0.00    +0.520 C 
ATOM     18  N   LIG    1       -0.758   1.575   1.184  0.00  0.00    -0.620 N 
ATOM     19  O   LIG    1       -2.815   2.421   1.641  0.00  0.00    -0.520 OA
ATOM     20  C   LIG    1       -0.035   1.082   0.006  0.00  0.00    +0.280 C 
BRANCH  18  21
ATOM     21  C   LIG    1       -0.199   1.624   2.537  0.00  0.00    +0.250 C 
ATOM     22  C   LIG    1       -1.052   0.766   3.473  0.00  0.00    +0.010 C 
ATOM     23  C   LIG    1       -0.467   0.817   4.886  0.00  0.00    +0.010 C 
ATOM     24  C   LIG    1       -0.462   2.264   5.384  0.00  0.00    +0.000 C 
ATOM     25  C   LIG    1        0.391   3.122   4.448  0.00  0.00    +0.020 C 
ATOM     26  C   LIG    1       -0.194   3.071   3.035  0.00  0.00    +0.010 C 
ENDBRANCH  18  21
ENDBRANCH   2  15
TORSDOF 4
