REMARK  Name = ZINCqH0000034yAa.0
REMARK                            x       y       z     vdW  Elec       q    Type
REMARK                         _______ _______ _______ _____ _____    ______ ____
ROOT
ATOM      1  N   LIG    1       -1.672  -1.265   3.613  0.00  0.00    -0.370 N 
ATOM      2  N   LIG    1       -0.998  -0.768   2.489  0.00  0.00    -0.240 NA
ATOM      3  C   LIG    1       -1.611  -1.193   1.431  0.00  0.00    +0.270 A 
ATOM      4  N   LIG    1       -2.675  -1.970   1.817  0.00  0.00    -0.490 N 
ATOM      5  C   LIG    1       -2.705  -2.009   3.165  0.00  0.00    +0.470 A 
ATOM      6  S   LIG    1       -3.843  -2.848   4.129  0.00  0.00    -0.580 S 
ENDROOT
BRANCH   1   7
ATOM      7  C   LIG    1       -1.318  -1.026   5.014  0.00  0.00    +0.540 C 
BRANCH   7   9
ATOM      8  C   LIG    1       -0.512  -3.213   5.669  0.00  0.00    +0.220 C 
ATOM      9  N   LIG    1       -0.137  -1.826   5.364  0.00  0.00    -0.550 NA
BRANCH   9  10
ATOM     10  C   LIG    1        0.596  -1.220   6.484  0.00  0.00    +0.380 C 
BRANCH  10  11
ATOM     11  C   LIG    1        1.889  -1.905   6.652  0.00  0.00    +0.210 C 
ATOM     12  N   LIG    1        2.886  -2.433   6.781  0.00  0.00    -0.410 NA
ENDBRANCH  10  11
ENDBRANCH   9  10
ENDBRANCH   7   9
ENDBRANCH   1   7
BRANCH   4  13
ATOM     13  C   LIG    1       -3.616  -2.643   0.919  0.00  0.00    +0.340 C 
BRANCH  13  14
ATOM     14  C   LIG    1       -3.097  -4.044   0.592  0.00  0.00    +0.080 C 
BRANCH  14  15
ATOM     15  C   LIG    1       -4.066  -4.736  -0.333  0.00  0.00    -0.090 A 
ATOM     16  C   LIG    1       -5.095  -5.497   0.189  0.00  0.00    +0.020 A 
ATOM     17  C   LIG    1       -5.987  -6.127  -0.658  0.00  0.00    +0.000 A 
ATOM     18  C   LIG    1       -5.843  -6.005  -2.028  0.00  0.00    +0.000 A 
ATOM     19  C   LIG    1       -4.810  -5.249  -2.550  0.00  0.00    +0.000 A 
ATOM     20  C   LIG    1       -3.921  -4.614  -1.702  0.00  0.00    +0.010 A 
ENDBRANCH  14  15
ENDBRANCH  13  14
ENDBRANCH   4  13
BRANCH   3  21
ATOM     21  C   LIG    1       -1.217  -0.889   0.008  0.00  0.00    +0.260 C 
BRANCH  21  22
ATOM     22  C   LIG    1        0.002  -0.004   0.002  0.00  0.00    -0.190 A 
ATOM     23  C   LIG    1        1.265  -0.434  -0.012  0.00  0.00    +0.030 A 
ATOM     24  C   LIG    1        2.222   0.566  -0.016  0.00  0.00    +0.000 A 
ATOM     25  C   LIG    1        1.736   1.808  -0.005  0.00  0.00    -0.030 A 
ATOM     26  S   LIG    1       -0.022   1.755   0.012  0.00  0.00    +0.120 S 
ENDBRANCH  21  22
ENDBRANCH   3  21
TORSDOF 9
