REMARK  Name = ZINCvU0000000GRt.0
REMARK                            x       y       z     vdW  Elec       q    Type
REMARK                         _______ _______ _______ _____ _____    ______ ____
ROOT
ATOM      1  O   LIG    1        1.422   6.154  -0.410  0.00  0.00    -0.510 OA
ATOM      2  C   LIG    1        1.161   5.599  -1.456  0.00  0.00    +0.520 C 
ATOM      3  N   LIG    1        1.749   6.004  -2.600  0.00  0.00    -0.610 N 
ATOM      4  C   LIG    1        1.526   5.274  -3.855  0.00  0.00    +0.280 C 
ATOM      5  C   LIG    1        2.879   4.903  -4.460  0.00  0.00    +0.010 C 
ATOM      6  C   LIG    1        3.733   6.164  -4.609  0.00  0.00    +0.030 C 
ATOM      7  C   LIG    1        3.973   6.785  -3.231  0.00  0.00    +0.030 C 
ATOM      8  C   LIG    1        2.628   7.181  -2.613  0.00  0.00    +0.330 C 
ENDROOT
BRANCH   8   9
ATOM      9  C   LIG    1        2.844   7.667  -1.203  0.00  0.00    +0.120 A 
ATOM     10  N   LIG    1        2.263   8.687  -0.696  0.00  0.00    -0.470 NA
ATOM     11  C   LIG    1        2.551   9.006   0.580  0.00  0.00    +0.100 A 
ATOM     12  C   LIG    1        2.064  10.062   1.376  0.00  0.00    +0.060 A 
ATOM     13  C   LIG    1        2.490  10.210   2.662  0.00  0.00    +0.020 A 
ATOM     14  C   LIG    1        3.409   9.329   3.211  0.00  0.00    +0.020 A 
ATOM     15  C   LIG    1        3.902   8.287   2.457  0.00  0.00    +0.060 A 
ATOM     16  C   LIG    1        3.478   8.120   1.141  0.00  0.00    -0.180 A 
ATOM     17  S   LIG    1        3.889   6.919  -0.080  0.00  0.00    +0.120 S 
ENDBRANCH   8   9
BRANCH   2  18
ATOM     18  C   LIG    1        0.180   4.456  -1.478  0.00  0.00    +0.080 C 
BRANCH  18  19
ATOM     19  C   LIG    1       -0.336   4.200  -0.060  0.00  0.00    +0.220 C 
BRANCH  19  20
ATOM     20  C   LIG    1       -1.318   3.056  -0.082  0.00  0.00    +0.190 A 
ATOM     21  N   LIG    1       -1.036   1.786   0.072  0.00  0.00    -0.470 NA
ATOM     22  C   LIG    1       -2.219   1.138  -0.021  0.00  0.00    +0.210 A 
ATOM     23  N   LIG    1       -3.141   2.044  -0.224  0.00  0.00    -0.370 NA
ATOM     24  O   LIG    1       -2.639   3.148  -0.261  0.00  0.00    +0.090 OA
BRANCH  22  25
ATOM     25  C   LIG    1       -2.432  -0.326   0.086  0.00  0.00    -0.040 A 
ATOM     26  C   LIG    1       -1.349  -1.176   0.299  0.00  0.00    +0.110 A 
ATOM     27  C   LIG    1       -1.552  -2.537   0.405  0.00  0.00    -0.010 A 
ATOM     28  C   LIG    1       -2.830  -3.059   0.288  0.00  0.00    +0.120 A 
ATOM     29  C   LIG    1       -3.909  -2.218   0.070  0.00  0.00    +0.000 A 
ATOM     30  F   LIG    1       -3.024  -4.393   0.386  0.00  0.00    -0.130 F 
ATOM     31  C   LIG    1       -3.716  -0.856  -0.030  0.00  0.00    +0.090 A 
ENDBRANCH  22  25
ENDBRANCH  19  20
ENDBRANCH  18  19
ENDBRANCH   2  18
TORSDOF 5
