REMARK  Name = ZINCpk000005iFen.0
REMARK                            x       y       z     vdW  Elec       q    Type
REMARK                         _______ _______ _______ _____ _____    ______ ____
ROOT
ATOM      1  N   LIG    1        6.737   1.988  -4.558  0.00  0.00    -0.520 NA
ATOM      2  C   LIG    1        7.191   2.895  -5.618  0.00  0.00    +0.280 C 
ATOM      3  C   LIG    1        8.694   2.893  -5.705  0.00  0.00    -0.090 A 
ATOM      4  C   LIG    1        9.289   3.385  -6.857  0.00  0.00    +0.020 A 
ATOM      5  C   LIG    1       10.664   3.406  -6.979  0.00  0.00    +0.000 A 
ATOM      6  C   LIG    1       11.454   2.935  -5.947  0.00  0.00    +0.000 A 
ATOM      7  C   LIG    1       10.863   2.443  -4.800  0.00  0.00    +0.000 A 
ATOM      8  C   LIG    1        9.482   2.419  -4.678  0.00  0.00    -0.090 A 
ATOM      9  C   LIG    1        8.882   1.865  -3.412  0.00  0.00    +0.050 C 
ATOM     10  C   LIG    1        7.421   2.300  -3.293  0.00  0.00    +0.170 C 
ENDROOT
BRANCH   1  11
ATOM     11  C   LIG    1        6.948   0.586  -4.939  0.00  0.00    +0.200 C 
BRANCH  11  12
ATOM     12  C   LIG    1        6.297   0.323  -6.299  0.00  0.00    +0.170 C 
BRANCH  12  14
ATOM     13  C   LIG    1        6.585   0.696  -8.649  0.00  0.00    +0.200 C 
ATOM     14  O   LIG    1        7.107   0.887  -7.332  0.00  0.00    -0.380 OA
ENDBRANCH  12  14
ENDBRANCH  11  12
ENDBRANCH   1  11
BRANCH  10  15
ATOM     15  C   LIG    1        6.750   1.541  -2.146  0.00  0.00    +0.280 C 
BRANCH  15  16
ATOM     16  N   LIG    1        5.319   1.853  -2.125  0.00  0.00    -0.710 N 
ATOM     17  H   LIG    1        4.946   2.461  -2.783  0.00  0.00    +0.410 HD
ATOM     18  C   LIG    1        4.521   1.295  -1.194  0.00  0.00    +0.520 C 
ATOM     19  O   LIG    1        4.988   0.535  -0.372  0.00  0.00    -0.550 OA
BRANCH  18  20
ATOM     20  C   LIG    1        3.049   1.615  -1.173  0.00  0.00    +0.060 C 
BRANCH  20  21
ATOM     21  C   LIG    1        2.378   0.857  -0.025  0.00  0.00    +0.340 C 
BRANCH  21  22
ATOM     22  N   LIG    1        0.947   1.168  -0.005  0.00  0.00    -0.380 N 
ATOM     23  C   LIG    1       -0.061   0.272  -0.047  0.00  0.00    +0.220 A 
ATOM     24  C   LIG    1       -1.226   0.959  -0.014  0.00  0.00    -0.130 A 
ATOM     25  C   LIG    1       -0.919   2.322   0.059  0.00  0.00    +0.230 A 
ATOM     26  N   LIG    1        0.383   2.448   0.061  0.00  0.00    -0.300 NA
ENDBRANCH  21  22
ENDBRANCH  20  21
ENDBRANCH  18  20
ENDBRANCH  15  16
ENDBRANCH  10  15
TORSDOF 8
