REMARK  Name = ZINCpe00000VVGlL.0
REMARK                            x       y       z     vdW  Elec       q    Type
REMARK                         _______ _______ _______ _____ _____    ______ ____
ROOT
ATOM      1  N   LIG    1       -5.619  -0.972   0.016  0.00  0.00    -0.700 N 
ATOM      2  H   LIG    1       -6.035  -1.322   0.819  0.00  0.00    +0.410 HD
ATOM      3  C   LIG    1       -6.292  -0.985  -1.152  0.00  0.00    +0.510 C 
ATOM      4  O   LIG    1       -5.771  -0.547  -2.157  0.00  0.00    -0.510 OA
ENDROOT
BRANCH   3   5
ATOM      5  C   LIG    1       -7.678  -1.539  -1.209  0.00  0.00    +0.510 C 
ATOM      6  N   LIG    1       -8.350  -1.552  -2.377  0.00  0.00    -0.640 N 
ATOM      7  H   LIG    1       -7.965  -1.134  -3.163  0.00  0.00    +0.430 HD
ATOM      8  O   LIG    1       -8.198  -1.977  -0.204  0.00  0.00    -0.490 OA
BRANCH   6   9
ATOM      9  C   LIG    1       -9.602  -2.170  -2.456  0.00  0.00    +0.130 A 
ATOM     10  C   LIG    1       -9.871  -3.296  -1.686  0.00  0.00    +0.090 A 
ATOM     11  C   LIG    1      -11.108  -3.908  -1.755  0.00  0.00    +0.030 A 
ATOM     12  C   LIG    1      -12.084  -3.410  -2.599  0.00  0.00    +0.140 A 
ATOM     13  C   LIG    1      -11.821  -2.280  -3.381  0.00  0.00    -0.040 A 
ATOM     14  F   LIG    1      -13.291  -4.014  -2.667  0.00  0.00    -0.120 F 
ATOM     15  C   LIG    1      -10.573  -1.661  -3.305  0.00  0.00    +0.090 A 
BRANCH  13  16
ATOM     16  C   LIG    1      -12.829  -1.761  -4.256  0.00  0.00    +0.250 C 
ATOM     17  N   LIG    1      -13.629  -1.349  -4.950  0.00  0.00    -0.390 NA
ENDBRANCH  13  16
ENDBRANCH   6   9
ENDBRANCH   3   5
BRANCH   1  18
ATOM     18  C   LIG    1       -4.260  -0.429   0.072  0.00  0.00    +0.290 C 
BRANCH  18  19
ATOM     19  C   LIG    1       -3.728  -0.532   1.503  0.00  0.00    +0.180 C 
BRANCH  19  23
ATOM     20  C   LIG    1       -0.137   1.312   0.172  0.00  0.00    +0.020 C 
ATOM     21  C   LIG    1       -0.922   1.973   1.306  0.00  0.00    +0.200 C 
ATOM     22  C   LIG    1       -2.365   1.460   1.296  0.00  0.00    +0.160 C 
ATOM     23  N   LIG    1       -2.365   0.013   1.560  0.00  0.00    -0.530 NA
ATOM     24  C   LIG    1       -1.733  -0.282   2.854  0.00  0.00    +0.170 C 
ATOM     25  C   LIG    1       -0.298   0.250   2.848  0.00  0.00    +0.160 C 
ATOM     26  C   LIG    1        0.339   0.018   4.220  0.00  0.00    +0.050 C 
ATOM     27  O   LIG    1       -0.315   1.651   2.560  0.00  0.00    -0.380 OA
ENDBRANCH  19  23
ENDBRANCH  18  19
ENDBRANCH   1  18
TORSDOF 6
