REMARK  Name = ZINCpe000000UiWN.0
REMARK                            x       y       z     vdW  Elec       q    Type
REMARK                         _______ _______ _______ _____ _____    ______ ____
ROOT
ATOM      1  C   LIG    1       -2.353   1.174   4.444  0.00  0.00    +0.360 C 
ATOM      2  C   LIG    1       -1.351   1.277   5.598  0.00  0.00    -0.320 C 
ATOM      3  S   LIG    1       -2.174   0.780   7.140  0.00  0.00    +2.420 S 
ATOM      4  C   LIG    1       -3.597   1.908   7.167  0.00  0.00    -0.340 C 
ATOM      5  C   LIG    1       -4.385   1.745   5.863  0.00  0.00    +0.320 C 
ATOM      6  O   LIG    1       -1.322   1.098   8.232  0.00  0.00    -0.930 OA
ATOM      7  O   LIG    1       -2.650  -0.550   6.992  0.00  0.00    -0.930 OA
ATOM      8  N   LIG    1       -3.510   2.027   4.724  0.00  0.00    -0.640 N 
ATOM      9  C   LIG    1       -3.771   3.081   3.926  0.00  0.00    +0.710 C 
ATOM     10  N   LIG    1       -4.760   3.939   4.245  0.00  0.00    -0.740 N 
ATOM     11  H   LIG    1       -5.231   3.845   5.088  0.00  0.00    +0.400 HD
ATOM     12  O   LIG    1       -3.114   3.258   2.918  0.00  0.00    -0.540 OA
ENDROOT
BRANCH   1  15
ATOM     13  N   LIG    1       -0.970   1.672   1.107  0.00  0.00    -0.380 N 
ATOM     14  C   LIG    1       -1.650   0.929   2.006  0.00  0.00    +0.220 A 
ATOM     15  C   LIG    1       -1.695   1.625   3.166  0.00  0.00    -0.210 A 
ATOM     16  C   LIG    1       -1.027   2.837   2.967  0.00  0.00    +0.290 A 
ATOM     17  N   LIG    1       -0.592   2.867   1.733  0.00  0.00    -0.300 NA
BRANCH  13  19
ATOM     18  C   LIG    1       -1.201   2.387  -1.220  0.00  0.00    +0.040 C 
ATOM     19  C   LIG    1       -0.682   1.297  -0.279  0.00  0.00    +0.310 C 
ENDBRANCH  13  19
ENDBRANCH   1  15
BRANCH  10  20
ATOM     20  C   LIG    1       -5.123   5.015   3.319  0.00  0.00    +0.310 C 
BRANCH  20  21
ATOM     21  C   LIG    1       -6.117   4.484   2.285  0.00  0.00    -0.050 C 
ATOM     22  C   LIG    1       -6.686   3.081   2.507  0.00  0.00    +0.020 C 
ATOM     23  C   LIG    1       -5.660   3.324   1.397  0.00  0.00    +0.010 C 
ENDBRANCH  20  21
BRANCH  20  24
ATOM     24  C   LIG    1       -5.764   6.165   4.099  0.00  0.00    +0.180 C 
BRANCH  24  25
ATOM     25  O   LIG    1       -6.998   5.723   4.669  0.00  0.00    -0.380 OA
ATOM     26  C   LIG    1       -7.682   6.726   5.423  0.00  0.00    +0.200 C 
ENDBRANCH  24  25
ENDBRANCH  20  24
ENDBRANCH  10  20
TORSDOF 6
