REMARK  Name = ZINCpk000000oyCV.0
REMARK                            x       y       z     vdW  Elec       q    Type
REMARK                         _______ _______ _______ _____ _____    ______ ____
ROOT
ATOM      1  C   LIG    1        3.773  -0.063   0.951  0.00  0.00    -0.010 A 
ATOM      2  N   LIG    1        2.608   0.542   0.841  0.00  0.00    -0.160 NA
ATOM      3  N   LIG    1        2.404   1.475  -0.013  0.00  0.00    -0.280 N 
ATOM      4  C   LIG    1        3.353   1.917  -0.875  0.00  0.00    +0.150 A 
ATOM      5  C   LIG    1        4.599   1.386  -0.867  0.00  0.00    -0.080 A 
ATOM      6  C   LIG    1        3.019   3.017  -1.849  0.00  0.00    +0.140 C 
ATOM      7  C   LIG    1        4.871   0.349   0.063  0.00  0.00    +0.390 A 
ATOM      8  O   LIG    1        5.971  -0.178   0.124  0.00  0.00    -0.470 OA
ENDROOT
BRANCH   3   9
ATOM      9  C   LIG    1        1.136   2.064  -0.063  0.00  0.00    +0.180 A 
ATOM     10  C   LIG    1        0.879   3.225   0.654  0.00  0.00    +0.070 A 
ATOM     11  C   LIG    1       -0.374   3.804   0.603  0.00  0.00    +0.100 A 
ATOM     12  C   LIG    1       -1.373   3.227  -0.160  0.00  0.00    +0.070 A 
ATOM     13  C   LIG    1       -1.119   2.073  -0.880  0.00  0.00    +0.120 A 
ATOM     14  C   LIG    1        0.130   1.487  -0.829  0.00  0.00    -0.030 A 
BRANCH  14  15
ATOM     15  N   LIG    1        0.399   0.248  -1.594  0.00  0.00    +0.020 N 
ATOM     16  O   LIG    1        1.526  -0.212  -1.630  0.00  0.00    -0.150 OA
ATOM     17  O   LIG    1       -0.507  -0.310  -2.186  0.00  0.00    -0.140 OA
ENDBRANCH  14  15
ENDBRANCH   3   9
BRANCH   1  19
ATOM     18  N   LIG    1        4.287  -0.821   3.220  0.00  0.00    -0.600 N 
ATOM     19  C   LIG    1        3.973  -1.134   1.947  0.00  0.00    +0.610 C 
ATOM     20  O   LIG    1        3.854  -2.299   1.620  0.00  0.00    -0.490 OA
BRANCH  18  22
ATOM     21  C   LIG    1        3.257   1.197   4.140  0.00  0.00    +0.030 C 
ATOM     22  C   LIG    1        4.541   0.574   3.590  0.00  0.00    +0.270 C 
ENDBRANCH  18  22
BRANCH  18  23
ATOM     23  C   LIG    1        4.375  -1.875   4.234  0.00  0.00    +0.480 C 
BRANCH  23  24
ATOM     24  C   LIG    1        5.751  -2.396   4.282  0.00  0.00    +0.180 C 
ATOM     25  N   LIG    1        6.813  -2.798   4.319  0.00  0.00    -0.410 NA
ENDBRANCH  23  24
ENDBRANCH  18  23
ENDBRANCH   1  19
TORSDOF 6
