REMARK  Name = ZINCtj00001uZG3r.0
REMARK                            x       y       z     vdW  Elec       q    Type
REMARK                         _______ _______ _______ _____ _____    ______ ____
ROOT
ATOM      1  C   LIG    1        5.770   3.706   2.277  0.00  0.00    -0.350 A 
ATOM      2  C   LIG    1        5.760   3.840   0.906  0.00  0.00    +0.430 A 
ATOM      3  N   LIG    1        6.132   4.971   0.285  0.00  0.00    -0.480 N 
ATOM      4  C   LIG    1        6.577   6.078   0.983  0.00  0.00    +0.140 A 
ATOM      5  C   LIG    1        6.984   7.228   0.303  0.00  0.00    +0.070 A 
ATOM      6  C   LIG    1        7.412   8.337   1.009  0.00  0.00    +0.110 A 
ATOM      7  C   LIG    1        7.447   8.320   2.400  0.00  0.00    +0.080 A 
ATOM      8  C   LIG    1        7.056   7.192   3.089  0.00  0.00    +0.110 A 
ATOM      9  F   LIG    1        7.865   9.412   3.077  0.00  0.00    -0.110 F 
ATOM     10  F   LIG    1        7.799   9.447   0.343  0.00  0.00    -0.100 F 
ATOM     11  O   LIG    1        6.958   7.254  -1.058  0.00  0.00    -0.280 OA
ATOM     12  C   LIG    1        7.119   5.989  -1.711  0.00  0.00    +0.270 C 
ATOM     13  C   LIG    1        6.623   6.066   2.387  0.00  0.00    -0.140 A 
ATOM     14  C   LIG    1        6.053   5.026  -1.183  0.00  0.00    +0.210 C 
ATOM     15  C   LIG    1        4.666   5.519  -1.601  0.00  0.00    +0.060 C 
ATOM     16  C   LIG    1        6.208   4.844   3.100  0.00  0.00    +0.440 A 
ATOM     17  O   LIG    1        6.227   4.779   4.317  0.00  0.00    -0.470 OA
ENDROOT
BRANCH   1  23
ATOM     18  N   LIG    1        8.091   0.457   5.176  0.00  0.00    -0.560 NA
ATOM     19  C   LIG    1        8.445   1.696   4.471  0.00  0.00    +0.160 C 
ATOM     20  C   LIG    1        7.237   2.639   4.464  0.00  0.00    +0.300 C 
ATOM     21  N   LIG    1        6.083   1.916   3.909  0.00  0.00    -0.610 N 
ATOM     22  C   LIG    1        5.745   0.603   4.478  0.00  0.00    +0.300 C 
ATOM     23  C   LIG    1        5.351   2.445   2.908  0.00  0.00    +0.600 C 
ATOM     24  O   LIG    1        4.343   1.880   2.527  0.00  0.00    -0.530 OA
ATOM     25  C   LIG    1        7.015  -0.263   4.481  0.00  0.00    +0.190 C 
BRANCH  18  26
ATOM     26  C   LIG    1        9.269  -0.402   5.355  0.00  0.00    +0.210 C 
BRANCH  26  28
ATOM     27  C   LIG    1       11.322  -0.782   6.727  0.00  0.00    +0.090 C 
ATOM     28  C   LIG    1       10.145   0.162   6.476  0.00  0.00    +0.180 C 
BRANCH  28  29
ATOM     29  N   LIG    1        9.348   0.287   7.704  0.00  0.00    -0.630 N 
ATOM     30  H   LIG    1        8.529   0.846   7.518  0.00  0.00    +0.440 HD
ATOM     31  H   LIG    1        9.902   0.731   8.421  0.00  0.00    +0.430 HD
ATOM     32  H   LIG    1        9.065  -0.630   8.017  0.00  0.00    +0.430 HD
ENDBRANCH  28  29
ENDBRANCH  26  28
ENDBRANCH  18  26
ENDBRANCH   1  23
TORSDOF 4
