REMARK  Name = ZINCpe00000ziFru.0
REMARK                            x       y       z     vdW  Elec       q    Type
REMARK                         _______ _______ _______ _____ _____    ______ ____
ROOT
ATOM      1  C   LIG    1        0.459   9.852   3.512  0.00  0.00    -0.000 A 
ATOM      2  C   LIG    1        1.054  10.999   2.987  0.00  0.00    +0.080 A 
ATOM      3  C   LIG    1        1.102  11.182   1.620  0.00  0.00    +0.030 A 
ATOM      4  C   LIG    1        0.563  10.232   0.773  0.00  0.00    +0.080 A 
ATOM      5  C   LIG    1       -0.030   9.089   1.288  0.00  0.00    -0.110 A 
ATOM      6  C   LIG    1       -0.677   7.913   0.601  0.00  0.00    +0.320 C 
ATOM      7  N   LIG    1       -1.141   6.989   1.641  0.00  0.00    -0.610 N 
ATOM      8  C   LIG    1       -1.776   5.816   1.449  0.00  0.00    +0.560 C 
ATOM      9  O   LIG    1       -2.104   5.140   2.401  0.00  0.00    -0.510 OA
ATOM     10  C   LIG    1       -0.776   7.584   2.930  0.00  0.00    +0.330 C 
ATOM     11  C   LIG    1       -0.085   8.894   2.651  0.00  0.00    -0.060 A 
ENDROOT
BRANCH   8  12
ATOM     12  C   LIG    1       -2.080   5.344   0.050  0.00  0.00    +0.170 C 
ATOM     13  C   LIG    1       -3.382   5.991  -0.468  0.00  0.00    +0.080 C 
ATOM     14  C   LIG    1       -4.078   4.887  -1.292  0.00  0.00    +0.180 C 
ATOM     15  C   LIG    1       -3.137   3.666  -1.202  0.00  0.00    +0.180 C 
ATOM     16  N   LIG    1       -2.359   3.885   0.045  0.00  0.00    -0.430 N 
BRANCH  16  17
ATOM     17  C   LIG    1       -1.182   3.154   0.030  0.00  0.00    +0.350 A 
ATOM     18  C   LIG    1       -1.213   1.758   0.017  0.00  0.00    -0.080 A 
ATOM     19  C   LIG    1       -0.013   1.076   0.008  0.00  0.00    +0.330 A 
ATOM     20  N   LIG    1        1.121   1.762   0.001  0.00  0.00    -0.540 NA
ATOM     21  C   LIG    1        1.118   3.080   0.007  0.00  0.00    +0.520 A 
ATOM     22  N   LIG    1       -0.004   3.772   0.022  0.00  0.00    -0.560 NA
ENDBRANCH  16  17
BRANCH  14  23
ATOM     23  O   LIG    1       -4.225   5.301  -2.652  0.00  0.00    -0.560 OA
ATOM     24  H   LIG    1       -4.656   4.646  -3.217  0.00  0.00    +0.390 HD
ENDBRANCH  14  23
ENDBRANCH   8  12
BRANCH   1  26
ATOM     25  N   LIG    1        0.363   9.499   6.054  0.00  0.00    -0.400 NA
ATOM     26  C   LIG    1        0.406   9.655   4.930  0.00  0.00    +0.240 C 
ENDBRANCH   1  26
TORSDOF 4
