REMARK  Name = ZINCpe000000Tqs0.0
REMARK                            x       y       z     vdW  Elec       q    Type
REMARK                         _______ _______ _______ _____ _____    ______ ____
ROOT
ATOM      1  C   LIG    1        0.739   3.570   1.145  0.00  0.00    +0.100 C 
ENDROOT
BRANCH   1   3
ATOM      2  N   LIG    1       -0.698   1.558   1.213  0.00  0.00    -0.600 N 
ATOM      3  C   LIG    1       -0.353   2.738   1.767  0.00  0.00    +0.540 C 
ATOM      4  O   LIG    1       -0.921   3.129   2.764  0.00  0.00    -0.510 OA
BRANCH   2   5
ATOM      5  C   LIG    1       -1.760   0.749   1.817  0.00  0.00    +0.280 C 
ATOM      6  C   LIG    1       -3.076   1.545   1.827  0.00  0.00    +0.070 C 
ATOM      7  C   LIG    1       -4.050   0.781   2.760  0.00  0.00    -0.310 C 
ATOM      8  S   LIG    1       -2.973   0.321   4.170  0.00  0.00    +2.400 S 
ATOM      9  O   LIG    1       -3.238  -1.024   4.546  0.00  0.00    -0.940 OA
ATOM     10  O   LIG    1       -3.013   1.350   5.149  0.00  0.00    -0.920 OA
ATOM     11  C   LIG    1       -1.384   0.403   3.272  0.00  0.00    -0.330 C 
ENDBRANCH   2   5
BRANCH   2  13
ATOM     12  C   LIG    1       -0.753   1.593  -1.232  0.00  0.00    +0.010 C 
ATOM     13  C   LIG    1       -0.013   1.086   0.008  0.00  0.00    +0.280 C 
ENDBRANCH   2  13
ENDBRANCH   1   3
BRANCH   1  14
ATOM     14  S   LIG    1        0.968   5.087   2.114  0.00  0.00    +0.120 S 
BRANCH  14  15
ATOM     15  C   LIG    1        2.260   5.917   1.251  0.00  0.00    +0.230 A 
ATOM     16  N   LIG    1        2.776   7.082   1.589  0.00  0.00    -0.310 NA
ATOM     17  N   LIG    1        3.769   7.379   0.647  0.00  0.00    -0.320 N 
ATOM     18  C   LIG    1        4.620   8.427   0.491  0.00  0.00    +0.210 A 
ATOM     19  C   LIG    1        5.490   8.421  -0.553  0.00  0.00    -0.050 A 
ATOM     20  C   LIG    1        5.487   7.337  -1.438  0.00  0.00    +0.240 A 
ATOM     21  N   LIG    1        4.653   6.337  -1.260  0.00  0.00    -0.470 NA
ATOM     22  C   LIG    1        6.447   7.315  -2.600  0.00  0.00    +0.180 C 
ATOM     23  C   LIG    1        4.597   9.581   1.460  0.00  0.00    +0.170 C 
ATOM     24  C   LIG    1        3.793   6.335  -0.235  0.00  0.00    +0.460 A 
ATOM     25  N   LIG    1        2.871   5.463   0.159  0.00  0.00    -0.530 NA
ENDBRANCH  14  15
ENDBRANCH   1  14
TORSDOF 5
