REMARK  Name = ZINCnE000004TiLa.0
REMARK                            x       y       z     vdW  Elec       q    Type
REMARK                         _______ _______ _______ _____ _____    ______ ____
ROOT
ATOM      1  C   LIG    1        1.942   1.886   1.017  0.00  0.00    -0.020 C 
ATOM      2  C   LIG    1        2.235   0.387   1.108  0.00  0.00    +0.010 C 
ATOM      3  C   LIG    1        0.919  -0.384   1.243  0.00  0.00    +0.020 C 
ATOM      4  C   LIG    1        0.056  -0.134   0.002  0.00  0.00    +0.140 C 
ATOM      5  N   LIG    1       -0.108   1.315  -0.176  0.00  0.00    -0.600 N 
ATOM      6  C   LIG    1       -1.337   1.857  -0.295  0.00  0.00    +0.500 C 
ATOM      7  O   LIG    1       -2.312   1.140  -0.367  0.00  0.00    -0.440 OA
ATOM      8  C   LIG    1        1.091   2.162  -0.226  0.00  0.00    +0.250 C 
ENDROOT
BRANCH   4   9
ATOM      9  C   LIG    1       -1.294  -0.777   0.187  0.00  0.00    +0.520 C 
ATOM     10  O   LIG    1       -1.987  -0.474   1.143  0.00  0.00    -0.680 OA
ATOM     11  O   LIG    1       -1.693  -1.600  -0.619  0.00  0.00    -0.700 OA
ENDBRANCH   4   9
BRANCH   1  13
ATOM     12  C   LIG    1        2.974   4.161   0.950  0.00  0.00    -0.010 C 
ATOM     13  C   LIG    1        3.260   2.658   0.916  0.00  0.00    +0.000 C 
ENDBRANCH   1  13
BRANCH   6  14
ATOM     14  C   LIG    1       -1.498   3.355  -0.339  0.00  0.00    +0.220 C 
BRANCH  14  15
ATOM     15  O   LIG    1       -2.884   3.681  -0.468  0.00  0.00    -0.270 OA
BRANCH  15  16
ATOM     16  C   LIG    1       -3.205   5.000  -0.522  0.00  0.00    +0.160 A 
ATOM     17  C   LIG    1       -4.531   5.388  -0.647  0.00  0.00    +0.020 A 
ATOM     18  C   LIG    1       -4.856   6.730  -0.702  0.00  0.00    +0.090 A 
ATOM     19  C   LIG    1       -3.860   7.687  -0.634  0.00  0.00    -0.080 A 
ATOM     20  C   LIG    1       -2.535   7.303  -0.509  0.00  0.00    +0.010 A 
ATOM     21 CL   LIG    1       -1.287   8.506  -0.423  0.00  0.00    -0.050 Cl
ATOM     22 CL   LIG    1       -4.271   9.372  -0.705  0.00  0.00    -0.060 Cl
ATOM     23  C   LIG    1       -2.207   5.962  -0.447  0.00  0.00    -0.050 A 
ENDBRANCH  15  16
ENDBRANCH  14  15
ENDBRANCH   6  14
TORSDOF 5
