REMARK  Name = ZINCtj0000003SRu.1
REMARK                            x       y       z     vdW  Elec       q    Type
REMARK                         _______ _______ _______ _____ _____    ______ ____
ROOT
ATOM      1  C   LIG    1       -3.510  -2.057  -3.746  0.00  0.00    +0.040 C 
ATOM      2  C   LIG    1       -2.738  -2.667  -2.573  0.00  0.00    +0.070 C 
ATOM      3  C   LIG    1       -1.811  -1.606  -1.971  0.00  0.00    +0.310 C 
ATOM      4  N   LIG    1       -2.609  -0.424  -1.619  0.00  0.00    -1.000 NA
ATOM      5  C   LIG    1       -3.463   0.184  -2.649  0.00  0.00    +0.330 C 
ATOM      6  C   LIG    1       -4.368  -0.893  -3.244  0.00  0.00    +0.080 C 
ENDROOT
BRANCH   1   7
ATOM      7  N   LIG    1       -4.376  -3.081  -4.346  0.00  0.00    -0.370 N 
ATOM      8  C   LIG    1       -3.554  -4.206  -4.807  0.00  0.00    +0.240 C 
ATOM      9  C   LIG    1       -4.458  -5.311  -5.358  0.00  0.00    +0.070 C 
ATOM     10  C   LIG    1       -5.271  -4.758  -6.532  0.00  0.00    +0.040 C 
ATOM     11  C   LIG    1       -6.067  -3.538  -6.060  0.00  0.00    +0.070 C 
ATOM     12  C   LIG    1       -5.103  -2.499  -5.481  0.00  0.00    +0.250 C 
ATOM     13  H   LIG    1       -5.036  -3.408  -3.657  0.00  0.00    +0.430 HD
ENDBRANCH   1   7
BRANCH   1  17
ATOM     14  N   LIG    1       -1.458  -2.294  -5.107  0.00  0.00    -0.840 N 
ATOM     15  H   LIG    1       -0.794  -1.940  -5.719  0.00  0.00    +0.420 HD
ATOM     16  H   LIG    1       -1.347  -3.181  -4.731  0.00  0.00    +0.400 HD
ATOM     17  C   LIG    1       -2.536  -1.554  -4.780  0.00  0.00    +0.510 C 
ATOM     18  O   LIG    1       -2.722  -0.483  -5.318  0.00  0.00    -0.480 OA
ENDBRANCH   1  17
BRANCH   4  19
ATOM     19  S   LIG    1       -2.554   0.207  -0.089  0.00  0.00    +2.700 S 
ATOM     20  O   LIG    1       -3.767   0.923   0.094  0.00  0.00    -0.940 OA
ATOM     21  O   LIG    1       -2.138  -0.850   0.766  0.00  0.00    -0.940 OA
BRANCH  19  22
ATOM     22  C   LIG    1       -1.260   1.404  -0.065  0.00  0.00    -0.680 A 
ATOM     23  C   LIG    1        0.026   1.021   0.266  0.00  0.00    +0.140 A 
ATOM     24  C   LIG    1        1.047   1.956   0.286  0.00  0.00    +0.010 A 
ATOM     25  C   LIG    1        0.774   3.276  -0.028  0.00  0.00    +0.130 A 
ATOM     26  O   LIG    1        1.772   4.207  -0.013  0.00  0.00    -0.320 OA
ATOM     27  C   LIG    1        1.690   5.195   1.016  0.00  0.00    +0.230 C 
ATOM     28  C   LIG    1        0.780   6.339   0.594  0.00  0.00    +0.000 C 
ATOM     29  C   LIG    1       -0.663   5.894   0.413  0.00  0.00    +0.230 C 
ATOM     30  O   LIG    1       -0.775   4.964  -0.666  0.00  0.00    -0.320 OA
ATOM     31  C   LIG    1       -0.517   3.660  -0.359  0.00  0.00    +0.050 A 
ATOM     32  C   LIG    1       -1.536   2.723  -0.378  0.00  0.00    +0.130 A 
ENDBRANCH  19  22
ENDBRANCH   4  19
TORSDOF 4
