REMARK  Name = ZINCrD000000CWJD.0
REMARK                            x       y       z     vdW  Elec       q    Type
REMARK                         _______ _______ _______ _____ _____    ______ ____
ROOT
ATOM      1  N   LIG    1        4.106  -2.804   0.026  0.00  0.00    -0.500 N 
ATOM      2  C   LIG    1        3.856  -4.111  -0.207  0.00  0.00    +0.520 A 
ATOM      3  C   LIG    1        4.605  -5.127   0.541  0.00  0.00    +0.020 A 
ATOM      4  N   LIG    1        5.498  -4.770   1.418  0.00  0.00    -0.330 NA
ATOM      5  C   LIG    1        5.756  -3.470   1.659  0.00  0.00    +0.030 A 
ATOM      6  C   LIG    1        6.723  -3.109   2.608  0.00  0.00    +0.160 A 
ATOM      7  C   LIG    1        6.982  -1.791   2.850  0.00  0.00    +0.050 A 
ATOM      8  C   LIG    1        6.296  -0.797   2.165  0.00  0.00    -0.100 A 
ATOM      9  C   LIG    1        5.341  -1.126   1.228  0.00  0.00    +0.050 A 
ATOM     10  O   LIG    1        3.020  -4.441  -1.028  0.00  0.00    -0.480 OA
ATOM     11  C   LIG    1        5.065  -2.463   0.960  0.00  0.00    +0.170 A 
ENDROOT
BRANCH   8  12
ATOM     12  C   LIG    1        6.597   0.652   2.450  0.00  0.00    +0.510 C 
ATOM     13  F   LIG    1        5.438   1.288   2.905  0.00  0.00    -0.170 F 
ATOM     14  F   LIG    1        7.042   1.274   1.278  0.00  0.00    -0.170 F 
ATOM     15  F   LIG    1        7.592   0.737   3.430  0.00  0.00    -0.170 F 
ENDBRANCH   8  12
BRANCH   3  16
ATOM     16  C   LIG    1        4.338  -6.590   0.293  0.00  0.00    +0.540 C 
ATOM     17  F   LIG    1        4.601  -6.891  -1.047  0.00  0.00    -0.160 F 
ATOM     18  F   LIG    1        2.998  -6.874   0.581  0.00  0.00    -0.160 F 
ATOM     19  F   LIG    1        5.165  -7.361   1.117  0.00  0.00    -0.150 F 
ENDBRANCH   3  16
BRANCH   1  20
ATOM     20  C   LIG    1        3.377  -1.765  -0.704  0.00  0.00    +0.310 C 
BRANCH  20  21
ATOM     21  C   LIG    1        2.110  -1.392   0.068  0.00  0.00    +0.060 C 
BRANCH  21  27
ATOM     22  O   LIG    1        3.199   1.185  -1.139  0.00  0.00    -0.450 OA
ATOM     23  C   LIG    1        2.107   1.001  -0.654  0.00  0.00    +0.480 C 
ATOM     24  O   LIG    1        1.388   1.924  -0.001  0.00  0.00    -0.340 OA
ATOM     25  C   LIG    1       -0.019   1.542   0.011  0.00  0.00    +0.260 C 
ATOM     26  C   LIG    1        0.002  -0.004   0.002  0.00  0.00    +0.040 C 
ATOM     27  C   LIG    1        1.347  -0.307  -0.695  0.00  0.00    -0.020 C 
ENDBRANCH  21  27
ENDBRANCH  20  21
ENDBRANCH   1  20
TORSDOF 5
