REMARK  Name = ZINCrD00000fKcjr.0
REMARK                            x       y       z     vdW  Elec       q    Type
REMARK                         _______ _______ _______ _____ _____    ______ ____
ROOT
ATOM      1  C   LIG    1        1.552  -3.987   0.162  0.00  0.00    +0.230 C 
ATOM      2  C   LIG    1        0.648  -4.702   1.077  0.00  0.00    +0.010 C 
ATOM      3  C   LIG    1        1.023  -6.160   1.319  0.00  0.00    +0.030 C 
ATOM      4  C   LIG    1        0.438  -7.016   0.223  0.00  0.00    +0.020 C 
ATOM      5  C   LIG    1        1.454  -7.176  -0.923  0.00  0.00    +0.260 C 
ATOM      6  N   LIG    1        2.172  -5.918  -1.208  0.00  0.00    -0.600 N 
ATOM      7  C   LIG    1        3.498  -5.971  -1.444  0.00  0.00    +0.550 C 
ATOM      8  O   LIG    1        4.102  -4.962  -1.749  0.00  0.00    -0.510 OA
ATOM      9  C   LIG    1        1.513  -4.633  -1.245  0.00  0.00    +0.280 C 
ENDROOT
BRANCH   7  10
ATOM     10  C   LIG    1        4.218  -7.258  -1.333  0.00  0.00    -0.130 A 
ATOM     11  C   LIG    1        5.401  -7.338  -0.596  0.00  0.00    +0.060 A 
ATOM     12  C   LIG    1        6.066  -8.542  -0.492  0.00  0.00    +0.010 A 
ATOM     13  C   LIG    1        5.567  -9.667  -1.125  0.00  0.00    +0.030 A 
ATOM     14  C   LIG    1        4.397  -9.594  -1.860  0.00  0.00    +0.000 A 
ATOM     15  C   LIG    1        3.721  -8.397  -1.968  0.00  0.00    +0.040 A 
ENDBRANCH   7  10
BRANCH   1  18
ATOM     16  O   LIG    1        3.188  -1.947  -0.497  0.00  0.00    -0.490 OA
ATOM     17  C   LIG    1        2.033  -1.639  -0.273  0.00  0.00    +0.600 C 
ATOM     18  N   LIG    1        1.136  -2.586   0.065  0.00  0.00    -0.710 N 
ATOM     19  H   LIG    1        0.215  -2.340   0.244  0.00  0.00    +0.410 HD
BRANCH  17  20
ATOM     20  C   LIG    1        1.614  -0.226  -0.371  0.00  0.00    +0.020 A 
ATOM     21  N   LIG    1        0.403   0.248  -0.156  0.00  0.00    -0.230 NA
ATOM     22  N   LIG    1        0.390   1.521  -0.328  0.00  0.00    -0.350 N 
ATOM     23  C   LIG    1        1.626   1.958  -0.675  0.00  0.00    +0.220 A 
ATOM     24  C   LIG    1        2.437   0.874  -0.713  0.00  0.00    -0.100 A 
ATOM     25 CL   LIG    1        4.129   0.840  -1.100  0.00  0.00    +0.010 Cl
BRANCH  22  26
ATOM     26  C   LIG    1       -0.791   2.376  -0.179  0.00  0.00    +0.680 C 
ATOM     27  F   LIG    1       -0.394   3.651   0.237  0.00  0.00    -0.170 F 
ATOM     28  F   LIG    1       -1.651   1.821   0.775  0.00  0.00    -0.160 F 
ENDBRANCH  22  26
ENDBRANCH  17  20
ENDBRANCH   1  18
TORSDOF 4
