REMARK  Name = ZINCvU0000000DM6.0
REMARK                            x       y       z     vdW  Elec       q    Type
REMARK                         _______ _______ _______ _____ _____    ______ ____
ROOT
ATOM      1  O   LIG    1        4.713  -4.163   0.244  0.00  0.00    -0.320 OA
ENDROOT
BRANCH   1   2
ATOM      2  C   LIG    1        5.795  -4.964   0.338  0.00  0.00    +0.530 C 
ATOM      3  O   LIG    1        6.911  -4.481   0.343  0.00  0.00    -0.490 OA
BRANCH   2   4
ATOM      4  C   LIG    1        5.624  -6.418   0.432  0.00  0.00    -0.100 A 
ATOM      5  C   LIG    1        5.578  -7.208  -0.735  0.00  0.00    +0.000 A 
ATOM      6  C   LIG    1        5.706  -6.629  -2.009  0.00  0.00    +0.000 A 
ATOM      7  C   LIG    1        5.663  -7.420  -3.114  0.00  0.00    +0.040 A 
ATOM      8  C   LIG    1        5.501  -8.800  -3.020  0.00  0.00    +0.010 A 
ATOM      9  C   LIG    1        5.377  -9.423  -1.818  0.00  0.00    +0.050 A 
ATOM     10  C   LIG    1        5.413  -8.660  -0.632  0.00  0.00    -0.060 A 
ATOM     11  C   LIG    1        5.290  -9.268   0.618  0.00  0.00    +0.090 A 
ATOM     12  C   LIG    1        5.329  -8.493   1.778  0.00  0.00    -0.060 A 
ATOM     13  C   LIG    1        5.207  -9.085   3.053  0.00  0.00    +0.050 A 
ATOM     14  C   LIG    1        5.249  -8.303   4.163  0.00  0.00    +0.010 A 
ATOM     15  C   LIG    1        5.411  -6.921   4.077  0.00  0.00    +0.040 A 
ATOM     16  C   LIG    1        5.535  -6.290   2.879  0.00  0.00    +0.000 A 
ATOM     17  C   LIG    1        5.499  -7.041   1.692  0.00  0.00    +0.000 A 
ENDBRANCH   2   4
ENDBRANCH   1   2
BRANCH   1  18
ATOM     18  C   LIG    1        4.957  -2.734   0.154  0.00  0.00    +0.270 C 
BRANCH  18  20
ATOM     19  O   LIG    1        2.601  -2.628   0.064  0.00  0.00    -0.490 OA
ATOM     20  C   LIG    1        3.642  -2.005   0.057  0.00  0.00    +0.520 C 
ATOM     21  N   LIG    1        3.622  -0.661  -0.037  0.00  0.00    -0.660 N 
ATOM     22  H   LIG    1        4.454  -0.167  -0.107  0.00  0.00    +0.420 HD
BRANCH  21  23
ATOM     23  C   LIG    1        2.399   0.023  -0.032  0.00  0.00    +0.130 A 
ATOM     24  C   LIG    1        1.283  -0.543  -0.629  0.00  0.00    +0.060 A 
ATOM     25  C   LIG    1        0.078   0.134  -0.624  0.00  0.00    +0.010 A 
ATOM     26  C   LIG    1       -0.018   1.376  -0.025  0.00  0.00    +0.040 A 
ATOM     27  C   LIG    1        1.091   1.948   0.572  0.00  0.00    -0.030 A 
ATOM     28  C   LIG    1        2.302   1.276   0.571  0.00  0.00    +0.080 A 
BRANCH  28  29
ATOM     29  O   LIG    1        3.393   1.836   1.157  0.00  0.00    -0.320 OA
BRANCH  29  30
ATOM     30  C   LIG    1        3.219   3.122   1.756  0.00  0.00    +0.590 C 
ATOM     31  F   LIG    1        2.251   3.041   2.763  0.00  0.00    -0.200 F 
ATOM     32  F   LIG    1        2.804   4.037   0.783  0.00  0.00    -0.200 F 
ENDBRANCH  29  30
ENDBRANCH  28  29
ENDBRANCH  21  23
ENDBRANCH  18  20
ENDBRANCH   1  18
TORSDOF 7
