REMARK  Name = ZINCpk000000o4VV.0
REMARK                            x       y       z     vdW  Elec       q    Type
REMARK                         _______ _______ _______ _____ _____    ______ ____
ROOT
ATOM      1  C   LIG    1       -0.033   1.344   0.231  0.00  0.00    +0.560 C 
ATOM      2  N   LIG    1       -1.237   1.949   0.187  0.00  0.00    -0.730 N 
ATOM      3  H   LIG    1       -1.293   2.918   0.200  0.00  0.00    +0.400 HD
ATOM      4  O   LIG    1        0.043   0.135   0.124  0.00  0.00    -0.540 OA
ENDROOT
BRANCH   1   8
ATOM      5  C   LIG    1        3.492   3.659   0.727  0.00  0.00    +0.260 A 
ATOM      6  C   LIG    1        3.569   2.269   0.716  0.00  0.00    -0.030 A 
ATOM      7  C   LIG    1        2.429   1.516   0.555  0.00  0.00    +0.120 A 
ATOM      8  C   LIG    1        1.191   2.148   0.404  0.00  0.00    -0.190 A 
ATOM      9  C   LIG    1        1.117   3.544   0.410  0.00  0.00    +0.090 A 
ATOM     10  C   LIG    1        2.260   4.292   0.576  0.00  0.00    -0.060 A 
BRANCH   5  14
ATOM     11  C   LIG    1        8.303   4.518   1.369  0.00  0.00    +0.160 C 
ATOM     12  C   LIG    1        6.835   4.797   1.181  0.00  0.00    +0.080 C 
ATOM     13  N   LIG    1        5.933   3.911   1.056  0.00  0.00    -0.240 NA
ATOM     14  N   LIG    1        4.645   4.417   0.889  0.00  0.00    -0.480 N 
ATOM     15  C   LIG    1        4.709   5.888   0.921  0.00  0.00    +0.240 C 
ATOM     16  C   LIG    1        6.211   6.173   1.121  0.00  0.00    +0.060 C 
ENDBRANCH   5  14
ENDBRANCH   1   8
BRANCH   2  17
ATOM     17  C   LIG    1       -2.459   1.145   0.119  0.00  0.00    +0.280 C 
BRANCH  17  18
ATOM     18  C   LIG    1       -3.668   2.068  -0.045  0.00  0.00    +0.230 C 
ATOM     19  C   LIG    1       -3.814   2.969   1.200  0.00  0.00    +0.040 C 
ATOM     20  C   LIG    1       -4.254   4.328   0.595  0.00  0.00    +0.040 C 
ATOM     21  C   LIG    1       -3.459   4.350  -0.734  0.00  0.00    +0.270 C 
ATOM     22  N   LIG    1       -3.469   2.952  -1.202  0.00  0.00    -1.010 NA
BRANCH  22  23
ATOM     23  S   LIG    1       -3.286   2.459  -2.773  0.00  0.00    +2.620 S 
ATOM     24  O   LIG    1       -2.889   1.099  -2.669  0.00  0.00    -0.940 OA
ATOM     25  O   LIG    1       -2.424   3.432  -3.347  0.00  0.00    -0.950 OA
ATOM     26  C   LIG    1       -4.950   2.584  -3.483  0.00  0.00    -0.280 C 
ENDBRANCH  22  23
ENDBRANCH  17  18
ENDBRANCH   2  17
TORSDOF 5
