REMARK  Name = ZINCpe000000TpQy.0
REMARK                            x       y       z     vdW  Elec       q    Type
REMARK                         _______ _______ _______ _____ _____    ______ ____
ROOT
ATOM      1  N   LIG    1        1.790   1.611   2.271  0.00  0.00    -0.540 NA
ATOM      2  C   LIG    1        1.193   1.878   0.955  0.00  0.00    +0.210 C 
ATOM      3  C   LIG    1       -0.220   1.292   0.911  0.00  0.00    +0.190 C 
ATOM      4  N   LIG    1       -0.157  -0.153   1.175  0.00  0.00    -0.520 NA
ATOM      5  C   LIG    1        0.440  -0.419   2.491  0.00  0.00    +0.190 C 
ATOM      6  C   LIG    1        1.853   0.167   2.535  0.00  0.00    +0.190 C 
ENDROOT
BRANCH   1   7
ATOM      7  C   LIG    1        3.121   2.225   2.380  0.00  0.00    +0.310 C 
BRANCH   7  12
ATOM      8  N   LIG    1        2.769   4.443   3.589  0.00  0.00    -0.290 N 
ATOM      9  N   LIG    1        2.709   5.683   3.236  0.00  0.00    -0.090 NA
ATOM     10  N   LIG    1        2.861   5.759   1.960  0.00  0.00    -0.080 NA
ATOM     11  N   LIG    1        3.026   4.575   1.478  0.00  0.00    -0.300 NA
ATOM     12  C   LIG    1        2.977   3.723   2.471  0.00  0.00    +0.190 A 
BRANCH   8  13
ATOM     13  C   LIG    1        2.639   3.918   4.951  0.00  0.00    +0.340 C 
BRANCH  13  15
ATOM     14  C   LIG    1        3.840   3.531   7.107  0.00  0.00    +0.040 C 
ATOM     15  C   LIG    1        3.997   3.981   5.653  0.00  0.00    +0.010 C 
ENDBRANCH  13  15
ENDBRANCH   8  13
ENDBRANCH   7  12
ENDBRANCH   1   7
BRANCH   4  16
ATOM     16  C   LIG    1       -1.487  -0.766   1.067  0.00  0.00    +0.220 C 
BRANCH  16  17
ATOM     17  C   LIG    1       -1.352  -2.267   1.099  0.00  0.00    +0.510 C 
ATOM     18  N   LIG    1       -2.450  -3.044   1.013  0.00  0.00    -0.680 N 
ATOM     19  H   LIG    1       -3.319  -2.641   0.863  0.00  0.00    +0.410 HD
ATOM     20  O   LIG    1       -0.256  -2.775   1.201  0.00  0.00    -0.500 OA
BRANCH  18  21
ATOM     21  C   LIG    1       -2.336  -4.433   1.139  0.00  0.00    +0.140 A 
ATOM     22  C   LIG    1       -1.223  -5.089   0.628  0.00  0.00    +0.020 A 
ATOM     23  C   LIG    1       -1.111  -6.459   0.759  0.00  0.00    +0.030 A 
ATOM     24  C   LIG    1       -2.109  -7.179   1.389  0.00  0.00    -0.010 A 
ATOM     25  C   LIG    1       -3.221  -6.530   1.894  0.00  0.00    +0.030 A 
ATOM     26  C   LIG    1       -3.337  -5.159   1.771  0.00  0.00    -0.030 A 
ENDBRANCH  18  21
ENDBRANCH  16  17
ENDBRANCH   4  16
TORSDOF 7
