REMARK  Name = ZINCqH0000003F0t.0
REMARK                            x       y       z     vdW  Elec       q    Type
REMARK                         _______ _______ _______ _____ _____    ______ ____
ROOT
ATOM      1  C   LIG    1       -5.029  -5.040   4.268  0.00  0.00    +0.210 A 
ATOM      2  C   LIG    1       -3.946  -4.269   3.925  0.00  0.00    -0.330 A 
ATOM      3  S   LIG    1       -2.742  -4.340   5.204  0.00  0.00    +0.200 S 
ATOM      4  C   LIG    1       -3.755  -5.420   6.151  0.00  0.00    -0.080 A 
ATOM      5  C   LIG    1       -4.916  -5.670   5.483  0.00  0.00    -0.050 A 
ENDROOT
BRANCH   4   6
ATOM      6  C   LIG    1       -3.400  -5.974   7.474  0.00  0.00    -0.030 A 
ATOM      7  C   LIG    1       -4.287  -6.821   8.140  0.00  0.00    +0.040 A 
ATOM      8  C   LIG    1       -3.947  -7.338   9.373  0.00  0.00    +0.010 A 
ATOM      9  C   LIG    1       -2.734  -7.012   9.954  0.00  0.00    +0.020 A 
ATOM     10  C   LIG    1       -1.853  -6.169   9.301  0.00  0.00    +0.020 A 
ATOM     11  C   LIG    1       -2.178  -5.649   8.065  0.00  0.00    +0.020 A 
ENDBRANCH   4   6
BRANCH   2  12
ATOM     12  C   LIG    1       -3.821  -3.525   2.727  0.00  0.00    +0.600 C 
ATOM     13  N   LIG    1       -2.711  -2.797   2.499  0.00  0.00    -0.660 N 
ATOM     14  H   LIG    1       -1.965  -2.843   3.117  0.00  0.00    +0.400 HD
ATOM     15  O   LIG    1       -4.718  -3.543   1.903  0.00  0.00    -0.500 OA
BRANCH  13  16
ATOM     16  C   LIG    1       -2.635  -1.989   1.390  0.00  0.00    +0.130 C 
ATOM     17  C   LIG    1       -1.634  -2.163   0.493  0.00  0.00    +0.000 C 
ATOM     18  N   LIG    1       -1.452  -1.404  -0.672  0.00  0.00    -0.590 N 
ATOM     19  H   LIG    1       -2.032  -0.676  -0.947  0.00  0.00    +0.440 HD
ATOM     20  N   LIG    1       -0.357  -1.817  -1.368  0.00  0.00    -0.270 NA
ATOM     21  C   LIG    1        0.257  -2.937  -0.634  0.00  0.00    +0.200 C 
ATOM     22  C   LIG    1        0.600  -0.717  -1.547  0.00  0.00    +0.190 C 
ATOM     23  C   LIG    1       -0.615  -3.134   0.588  0.00  0.00    +0.390 C 
ATOM     24  O   LIG    1       -0.468  -3.958   1.468  0.00  0.00    -0.430 OA
ATOM     25  C   LIG    1       -3.664  -0.911   1.172  0.00  0.00    +0.120 C 
ENDBRANCH  13  16
ENDBRANCH   2  12
BRANCH   1  26
ATOM     26  O   LIG    1       -6.120  -5.171   3.471  0.00  0.00    -0.270 OA
BRANCH  26  28
ATOM     27  C   LIG    1       -8.312  -6.031   2.924  0.00  0.00    +0.070 C 
ATOM     28  C   LIG    1       -7.177  -6.006   3.950  0.00  0.00    +0.170 C 
ENDBRANCH  26  28
ENDBRANCH   1  26
TORSDOF 5
