REMARK  Name = ZINCvU0000000I3L.0
REMARK                            x       y       z     vdW  Elec       q    Type
REMARK                         _______ _______ _______ _____ _____    ______ ____
ROOT
ATOM      1  N   LIG    1        6.779  -1.593   8.488  0.00  0.00    -0.620 N 
ATOM      2  H   LIG    1        6.538  -0.792   7.996  0.00  0.00    +0.420 HD
ATOM      3  C   LIG    1        7.012  -1.525   9.813  0.00  0.00    +0.520 C 
ATOM      4  O   LIG    1        7.314  -2.526  10.428  0.00  0.00    -0.490 OA
ENDROOT
BRANCH   3   5
ATOM      5  C   LIG    1        6.898  -0.205  10.532  0.00  0.00    +0.010 C 
ATOM      6  C   LIG    1        7.890   0.792   9.929  0.00  0.00    +0.040 C 
ATOM      7  C   LIG    1        7.747   2.142  10.639  0.00  0.00    +0.280 C 
ATOM      8  N   LIG    1        7.903   1.935  12.085  0.00  0.00    -0.610 N 
ATOM      9  C   LIG    1        7.059   0.932  12.750  0.00  0.00    +0.280 C 
ATOM     10  C   LIG    1        8.802   2.651  12.788  0.00  0.00    +0.590 C 
ATOM     11  O   LIG    1        8.875   2.519  13.995  0.00  0.00    -0.530 OA
ATOM     12  C   LIG    1        7.210  -0.404  12.017  0.00  0.00    +0.050 C 
BRANCH  10  13
ATOM     13  C   LIG    1        9.698   3.594  12.095  0.00  0.00    -0.230 A 
ATOM     14  C   LIG    1        9.367   4.463  11.096  0.00  0.00    +0.220 A 
ATOM     15  O   LIG    1       10.464   5.140  10.745  0.00  0.00    -0.170 OA
ATOM     16  C   LIG    1       11.523   4.745  11.470  0.00  0.00    +0.180 A 
ATOM     17  C   LIG    1       11.136   3.790  12.330  0.00  0.00    -0.010 A 
ENDBRANCH  10  13
ENDBRANCH   3   5
BRANCH   1  21
ATOM     18  C   LIG    1        6.830  -4.226   6.096  0.00  0.00    +0.130 A 
ATOM     19  C   LIG    1        7.174  -5.147   7.014  0.00  0.00    -0.110 A 
ATOM     20  S   LIG    1        7.313  -4.343   8.576  0.00  0.00    +0.200 S 
ATOM     21  C   LIG    1        6.885  -2.809   7.825  0.00  0.00    +0.270 A 
ATOM     22  N   LIG    1        6.689  -2.991   6.556  0.00  0.00    -0.500 NA
BRANCH  18  26
ATOM     23  C   LIG    1        6.252  -5.205   1.999  0.00  0.00    -0.070 A 
ATOM     24  C   LIG    1        6.600  -6.195   2.902  0.00  0.00    +0.010 A 
ATOM     25  C   LIG    1        6.794  -5.881   4.232  0.00  0.00    +0.020 A 
ATOM     26  C   LIG    1        6.629  -4.568   4.667  0.00  0.00    -0.030 A 
ATOM     27  C   LIG    1        6.272  -3.576   3.754  0.00  0.00    +0.050 A 
ATOM     28  C   LIG    1        6.086  -3.900   2.426  0.00  0.00    +0.000 A 
BRANCH  23  29
ATOM     29  C   LIG    1        6.047  -5.553   0.547  0.00  0.00    +0.030 C 
ATOM     30  C   LIG    1        4.927  -6.587   0.423  0.00  0.00    +0.030 C 
BRANCH  29  32
ATOM     31  C   LIG    1        7.174  -6.369  -1.528  0.00  0.00    +0.000 C 
ATOM     32  C   LIG    1        7.342  -6.132  -0.026  0.00  0.00    +0.000 C 
ENDBRANCH  29  32
ENDBRANCH  23  29
ENDBRANCH  18  26
ENDBRANCH   1  21
TORSDOF 6
