REMARK  Name = ZINCqH0000034saN.0
REMARK                            x       y       z     vdW  Elec       q    Type
REMARK                         _______ _______ _______ _____ _____    ______ ____
ROOT
ATOM      1  C   LIG    1       -1.564   2.020   0.021  0.00  0.00    +0.010 C 
ATOM      2  C   LIG    1       -2.312   1.690  -1.291  0.00  0.00    +0.100 C 
ATOM      3  C   LIG    1       -3.095   2.948  -1.598  0.00  0.00    +0.520 C 
ATOM      4  N   LIG    1       -2.617   3.978  -0.879  0.00  0.00    -0.560 N 
ATOM      5  O   LIG    1       -4.021   3.016  -2.379  0.00  0.00    -0.500 OA
ATOM      6  C   LIG    1       -1.488   3.562  -0.038  0.00  0.00    +0.320 C 
ENDROOT
BRANCH   4   7
ATOM      7  C   LIG    1       -3.130   5.280  -0.927  0.00  0.00    +0.190 A 
ATOM      8  C   LIG    1       -4.272   5.550  -1.668  0.00  0.00    +0.030 A 
ATOM      9  C   LIG    1       -4.781   6.834  -1.709  0.00  0.00    +0.060 A 
ATOM     10  C   LIG    1       -4.146   7.854  -1.021  0.00  0.00    +0.040 A 
ATOM     11  C   LIG    1       -3.002   7.588  -0.284  0.00  0.00    +0.100 A 
ATOM     12  F   LIG    1       -2.384   8.584   0.387  0.00  0.00    -0.120 F 
ATOM     13  F   LIG    1       -4.643   9.109  -1.067  0.00  0.00    -0.130 F 
ATOM     14  C   LIG    1       -2.493   6.303  -0.236  0.00  0.00    -0.020 A 
ENDBRANCH   4   7
BRANCH   1  17
ATOM     15  C   LIG    1       -1.218  -0.793   0.116  0.00  0.00    +0.300 C 
ATOM     16  N   LIG    1       -0.040   0.072   0.011  0.00  0.00    -0.570 N 
ATOM     17  C   LIG    1       -0.186   1.412   0.025  0.00  0.00    +0.530 C 
ATOM     18  O   LIG    1        0.793   2.128   0.035  0.00  0.00    -0.510 OA
BRANCH  16  19
ATOM     19  C   LIG    1        1.236  -0.492  -0.104  0.00  0.00    +0.140 A 
ATOM     20  C   LIG    1        2.168  -0.316   0.909  0.00  0.00    +0.070 A 
ATOM     21  C   LIG    1        3.427  -0.874   0.795  0.00  0.00    +0.020 A 
ATOM     22  C   LIG    1        3.759  -1.609  -0.330  0.00  0.00    +0.120 A 
ATOM     23  C   LIG    1        2.830  -1.787  -1.343  0.00  0.00    -0.070 A 
ATOM     24 CL   LIG    1        3.250  -2.709  -2.753  0.00  0.00    -0.040 Cl
ATOM     25  F   LIG    1        4.991  -2.153  -0.440  0.00  0.00    -0.120 F 
ATOM     26  C   LIG    1        1.569  -1.235  -1.230  0.00  0.00    +0.070 A 
ENDBRANCH  16  19
ENDBRANCH   1  17
TORSDOF 3
