REMARK  Name = ZINCpk00000KfKNT.0
REMARK                            x       y       z     vdW  Elec       q    Type
REMARK                         _______ _______ _______ _____ _____    ______ ____
ROOT
ATOM      1  N   LIG    1        5.027   4.083   4.661  0.00  0.00    -0.540 NA
ATOM      2  C   LIG    1        5.707   3.123   3.780  0.00  0.00    +0.190 C 
ATOM      3  C   LIG    1        5.148   3.252   2.362  0.00  0.00    +0.180 C 
ATOM      4  N   LIG    1        3.700   3.007   2.384  0.00  0.00    -0.520 NA
ATOM      5  C   LIG    1        3.020   3.967   3.265  0.00  0.00    +0.190 C 
ATOM      6  C   LIG    1        3.579   3.838   4.684  0.00  0.00    +0.190 C 
ENDROOT
BRANCH   1   7
ATOM      7  C   LIG    1        5.590   4.042   6.018  0.00  0.00    +0.300 C 
BRANCH   7  12
ATOM      8  N   LIG    1        5.008   6.292   7.051  0.00  0.00    -0.440 N 
ATOM      9  C   LIG    1        4.089   6.752   7.955  0.00  0.00    +0.110 A 
ATOM     10  C   LIG    1        3.355   5.690   8.339  0.00  0.00    +0.140 A 
ATOM     11  N   LIG    1        3.811   4.612   7.685  0.00  0.00    -0.490 NA
ATOM     12  C   LIG    1        4.804   4.964   6.915  0.00  0.00    +0.210 A 
BRANCH   8  14
ATOM     13  C   LIG    1        5.484   7.538   5.001  0.00  0.00    +0.040 C 
ATOM     14  C   LIG    1        6.024   7.091   6.361  0.00  0.00    +0.280 C 
ENDBRANCH   8  14
ENDBRANCH   7  12
ENDBRANCH   1   7
BRANCH   4  15
ATOM     15  C   LIG    1        3.137   3.048   1.028  0.00  0.00    +0.220 C 
BRANCH  15  16
ATOM     16  C   LIG    1        1.714   2.555   1.059  0.00  0.00    +0.520 C 
ATOM     17  N   LIG    1        0.993   2.504  -0.079  0.00  0.00    -0.730 N 
ATOM     18  H   LIG    1        1.391   2.785  -0.918  0.00  0.00    +0.400 HD
ATOM     19  O   LIG    1        1.216   2.205   2.108  0.00  0.00    -0.510 OA
BRANCH  17  20
ATOM     20  C   LIG    1       -0.391   2.025  -0.049  0.00  0.00    +0.350 C 
ATOM     21  C   LIG    1       -0.404   0.498  -0.145  0.00  0.00    +0.040 C 
BRANCH  20  22
ATOM     22  C   LIG    1       -1.150   2.609  -1.213  0.00  0.00    -0.030 A 
ATOM     23  C   LIG    1       -2.417   3.059  -1.179  0.00  0.00    -0.040 A 
ATOM     24  C   LIG    1       -2.724   3.515  -2.482  0.00  0.00    -0.060 A 
ATOM     25  C   LIG    1       -1.627   3.316  -3.233  0.00  0.00    +0.170 A 
ATOM     26  O   LIG    1       -0.674   2.772  -2.458  0.00  0.00    -0.180 OA
ENDBRANCH  20  22
ENDBRANCH  17  20
ENDBRANCH  15  16
ENDBRANCH   4  15
TORSDOF 7
