REMARK  Name = ZINCrg00000fS36U.1
REMARK                            x       y       z     vdW  Elec       q    Type
REMARK                         _______ _______ _______ _____ _____    ______ ____
ROOT
ATOM      1  N   LIG    1       -1.685   2.432   1.403  0.00  0.00    -0.650 NA
ATOM      2  H   LIG    1       -1.719   1.605   1.981  0.00  0.00    +0.340 HD
ENDROOT
BRANCH   1   6
ATOM      3  N   LIG    1       -4.600   2.111   2.756  0.00  0.00    -0.560 N 
ATOM      4  C   LIG    1       -3.844   2.972   3.673  0.00  0.00    +0.260 C 
ATOM      5  C   LIG    1       -3.074   3.961   2.770  0.00  0.00    +0.080 C 
ATOM      6  C   LIG    1       -2.959   3.161   1.452  0.00  0.00    +0.180 C 
ATOM      7  C   LIG    1       -4.121   2.194   1.502  0.00  0.00    +0.490 C 
ATOM      8  O   LIG    1       -4.558   1.583   0.550  0.00  0.00    -0.520 OA
BRANCH   3  14
ATOM      9  C   LIG    1       -6.978   1.818   3.104  0.00  0.00    +0.140 A 
ATOM     10  C   LIG    1       -8.044   1.016   3.477  0.00  0.00    -0.070 A 
ATOM     11  C   LIG    1       -7.821  -0.283   3.892  0.00  0.00    +0.060 A 
ATOM     12  C   LIG    1       -6.535  -0.789   3.930  0.00  0.00    -0.020 A 
ATOM     13  C   LIG    1       -5.466   0.003   3.554  0.00  0.00    +0.060 A 
ATOM     14  C   LIG    1       -5.682   1.307   3.137  0.00  0.00    +0.110 A 
BRANCH   9  16
ATOM     15  C   LIG    1       -8.550   3.554   2.693  0.00  0.00    +0.250 C 
ATOM     16  O   LIG    1       -7.196   3.099   2.702  0.00  0.00    -0.310 OA
ENDBRANCH   9  16
ENDBRANCH   3  14
ENDBRANCH   1   6
BRANCH   1  17
ATOM     17  C   LIG    1       -1.326   2.092   0.020  0.00  0.00    +0.290 C 
BRANCH  17  18
ATOM     18  C   LIG    1       -0.016   1.346   0.009  0.00  0.00    -0.260 A 
ATOM     19  C   LIG    1        0.002  -0.004   0.002  0.00  0.00    +0.350 A 
ATOM     20  N   LIG    1        1.200  -0.665  -0.013  0.00  0.00    -0.530 N 
ATOM     21  C   LIG    1        2.359   0.017  -0.020  0.00  0.00    +0.700 A 
ATOM     22  N   LIG    1        2.370   1.363  -0.013  0.00  0.00    -0.660 N 
ATOM     23  H   LIG    1        3.215   1.839  -0.018  0.00  0.00    +0.430 HD
ATOM     24  O   LIG    1        3.412  -0.591  -0.034  0.00  0.00    -0.530 OA
ATOM     25  C   LIG    1        1.211   2.052   0.002  0.00  0.00    +0.560 A 
ATOM     26  O   LIG    1        1.220   3.269   0.008  0.00  0.00    -0.500 OA
BRANCH  20  27
ATOM     27  C   LIG    1        1.220  -2.130  -0.021  0.00  0.00    +0.250 C 
ATOM     28  C   LIG    1        1.960  -2.638   1.218  0.00  0.00    +0.050 C 
ATOM     29  C   LIG    1        1.936  -2.623  -1.280  0.00  0.00    +0.040 C 
ENDBRANCH  20  27
ENDBRANCH  17  18
ENDBRANCH   1  17
TORSDOF 6
