REMARK  Name = ZINCqH00000356Xl.0
REMARK                            x       y       z     vdW  Elec       q    Type
REMARK                         _______ _______ _______ _____ _____    ______ ____
ROOT
ATOM      1  N   LIG    1       -0.011   0.966   0.007  0.00  0.00    -0.670 N 
ATOM      2  H   LIG    1       -0.067  -0.003   0.015  0.00  0.00    +0.410 HD
ATOM      3  C   LIG    1        1.193   1.571  -0.014  0.00  0.00    +0.600 C 
ATOM      4  O   LIG    1        1.263   2.783  -0.107  0.00  0.00    -0.510 OA
ENDROOT
BRANCH   1   9
ATOM      5  C   LIG    1       -2.396   3.691  -0.681  0.00  0.00    -0.120 A 
ATOM      6  C   LIG    1       -3.509   3.246   0.035  0.00  0.00    +0.070 A 
ATOM      7  C   LIG    1       -3.451   2.055   0.731  0.00  0.00    +0.020 A 
ATOM      8  C   LIG    1       -2.294   1.300   0.722  0.00  0.00    -0.070 A 
ATOM      9  C   LIG    1       -1.180   1.734   0.012  0.00  0.00    +0.130 A 
ATOM     10  C   LIG    1       -2.239   0.002   1.485  0.00  0.00    +0.100 C 
ATOM     11  C   LIG    1       -1.226   2.930  -0.686  0.00  0.00    +0.110 A 
BRANCH   5  12
ATOM     12  C   LIG    1       -2.455   4.964  -1.428  0.00  0.00    +0.510 C 
ATOM     13  O   LIG    1       -1.486   5.349  -2.050  0.00  0.00    -0.500 OA
BRANCH  12  15
ATOM     14  C   LIG    1       -3.571   6.939  -2.173  0.00  0.00    +0.260 C 
ATOM     15  O   LIG    1       -3.585   5.699  -1.418  0.00  0.00    -0.360 OA
ENDBRANCH  12  15
ENDBRANCH   5  12
ENDBRANCH   1   9
BRANCH   3  16
ATOM     16  C   LIG    1        2.414   0.773   0.075  0.00  0.00    -0.350 A 
ATOM     17  C   LIG    1        3.688   1.272   0.064  0.00  0.00    +0.020 A 
ATOM     18  C   LIG    1        4.654   0.304   0.160  0.00  0.00    -0.060 A 
ATOM     19  C   LIG    1        4.181  -0.965   0.249  0.00  0.00    +0.030 A 
ATOM     20  C   LIG    1        3.998   2.743  -0.044  0.00  0.00    +0.130 C 
ATOM     21  S   LIG    1        2.475  -0.978   0.221  0.00  0.00    +0.310 S 
BRANCH  19  22
ATOM     22  N   LIG    1        4.977  -2.099   0.355  0.00  0.00    -0.630 N 
ATOM     23  H   LIG    1        5.943  -2.014   0.369  0.00  0.00    +0.420 HD
ATOM     24  C   LIG    1        4.406  -3.317   0.438  0.00  0.00    +0.540 C 
ATOM     25  O   LIG    1        3.198  -3.424   0.420  0.00  0.00    -0.500 OA
BRANCH  24  26
ATOM     26  C   LIG    1        5.270  -4.547   0.553  0.00  0.00    -0.070 C 
ATOM     27  C   LIG    1        5.296  -5.506  -0.640  0.00  0.00    +0.060 C 
ATOM     28  C   LIG    1        4.562  -5.901   0.643  0.00  0.00    +0.080 C 
ENDBRANCH  24  26
ENDBRANCH  19  22
ENDBRANCH   3  16
TORSDOF 6
