REMARK  Name = ZINCvU0000000Fe5.0
REMARK                            x       y       z     vdW  Elec       q    Type
REMARK                         _______ _______ _______ _____ _____    ______ ____
ROOT
ATOM      1  C   LIG    1       -0.013   1.086   0.008  0.00  0.00    +0.140 C 
ATOM      2  C   LIG    1       -0.718   1.572   1.248  0.00  0.00    +0.020 A 
ATOM      3  C   LIG    1       -0.129   1.833   2.427  0.00  0.00    +0.000 A 
ATOM      4  C   LIG    1       -1.196   2.277   3.334  0.00  0.00    -0.260 A 
ATOM      5  C   LIG    1       -2.363   2.240   2.594  0.00  0.00    +0.130 A 
ATOM      6  C   LIG    1       -3.738   2.608   3.090  0.00  0.00    +0.150 C 
ATOM      7  N   LIG    1       -2.058   1.822   1.350  0.00  0.00    -0.390 N 
ENDROOT
BRANCH   7   8
ATOM      8  C   LIG    1       -2.984   1.664   0.309  0.00  0.00    +0.080 A 
ATOM      9  C   LIG    1       -3.650   2.770  -0.202  0.00  0.00    +0.080 A 
ATOM     10  C   LIG    1       -4.558   2.614  -1.231  0.00  0.00    -0.040 A 
ATOM     11  C   LIG    1       -4.812   1.352  -1.747  0.00  0.00    +0.120 A 
ATOM     12  C   LIG    1       -4.151   0.246  -1.233  0.00  0.00    +0.030 A 
ATOM     13  C   LIG    1       -3.239   0.401  -0.208  0.00  0.00    +0.070 A 
BRANCH  11  14
ATOM     14  O   LIG    1       -5.710   1.198  -2.756  0.00  0.00    -0.320 OA
BRANCH  14  15
ATOM     15  C   LIG    1       -6.354   2.380  -3.236  0.00  0.00    +0.600 C 
ATOM     16  F   LIG    1       -5.392   3.271  -3.722  0.00  0.00    -0.200 F 
ATOM     17  F   LIG    1       -7.063   2.982  -2.191  0.00  0.00    -0.200 F 
ENDBRANCH  14  15
ENDBRANCH  11  14
ENDBRANCH   7   8
BRANCH   4  18
ATOM     18  C   LIG    1       -1.053   2.676   4.736  0.00  0.00    +0.430 C 
ATOM     19  O   LIG    1       -2.028   3.022   5.371  0.00  0.00    -0.440 OA
BRANCH  18  20
ATOM     20  C   LIG    1        0.304   2.656   5.390  0.00  0.00    +0.230 C 
BRANCH  20  21
ATOM     21  O   LIG    1        0.185   3.084   6.748  0.00  0.00    -0.270 OA
BRANCH  21  22
ATOM     22  C   LIG    1        1.326   3.124   7.485  0.00  0.00    +0.190 A 
ATOM     23  C   LIG    1        2.535   2.754   6.915  0.00  0.00    -0.040 A 
ATOM     24  C   LIG    1        3.695   2.800   7.665  0.00  0.00    +0.150 A 
ATOM     25  C   LIG    1        3.650   3.205   8.986  0.00  0.00    -0.080 A 
ATOM     26  C   LIG    1        2.445   3.569   9.559  0.00  0.00    +0.160 A 
ATOM     27  C   LIG    1        1.283   3.530   8.812  0.00  0.00    -0.070 A 
ATOM     28 CL   LIG    1       -0.229   3.987   9.533  0.00  0.00    -0.020 Cl
BRANCH  25  29
ATOM     29  N   LIG    1        4.893   3.248   9.788  0.00  0.00    +0.030 N 
ATOM     30  O   LIG    1        5.954   2.927   9.284  0.00  0.00    -0.160 OA
ATOM     31  O   LIG    1        4.854   3.604  10.952  0.00  0.00    -0.160 OA
ENDBRANCH  25  29
ENDBRANCH  21  22
ENDBRANCH  20  21
ENDBRANCH  18  20
ENDBRANCH   4  18
TORSDOF 8
