REMARK  Name = ZINCqH0000009AzT.0
REMARK                            x       y       z     vdW  Elec       q    Type
REMARK                         _______ _______ _______ _____ _____    ______ ____
ROOT
ATOM      1  N   LIG    1       -1.620   2.555  -1.461  0.00  0.00    -0.590 N 
ATOM      2  C   LIG    1       -1.214   3.785  -1.833  0.00  0.00    +0.570 C 
ATOM      3  O   LIG    1       -0.408   4.390  -1.153  0.00  0.00    -0.490 OA
ATOM      4  C   LIG    1       -2.498   1.778  -2.339  0.00  0.00    +0.310 C 
ENDROOT
BRANCH   2   5
ATOM      5  C   LIG    1       -1.750   4.401  -3.071  0.00  0.00    +0.170 A 
ATOM      6  N   LIG    1       -2.717   3.800  -3.761  0.00  0.00    -0.480 NA
ATOM      7  C   LIG    1       -3.201   4.349  -4.862  0.00  0.00    +0.480 A 
ATOM      8  N   LIG    1       -2.743   5.503  -5.327  0.00  0.00    -0.520 NA
ATOM      9  C   LIG    1       -1.781   6.155  -4.699  0.00  0.00    +0.380 A 
ATOM     10  C   LIG    1       -1.246   5.618  -3.534  0.00  0.00    -0.130 A 
ATOM     11 CL   LIG    1        0.020   6.440  -2.676  0.00  0.00    +0.000 Cl
BRANCH   7  12
ATOM     12  N   LIG    1       -4.210   3.698  -5.552  0.00  0.00    -0.440 N 
ATOM     13  C   LIG    1       -5.435   3.582  -4.719  0.00  0.00    +0.210 C 
ATOM     14  C   LIG    1       -6.553   3.344  -5.765  0.00  0.00    +0.040 C 
ATOM     15  C   LIG    1       -6.123   4.247  -6.943  0.00  0.00    +0.020 C 
ATOM     16  C   LIG    1       -4.611   4.463  -6.753  0.00  0.00    +0.220 C 
ENDBRANCH   7  12
ENDBRANCH   2   5
BRANCH   1  17
ATOM     17  C   LIG    1       -1.184   1.996  -0.179  0.00  0.00    +0.420 C 
BRANCH  17  21
ATOM     18  C   LIG    1        1.503  -0.401  -0.781  0.00  0.00    +0.030 A 
ATOM     19  C   LIG    1        2.245   0.695  -0.540  0.00  0.00    -0.060 A 
ATOM     20  C   LIG    1        1.342   1.751  -0.278  0.00  0.00    -0.020 A 
ATOM     21  C   LIG    1        0.102   1.237  -0.374  0.00  0.00    -0.050 A 
ATOM     22  O   LIG    1        0.207  -0.067  -0.679  0.00  0.00    -0.170 OA
BRANCH  18  26
ATOM     23  C   LIG    1        0.796  -2.584   1.044  0.00  0.00    +0.060 C 
ATOM     24  C   LIG    1        1.674  -2.917  -0.164  0.00  0.00    -0.030 C 
ATOM     25  C   LIG    1        1.030  -2.835  -1.550  0.00  0.00    +0.030 C 
ATOM     26  C   LIG    1        2.037  -1.771  -1.110  0.00  0.00    +0.040 C 
ENDBRANCH  18  26
ENDBRANCH  17  21
ENDBRANCH   1  17
TORSDOF 5
