REMARK  Name = ZINCrH000004rNIo.0
REMARK                            x       y       z     vdW  Elec       q    Type
REMARK                         _______ _______ _______ _____ _____    ______ ____
ROOT
ATOM      1  C   LIG    1       -3.097   3.975   1.508  0.00  0.00    +0.250 C 
ENDROOT
BRANCH   1   3
ATOM      2  C   LIG    1       -5.135   4.684   2.639  0.00  0.00    +0.510 C 
ATOM      3  N   LIG    1       -4.430   4.581   1.495  0.00  0.00    -0.730 N 
ATOM      4  H   LIG    1       -4.806   4.909   0.663  0.00  0.00    +0.400 HD
ATOM      5  O   LIG    1       -4.665   4.274   3.680  0.00  0.00    -0.530 OA
BRANCH   2   6
ATOM      6  C   LIG    1       -6.506   5.308   2.626  0.00  0.00    +0.070 C 
BRANCH   6   7
ATOM      7  C   LIG    1       -7.083   5.301   4.043  0.00  0.00    +0.100 C 
BRANCH   7  13
ATOM      8  C   LIG    1      -12.046   4.849   3.581  0.00  0.00    +0.090 C 
ATOM      9  C   LIG    1      -10.829   5.709   3.809  0.00  0.00    -0.080 A 
ATOM     10  C   LIG    1      -10.972   7.069   4.008  0.00  0.00    +0.000 A 
ATOM     11  C   LIG    1       -9.855   7.858   4.217  0.00  0.00    +0.010 A 
ATOM     12  C   LIG    1       -8.598   7.285   4.233  0.00  0.00    +0.000 A 
ATOM     13  C   LIG    1       -8.455   5.925   4.030  0.00  0.00    -0.080 A 
ATOM     14  C   LIG    1       -9.571   5.137   3.821  0.00  0.00    +0.000 A 
ENDBRANCH   7  13
ENDBRANCH   6   7
ENDBRANCH   2   6
ENDBRANCH   1   3
BRANCH   1  15
ATOM     15  C   LIG    1       -2.449   4.138   0.131  0.00  0.00    +0.210 C 
BRANCH  15  16
ATOM     16  C   LIG    1       -1.175   3.335   0.077  0.00  0.00    -0.070 A 
ATOM     17  C   LIG    1        0.048   3.971   0.179  0.00  0.00    +0.060 A 
ATOM     18  C   LIG    1        1.216   3.234   0.130  0.00  0.00    +0.010 A 
ATOM     19  C   LIG    1        1.163   1.861  -0.022  0.00  0.00    +0.020 A 
ATOM     20  C   LIG    1       -0.060   1.224  -0.123  0.00  0.00    +0.020 A 
ATOM     21  C   LIG    1       -1.230   1.961  -0.080  0.00  0.00    -0.030 A 
ATOM     22 CL   LIG    1       -2.765   1.163  -0.216  0.00  0.00    -0.070 Cl
ENDBRANCH  15  16
BRANCH  15  23
ATOM     23  N   LIG    1       -2.144   5.557  -0.101  0.00  0.00    -0.520 NA
ATOM     24  C   LIG    1       -1.648   6.196   1.127  0.00  0.00    +0.160 C 
ATOM     25  C   LIG    1       -1.287   7.654   0.826  0.00  0.00    +0.220 C 
ATOM     26  O   LIG    1       -2.432   8.323   0.291  0.00  0.00    -0.380 OA
ATOM     27  C   LIG    1       -2.941   7.726  -0.905  0.00  0.00    +0.220 C 
ATOM     28  C   LIG    1       -3.319   6.270  -0.622  0.00  0.00    +0.150 C 
ENDBRANCH  15  23
ENDBRANCH   1  15
TORSDOF 7
