REMARK  Name = ZINCqH00000355AF.1
REMARK                            x       y       z     vdW  Elec       q    Type
REMARK                         _______ _______ _______ _____ _____    ______ ____
ROOT
ATOM      1  S   LIG    1       -2.611  -0.267   1.028  0.00  0.00    +2.700 S 
ATOM      2  O   LIG    1       -1.452  -1.072   0.861  0.00  0.00    -0.930 OA
ATOM      3  O   LIG    1       -3.930  -0.752   0.821  0.00  0.00    -0.950 OA
ENDROOT
BRANCH   1   4
ATOM      4  C   LIG    1       -2.559   0.343   2.680  0.00  0.00    -0.660 A 
ATOM      5  C   LIG    1       -3.659   0.253   3.476  0.00  0.00    +0.180 A 
ATOM      6  C   LIG    1       -3.639   0.728   4.786  0.00  0.00    -0.010 A 
ATOM      7  C   LIG    1       -2.517   1.296   5.307  0.00  0.00    +0.110 A 
ATOM      8  C   LIG    1       -1.363   1.405   4.514  0.00  0.00    -0.120 A 
ATOM      9  C   LIG    1       -0.182   1.985   5.014  0.00  0.00    +0.090 A 
ATOM     10  C   LIG    1        0.906   2.044   4.191  0.00  0.00    -0.140 A 
ATOM     11  C   LIG    1        0.822   1.550   2.891  0.00  0.00    +0.320 A 
ATOM     12  N   LIG    1       -0.281   1.014   2.427  0.00  0.00    -0.480 NA
ATOM     13  C   LIG    1        2.194   2.652   4.684  0.00  0.00    +0.120 C 
ATOM     14  C   LIG    1       -1.379   0.918   3.183  0.00  0.00    +0.200 A 
ENDBRANCH   1   4
BRANCH   1  15
ATOM     15  N   LIG    1       -2.426   1.033   0.020  0.00  0.00    -1.050 N 
ATOM     16  H   LIG    1       -3.151   1.297  -0.570  0.00  0.00    +0.430 HD
BRANCH  15  19
ATOM     17  C   LIG    1       -0.050   3.851   0.023  0.00  0.00    -0.120 A 
ATOM     18  C   LIG    1       -1.250   3.138   0.030  0.00  0.00    +0.090 A 
ATOM     19  C   LIG    1       -1.227   1.752   0.017  0.00  0.00    +0.140 A 
ATOM     20  C   LIG    1       -0.013   1.076   0.008  0.00  0.00    +0.140 A 
ATOM     21  C   LIG    1        1.176   1.780   0.000  0.00  0.00    +0.030 A 
ATOM     22  C   LIG    1        1.166   3.162   0.008  0.00  0.00    +0.010 A 
ATOM     23 CL   LIG    1        2.663   4.041  -0.001  0.00  0.00    -0.030 Cl
BRANCH  17  24
ATOM     24  C   LIG    1       -0.066   5.327   0.030  0.00  0.00    +0.500 C 
ATOM     25  O   LIG    1        0.980   5.945   0.024  0.00  0.00    -0.480 OA
BRANCH  24  27
ATOM     26  C   LIG    1       -1.178   7.439   0.051  0.00  0.00    +0.270 C 
ATOM     27  O   LIG    1       -1.239   5.989   0.045  0.00  0.00    -0.360 OA
ENDBRANCH  24  27
ENDBRANCH  17  24
ENDBRANCH  15  19
ENDBRANCH   1  15
TORSDOF 5
