REMARK  Name = ZINCtV000002Mn8b.0
REMARK                            x       y       z     vdW  Elec       q    Type
REMARK                         _______ _______ _______ _____ _____    ______ ____
ROOT
ATOM      1  C   LIG    1        1.297   1.762   0.037  0.00  0.00    +0.150 A 
ATOM      2  N   LIG    1        2.023   0.667   0.028  0.00  0.00    -0.280 NA
ATOM      3  N   LIG    1        1.264  -0.369   0.040  0.00  0.00    -0.260 NA
ATOM      4  C   LIG    1        0.001  -0.002   0.057  0.00  0.00    +0.270 A 
ATOM      5  N   LIG    1       -0.017   1.377   0.056  0.00  0.00    -0.410 N 
ENDROOT
BRANCH   5   6
ATOM      6  C   LIG    1       -1.145   2.210   0.066  0.00  0.00    +0.090 A 
ATOM      7  C   LIG    1       -2.013   2.219  -1.017  0.00  0.00    +0.040 A 
ATOM      8  C   LIG    1       -3.126   3.037  -1.002  0.00  0.00    +0.040 A 
ATOM      9  C   LIG    1       -3.369   3.855   0.086  0.00  0.00    +0.050 A 
ATOM     10  C   LIG    1       -2.503   3.853   1.164  0.00  0.00    +0.040 A 
ATOM     11  C   LIG    1       -1.391   3.033   1.157  0.00  0.00    +0.040 A 
ENDBRANCH   5   6
BRANCH   4  12
ATOM     12  C   LIG    1       -1.170  -0.893   0.075  0.00  0.00    -0.140 A 
ATOM     13  C   LIG    1       -1.151  -2.212  -0.215  0.00  0.00    +0.080 A 
ATOM     14  C   LIG    1       -2.376  -2.839  -0.126  0.00  0.00    +0.010 A 
ATOM     15  C   LIG    1       -3.394  -2.046   0.223  0.00  0.00    -0.030 A 
ATOM     16  S   LIG    1       -2.813  -0.404   0.469  0.00  0.00    +0.150 S 
ENDBRANCH   4  12
BRANCH   1  17
ATOM     17  S   LIG    1        1.902   3.417   0.026  0.00  0.00    +0.100 S 
BRANCH  17  18
ATOM     18  C   LIG    1        3.684   3.100   0.002  0.00  0.00    +0.120 C 
BRANCH  18  20
ATOM     19  O   LIG    1        3.812   5.457  -0.003  0.00  0.00    -0.500 OA
ATOM     20  C   LIG    1        4.427   4.412  -0.011  0.00  0.00    +0.540 C 
ATOM     21  N   LIG    1        5.774   4.422  -0.030  0.00  0.00    -0.660 N 
ATOM     22  H   LIG    1        6.267   3.589   0.030  0.00  0.00    +0.420 HD
BRANCH  21  23
ATOM     23  C   LIG    1        6.463   5.637  -0.136  0.00  0.00    +0.160 A 
ATOM     24  C   LIG    1        5.955   6.779   0.466  0.00  0.00    +0.060 A 
ATOM     25  C   LIG    1        6.640   7.975   0.365  0.00  0.00    +0.070 A 
ATOM     26  C   LIG    1        7.825   8.037  -0.345  0.00  0.00    -0.040 A 
ATOM     27  C   LIG    1        8.332   6.901  -0.952  0.00  0.00    +0.070 A 
ATOM     28 CL   LIG    1        8.680   9.543  -0.475  0.00  0.00    -0.050 Cl
ATOM     29  C   LIG    1        7.655   5.701  -0.849  0.00  0.00    -0.050 A 
ATOM     30 CL   LIG    1        8.291   4.276  -1.609  0.00  0.00    -0.050 Cl
ENDBRANCH  21  23
ENDBRANCH  18  20
ENDBRANCH  17  18
ENDBRANCH   1  17
TORSDOF 6
