REMARK  Name = ZINCpe00000MJHXf.0
REMARK                            x       y       z     vdW  Elec       q    Type
REMARK                         _______ _______ _______ _____ _____    ______ ____
ROOT
ATOM      1  N   LIG    1        2.332   3.991   0.023  0.00  0.00    -0.690 N 
ATOM      2  H   LIG    1        3.178   3.521   0.089  0.00  0.00    +0.420 HD
ENDROOT
BRANCH   1   7
ATOM      3  C   LIG    1       -2.401   1.044   0.011  0.00  0.00    +0.350 C 
ATOM      4  N   LIG    1       -1.175   1.845   0.012  0.00  0.00    -0.560 N 
ATOM      5  C   LIG    1       -1.260   3.190   0.046  0.00  0.00    +0.590 A 
ATOM      6  C   LIG    1       -0.066   3.961   0.053  0.00  0.00    -0.320 A 
ATOM      7  C   LIG    1        1.161   3.291   0.018  0.00  0.00    +0.540 A 
ATOM      8  N   LIG    1        1.171   1.923  -0.021  0.00  0.00    -0.540 N 
ATOM      9  C   LIG    1        2.448   1.207  -0.058  0.00  0.00    +0.360 C 
ATOM     10  O   LIG    1       -2.347   3.738   0.076  0.00  0.00    -0.510 OA
ATOM     11  C   LIG    1        0.019   1.230  -0.026  0.00  0.00    +0.710 A 
ATOM     12  O   LIG    1        0.059   0.015  -0.062  0.00  0.00    -0.520 OA
BRANCH   6  13
ATOM     13  C   LIG    1       -0.119   5.391   0.095  0.00  0.00    +0.300 C 
ATOM     14  N   LIG    1       -0.161   6.526   0.128  0.00  0.00    -0.440 NA
ENDBRANCH   6  13
ENDBRANCH   1   7
BRANCH   1  15
ATOM     15  C   LIG    1        2.311   5.453  -0.071  0.00  0.00    +0.320 C 
BRANCH  15  16
ATOM     16  C   LIG    1        3.745   5.978  -0.171  0.00  0.00    +0.130 C 
ATOM     17  C   LIG    1        3.765   7.522  -0.273  0.00  0.00    +0.230 C 
ATOM     18  O   LIG    1        5.058   7.867   0.258  0.00  0.00    -0.380 OA
ATOM     19  C   LIG    1        5.504   6.765   1.074  0.00  0.00    +0.270 C 
ATOM     20  C   LIG    1        5.604   7.287   2.528  0.00  0.00    +0.030 C 
ATOM     21  C   LIG    1        5.541   6.121   3.473  0.00  0.00    +0.020 C 
ATOM     22  C   LIG    1        6.936   5.600   3.873  0.00  0.00    +0.000 C 
ATOM     23  C   LIG    1        7.915   5.541   2.685  0.00  0.00    +0.000 C 
ATOM     24  C   LIG    1        7.257   5.020   1.434  0.00  0.00    +0.040 C 
ATOM     25  C   LIG    1        6.775   6.222   0.604  0.00  0.00    +0.020 C 
ATOM     26  O   LIG    1        4.465   5.758   1.063  0.00  0.00    -0.360 OA
ENDBRANCH  15  16
ENDBRANCH   1  15
TORSDOF 4
