REMARK  Name = ZINCvU0000000DGr.0
REMARK                            x       y       z     vdW  Elec       q    Type
REMARK                         _______ _______ _______ _____ _____    ______ ____
ROOT
ATOM      1  C   LIG    1       -4.619   1.848   0.815  0.00  0.00    +0.510 C 
ATOM      2  O   LIG    1       -4.746   0.795   1.412  0.00  0.00    -0.510 OA
ENDROOT
BRANCH   1   4
ATOM      3  C   LIG    1       -6.796   2.554   1.533  0.00  0.00    +0.170 C 
ATOM      4  C   LIG    1       -5.662   2.808   0.844  0.00  0.00    -0.060 C 
BRANCH   3   7
ATOM      5  C   LIG    1      -10.066   4.227   2.300  0.00  0.00    +0.150 A 
ATOM      6  C   LIG    1       -9.052   3.288   2.275  0.00  0.00    -0.060 A 
ATOM      7  C   LIG    1       -7.876   3.550   1.562  0.00  0.00    -0.020 A 
ATOM      8  C   LIG    1       -7.730   4.764   0.881  0.00  0.00    -0.070 A 
ATOM      9  C   LIG    1       -8.751   5.695   0.906  0.00  0.00    +0.150 A 
ATOM     10  C   LIG    1       -9.919   5.432   1.617  0.00  0.00    +0.050 A 
BRANCH   5  12
ATOM     11  C   LIG    1      -11.292   2.718   3.671  0.00  0.00    +0.250 C 
ATOM     12  O   LIG    1      -11.208   3.974   2.993  0.00  0.00    -0.300 OA
ENDBRANCH   5  12
BRANCH   9  13
ATOM     13  O   LIG    1       -8.611   6.873   0.241  0.00  0.00    -0.300 OA
ATOM     14  C   LIG    1       -7.387   7.078  -0.467  0.00  0.00    +0.250 C 
ENDBRANCH   9  13
BRANCH  10  15
ATOM     15  O   LIG    1      -10.918   6.353   1.645  0.00  0.00    -0.310 OA
ATOM     16  C   LIG    1      -10.881   7.319   2.697  0.00  0.00    +0.240 C 
ENDBRANCH  10  15
ENDBRANCH   3   7
ENDBRANCH   1   4
BRANCH   1  17
ATOM     17  O   LIG    1       -3.486   2.102   0.127  0.00  0.00    -0.320 OA
BRANCH  17  18
ATOM     18  C   LIG    1       -2.478   1.089   0.142  0.00  0.00    +0.190 C 
ATOM     19  C   LIG    1       -2.700   0.131  -1.030  0.00  0.00    +0.070 C 
BRANCH  18  20
ATOM     20  C   LIG    1       -1.120   1.731   0.016  0.00  0.00    +0.520 C 
ATOM     21  N   LIG    1       -0.011   0.966   0.007  0.00  0.00    -0.660 N 
ATOM     22  H   LIG    1       -0.089  -0.001   0.017  0.00  0.00    +0.420 HD
ATOM     23  O   LIG    1       -1.026   2.937  -0.077  0.00  0.00    -0.490 OA
BRANCH  21  24
ATOM     24  C   LIG    1        1.254   1.566  -0.021  0.00  0.00    +0.170 A 
ATOM     25  C   LIG    1        1.447   2.748  -0.722  0.00  0.00    +0.080 A 
ATOM     26  C   LIG    1        2.696   3.339  -0.749  0.00  0.00    -0.010 A 
ATOM     27  C   LIG    1        3.755   2.752  -0.076  0.00  0.00    -0.040 A 
ATOM     28  C   LIG    1        3.565   1.573   0.624  0.00  0.00    +0.090 A 
ATOM     29 CL   LIG    1        5.323   3.496  -0.111  0.00  0.00    -0.030 Cl
ATOM     30 CL   LIG    1        2.939   4.817  -1.626  0.00  0.00    -0.030 Cl
ATOM     31  C   LIG    1        2.317   0.982   0.658  0.00  0.00    -0.050 A 
ATOM     32 CL   LIG    1        2.078  -0.493   1.542  0.00  0.00    -0.040 Cl
ENDBRANCH  21  24
ENDBRANCH  18  20
ENDBRANCH  17  18
ENDBRANCH   1  17
TORSDOF 9
