REMARK  Name = ZINCqH0000005XGh.0
REMARK                            x       y       z     vdW  Elec       q    Type
REMARK                         _______ _______ _______ _____ _____    ______ ____
ROOT
ATOM      1  C   LIG    1        1.187   1.792   0.000  0.00  0.00    -0.130 A 
ATOM      2  C   LIG    1       -0.013   1.076   0.008  0.00  0.00    +0.070 A 
ATOM      3  C   LIG    1       -1.214   1.749   0.017  0.00  0.00    +0.010 A 
ATOM      4  C   LIG    1       -1.241   3.135   0.030  0.00  0.00    +0.080 A 
ATOM      5  C   LIG    1       -0.066   3.857   0.022  0.00  0.00    +0.000 A 
ATOM      6  C   LIG    1        1.157   3.196   0.008  0.00  0.00    -0.040 A 
ENDROOT
BRANCH   1   9
ATOM      7  N   LIG    1        2.501  -0.270  -0.021  0.00  0.00    -0.620 N 
ATOM      8  H   LIG    1        1.669  -0.770  -0.016  0.00  0.00    +0.420 HD
ATOM      9  C   LIG    1        2.476   1.078  -0.015  0.00  0.00    +0.550 C 
ATOM     10  O   LIG    1        3.518   1.705  -0.021  0.00  0.00    -0.480 OA
BRANCH   7  14
ATOM     11  C   LIG    1        6.070  -1.734  -0.061  0.00  0.00    -0.340 A 
ATOM     12  C   LIG    1        5.143  -2.743  -0.058  0.00  0.00    +0.150 A 
ATOM     13  C   LIG    1        3.849  -2.294  -0.038  0.00  0.00    -0.060 A 
ATOM     14  C   LIG    1        3.715  -0.942  -0.036  0.00  0.00    +0.020 A 
ATOM     15  S   LIG    1        5.243  -0.183  -0.045  0.00  0.00    +0.380 S 
BRANCH  11  16
ATOM     16  C   LIG    1        7.475  -1.913  -0.074  0.00  0.00    +0.540 C 
ATOM     17  O   LIG    1        7.945  -3.035  -0.085  0.00  0.00    -0.510 OA
BRANCH  16  19
ATOM     18  C   LIG    1        9.698  -1.093  -0.089  0.00  0.00    +0.260 C 
ATOM     19  O   LIG    1        8.292  -0.839  -0.075  0.00  0.00    -0.360 OA
ENDBRANCH  16  19
ENDBRANCH  11  16
ENDBRANCH   7  14
ENDBRANCH   1   9
BRANCH   6  20
ATOM     20  S   LIG    1        2.660   4.115  -0.001  0.00  0.00    +0.050 S 
BRANCH  20  21
ATOM     21  C   LIG    1        2.087   5.836   0.013  0.00  0.00    +0.180 C 
BRANCH  21  22
ATOM     22  C   LIG    1        3.276   6.762   0.007  0.00  0.00    +0.190 A 
ATOM     23  N   LIG    1        3.886   7.242  -1.050  0.00  0.00    -0.460 NA
ATOM     24  C   LIG    1        4.879   8.015  -0.574  0.00  0.00    +0.170 A 
ATOM     25  N   LIG    1        4.828   7.960   0.723  0.00  0.00    -0.380 NA
ATOM     26  C   LIG    1        5.872   8.797  -1.395  0.00  0.00    +0.200 C 
ATOM     27  O   LIG    1        3.914   7.245   1.077  0.00  0.00    +0.090 OA
ENDBRANCH  21  22
ENDBRANCH  20  21
ENDBRANCH   6  20
TORSDOF 7
