REMARK  Name = ZINCrg00000SjSzJ.0
REMARK                            x       y       z     vdW  Elec       q    Type
REMARK                         _______ _______ _______ _____ _____    ______ ____
ROOT
ATOM      1  C   LIG    1        1.021  -2.227  -0.020  0.00  0.00    +0.180 C 
ENDROOT
BRANCH   1   5
ATOM      2  N   LIG    1        4.185  -4.846  -1.009  0.00  0.00    -0.490 N 
ATOM      3  C   LIG    1        3.467  -5.079   0.252  0.00  0.00    +0.200 C 
ATOM      4  C   LIG    1        2.106  -4.382   0.197  0.00  0.00    +0.200 C 
ATOM      5  N   LIG    1        2.303  -2.944  -0.036  0.00  0.00    -0.540 NA
ATOM      6  C   LIG    1        3.021  -2.711  -1.297  0.00  0.00    +0.190 C 
ATOM      7  C   LIG    1        4.383  -3.409  -1.242  0.00  0.00    +0.200 C 
BRANCH   2  13
ATOM      8  C   LIG    1        8.347  -6.018  -3.345  0.00  0.00    +0.090 C 
ATOM      9  C   LIG    1        7.442  -6.114  -2.144  0.00  0.00    -0.060 A 
ATOM     10  C   LIG    1        7.818  -6.879  -1.055  0.00  0.00    -0.030 A 
ATOM     11  C   LIG    1        6.991  -6.970   0.049  0.00  0.00    +0.030 A 
ATOM     12  C   LIG    1        5.785  -6.297   0.068  0.00  0.00    -0.050 A 
ATOM     13  C   LIG    1        5.404  -5.528  -1.025  0.00  0.00    +0.110 A 
ATOM     14  C   LIG    1        6.235  -5.443  -2.134  0.00  0.00    -0.020 A 
ENDBRANCH   2  13
ENDBRANCH   1   5
BRANCH   1  15
ATOM     15  C   LIG    1        1.281  -0.719  -0.014  0.00  0.00    +0.270 C 
BRANCH  15  16
ATOM     16  N   LIG    1        0.002  -0.004   0.002  0.00  0.00    -0.730 N 
ATOM     17  H   LIG    1       -0.831  -0.500   0.007  0.00  0.00    +0.400 HD
ATOM     18  C   LIG    1       -0.016   1.344   0.009  0.00  0.00    +0.500 C 
ATOM     19  O   LIG    1        1.026   1.964   0.003  0.00  0.00    -0.500 OA
BRANCH  18  20
ATOM     20  C   LIG    1       -1.331   2.079   0.020  0.00  0.00    +0.380 C 
BRANCH  20  21
ATOM     21  N   LIG    1       -1.083   3.523   0.026  0.00  0.00    -0.340 N 
ATOM     22  C   LIG    1       -1.570   4.416  -0.860  0.00  0.00    +0.370 A 
ATOM     23  C   LIG    1       -1.111   5.639  -0.508  0.00  0.00    -0.190 A 
ATOM     24  C   LIG    1       -0.317   5.489   0.634  0.00  0.00    +0.320 A 
ATOM     25  N   LIG    1       -0.304   4.221   0.958  0.00  0.00    -0.240 NA
BRANCH  23  26
ATOM     26  N   LIG    1       -1.398   6.912  -1.207  0.00  0.00    +0.070 N 
ATOM     27  O   LIG    1       -0.925   7.955  -0.792  0.00  0.00    -0.160 OA
ATOM     28  O   LIG    1       -2.108   6.917  -2.197  0.00  0.00    -0.170 OA
ENDBRANCH  23  26
ENDBRANCH  20  21
ENDBRANCH  18  20
ENDBRANCH  15  16
ENDBRANCH   1  15
TORSDOF 7
