REMARK  Name = ZINCrD00000l2HIy.0
REMARK                            x       y       z     vdW  Elec       q    Type
REMARK                         _______ _______ _______ _____ _____    ______ ____
ROOT
ATOM      1  O   LIG    1       -2.187   5.290  -0.622  0.00  0.00    -0.480 OA
ATOM      2  C   LIG    1       -1.176   5.904  -0.356  0.00  0.00    +0.520 C 
ATOM      3  N   LIG    1       -0.067   5.243   0.030  0.00  0.00    -0.690 N 
ATOM      4  H   LIG    1        0.719   5.737   0.313  0.00  0.00    +0.420 HD
ENDROOT
BRANCH   3   5
ATOM      5  C   LIG    1       -0.049   3.843   0.022  0.00  0.00    +0.190 A 
ATOM      6  C   LIG    1       -0.555   3.134   1.105  0.00  0.00    -0.030 A 
ATOM      7  C   LIG    1       -0.540   1.752   1.091  0.00  0.00    +0.080 A 
ATOM      8  C   LIG    1       -0.012   1.076   0.007  0.00  0.00    +0.050 A 
ATOM      9  C   LIG    1        0.493   1.779  -1.071  0.00  0.00    +0.090 A 
ATOM     10 CL   LIG    1       -1.213   3.983   2.469  0.00  0.00    -0.040 Cl
ATOM     11  C   LIG    1        0.476   3.160  -1.067  0.00  0.00    -0.170 A 
BRANCH  11  12
ATOM     12  C   LIG    1        1.027   3.925  -2.242  0.00  0.00    +0.510 C 
ATOM     13  F   LIG    1        2.081   4.741  -1.816  0.00  0.00    -0.170 F 
ATOM     14  F   LIG    1        0.018   4.719  -2.797  0.00  0.00    -0.170 F 
ATOM     15  F   LIG    1        1.495   3.025  -3.206  0.00  0.00    -0.170 F 
ENDBRANCH  11  12
ENDBRANCH   3   5
BRANCH   2  16
ATOM     16  C   LIG    1       -1.160   7.408  -0.455  0.00  0.00    +0.270 C 
BRANCH  16  17
ATOM     17  O   LIG    1       -2.464   7.878  -0.887  0.00  0.00    -0.320 OA
BRANCH  17  18
ATOM     18  C   LIG    1       -2.618   9.205  -1.027  0.00  0.00    +0.470 C 
ATOM     19  O   LIG    1       -1.694   9.948  -0.796  0.00  0.00    -0.500 OA
BRANCH  18  20
ATOM     20  C   LIG    1       -3.943   9.767  -1.472  0.00  0.00    +0.370 C 
BRANCH  20  21
ATOM     21  N   LIG    1       -3.854  11.227  -1.546  0.00  0.00    -0.720 N 
ATOM     22  H   LIG    1       -3.023  11.674  -1.323  0.00  0.00    +0.410 HD
ATOM     23  C   LIG    1       -4.928  11.949  -1.925  0.00  0.00    +0.600 C 
ATOM     24  O   LIG    1       -5.971  11.388  -2.205  0.00  0.00    -0.520 OA
BRANCH  23  25
ATOM     25  C   LIG    1       -4.839  13.410  -1.999  0.00  0.00    -0.280 A 
ATOM     26  C   LIG    1       -5.853  14.248  -2.368  0.00  0.00    +0.110 A 
ATOM     27  C   LIG    1       -5.495  15.576  -2.351  0.00  0.00    +0.000 A 
ATOM     28  C   LIG    1       -4.232  15.818  -1.981  0.00  0.00    -0.050 A 
ATOM     29  S   LIG    1       -3.412  14.366  -1.621  0.00  0.00    +0.210 S 
ENDBRANCH  23  25
ENDBRANCH  20  21
ENDBRANCH  18  20
ENDBRANCH  17  18
ENDBRANCH  16  17
ENDBRANCH   2  16
TORSDOF 8
