REMARK  Name = ZINCrH000004sQXI.0
REMARK                            x       y       z     vdW  Elec       q    Type
REMARK                         _______ _______ _______ _____ _____    ______ ____
ROOT
ATOM      1  C   LIG    1       -0.016   1.344   0.009  0.00  0.00    +0.610 C 
ATOM      2  N   LIG    1        0.002  -0.004   0.002  0.00  0.00    -0.710 N 
ATOM      3  H   LIG    1       -0.831  -0.500   0.007  0.00  0.00    +0.410 HD
ATOM      4  O   LIG    1        1.029   1.966   0.003  0.00  0.00    -0.530 OA
ENDROOT
BRANCH   1   7
ATOM      5  C   LIG    1       -0.381   4.454   0.040  0.00  0.00    +0.210 C 
ATOM      6  C   LIG    1       -1.472   3.415   0.033  0.00  0.00    +0.050 A 
ATOM      7  C   LIG    1       -1.303   2.063   0.019  0.00  0.00    -0.080 A 
ATOM      8  N   LIG    1       -2.539   1.502   0.023  0.00  0.00    -0.450 NA
ATOM      9  C   LIG    1       -3.429   2.462   0.033  0.00  0.00    +0.240 A 
ATOM     10  O   LIG    1       -2.795   3.648   0.036  0.00  0.00    -0.190 OA
BRANCH   9  11
ATOM     11  C   LIG    1       -4.896   2.273   0.039  0.00  0.00    -0.020 A 
ATOM     12  C   LIG    1       -5.437   0.987   0.028  0.00  0.00    +0.070 A 
ATOM     13  C   LIG    1       -6.806   0.817   0.039  0.00  0.00    +0.010 A 
ATOM     14  C   LIG    1       -7.642   1.919   0.050  0.00  0.00    +0.030 A 
ATOM     15  C   LIG    1       -7.113   3.197   0.055  0.00  0.00    +0.010 A 
ATOM     16  C   LIG    1       -5.745   3.381   0.050  0.00  0.00    +0.040 A 
ENDBRANCH   9  11
ENDBRANCH   1   7
BRANCH   2  17
ATOM     17  C   LIG    1        1.281  -0.719  -0.014  0.00  0.00    +0.360 C 
BRANCH  17  18
ATOM     18  C   LIG    1        1.025  -2.204  -0.020  0.00  0.00    -0.250 A 
ATOM     19  C   LIG    1        0.880  -2.983  -1.117  0.00  0.00    +0.260 A 
ATOM     20  N   LIG    1        0.667  -4.250  -0.696  0.00  0.00    -0.320 N 
ATOM     21  N   LIG    1        0.682  -4.248   0.704  0.00  0.00    -0.290 NA
ATOM     22  C   LIG    1        0.903  -3.023   1.109  0.00  0.00    +0.270 A 
BRANCH  20  23
ATOM     23  C   LIG    1        0.466  -5.369  -1.517  0.00  0.00    +0.150 A 
ATOM     24  C   LIG    1        0.471  -5.228  -2.898  0.00  0.00    -0.010 A 
ATOM     25  C   LIG    1        0.280  -6.334  -3.704  0.00  0.00    +0.040 A 
ATOM     26  C   LIG    1        0.071  -7.577  -3.137  0.00  0.00    +0.000 A 
ATOM     27  C   LIG    1        0.060  -7.720  -1.761  0.00  0.00    +0.040 A 
ATOM     28  C   LIG    1        0.257  -6.619  -0.950  0.00  0.00    +0.020 A 
ENDBRANCH  20  23
ENDBRANCH  17  18
ENDBRANCH   2  17
TORSDOF 5
