REMARK  Name = ZINCqH0000003Aan.0
REMARK                            x       y       z     vdW  Elec       q    Type
REMARK                         _______ _______ _______ _____ _____    ______ ____
ROOT
ATOM      1  C   LIG    1       -2.203   5.779  -3.916  0.00  0.00    +0.350 A 
ATOM      2  N   LIG    1       -2.071   4.530  -4.316  0.00  0.00    -0.580 NA
ATOM      3  C   LIG    1       -1.492   3.587  -3.573  0.00  0.00    +0.500 A 
ATOM      4  C   LIG    1       -1.018   4.012  -2.302  0.00  0.00    -0.220 A 
ATOM      5  C   LIG    1       -1.184   5.353  -1.927  0.00  0.00    +0.100 A 
ATOM      6  S   LIG    1       -0.518   5.604  -0.334  0.00  0.00    +0.180 S 
ATOM      7  C   LIG    1       -0.030   3.921  -0.192  0.00  0.00    -0.180 A 
ATOM      8  C   LIG    1        0.671   3.336   1.021  0.00  0.00    +0.130 C 
ATOM      9  C   LIG    1        0.564   1.810   0.969  0.00  0.00    -0.010 C 
ATOM     10  C   LIG    1        1.473   1.195   2.035  0.00  0.00    +0.030 C 
ATOM     11  C   LIG    1        1.002   1.330  -0.418  0.00  0.00    +0.030 C 
ATOM     12  C   LIG    1       -0.054   1.737  -1.446  0.00  0.00    +0.090 C 
ATOM     13  C   LIG    1       -0.354   3.222  -1.287  0.00  0.00    -0.070 A 
ATOM     14  N   LIG    1       -1.781   6.229  -2.747  0.00  0.00    -0.490 NA
ENDROOT
BRANCH   3  15
ATOM     15  N   LIG    1       -1.361   2.281  -4.010  0.00  0.00    -0.820 N 
ATOM     16  H   LIG    1       -1.566   2.055  -4.931  0.00  0.00    +0.410 HD
ATOM     17  H   LIG    1       -1.065   1.592  -3.395  0.00  0.00    +0.420 HD
ENDBRANCH   3  15
BRANCH   1  18
ATOM     18  C   LIG    1       -2.876   6.753  -4.848  0.00  0.00    +0.420 C 
BRANCH  18  23
ATOM     19  C   LIG    1       -1.383   6.877  -6.866  0.00  0.00    +0.210 A 
ATOM     20  N   LIG    1       -0.509   7.717  -7.351  0.00  0.00    -0.460 NA
ATOM     21  C   LIG    1       -0.402   8.769  -6.526  0.00  0.00    +0.140 A 
ATOM     22  C   LIG    1       -1.245   8.576  -5.493  0.00  0.00    +0.140 A 
ATOM     23  N   LIG    1       -1.870   7.378  -5.711  0.00  0.00    -0.450 N 
BRANCH  19  24
ATOM     24  C   LIG    1       -1.784   5.567  -7.494  0.00  0.00    +0.260 C 
ATOM     25  C   LIG    1       -0.672   4.538  -7.280  0.00  0.00    +0.040 C 
BRANCH  24  26
ATOM     26  O   LIG    1       -1.996   5.755  -8.894  0.00  0.00    -0.370 OA
BRANCH  26  28
ATOM     27  C   LIG    1       -3.115   5.163 -10.953  0.00  0.00    +0.040 C 
ATOM     28  C   LIG    1       -2.970   4.874  -9.458  0.00  0.00    +0.160 C 
ENDBRANCH  26  28
ENDBRANCH  24  26
ENDBRANCH  19  24
ENDBRANCH  18  23
ENDBRANCH   1  18
TORSDOF 6
