REMARK  Name = ZINCnE000001PcNf.0
REMARK                            x       y       z     vdW  Elec       q    Type
REMARK                         _______ _______ _______ _____ _____    ______ ____
ROOT
ATOM      1  S   LIG    1        4.856   1.218   0.943  0.00  0.00    +0.040 S 
ENDROOT
BRANCH   1   2
ATOM      2  C   LIG    1        6.244   2.305   0.946  0.00  0.00    -0.080 A 
ATOM      3  N   LIG    1        6.325   3.466   0.378  0.00  0.00    -0.250 NA
ATOM      4  N   LIG    1        7.499   4.177   0.492  0.00  0.00    -0.500 NA
ATOM      5  C   LIG    1        8.500   3.579   1.201  0.00  0.00    +0.340 A 
ATOM      6  N   LIG    1        9.701   4.047   1.444  0.00  0.00    -0.630 NA
ATOM      7  S   LIG    1        7.814   2.027   1.719  0.00  0.00    -0.090 S 
BRANCH   6   8
ATOM      8  C   LIG    1       10.093   5.361   0.929  0.00  0.00    +0.300 C 
BRANCH   8   9
ATOM      9  C   LIG    1       10.336   6.300   2.083  0.00  0.00    +0.030 A 
ATOM     10  C   LIG    1       11.509   6.484   2.714  0.00  0.00    -0.080 A 
ATOM     11  C   LIG    1       11.285   7.448   3.723  0.00  0.00    -0.080 A 
ATOM     12  C   LIG    1        9.986   7.790   3.654  0.00  0.00    +0.130 A 
ATOM     13  O   LIG    1        9.416   7.091   2.658  0.00  0.00    -0.170 OA
ENDBRANCH   8   9
ENDBRANCH   6   8
ENDBRANCH   1   2
BRANCH   1  14
ATOM     14  C   LIG    1        3.623   2.134  -0.021  0.00  0.00    +0.080 C 
ATOM     15  C   LIG    1        4.114   2.288  -1.462  0.00  0.00    +0.090 C 
BRANCH  14  22
ATOM     16  C   LIG    1        1.265  -2.145  -0.022  0.00  0.00    +0.150 C 
ATOM     17  C   LIG    1        1.207  -0.640  -0.013  0.00  0.00    +0.190 A 
ATOM     18  C   LIG    1        0.002  -0.004   0.002  0.00  0.00    -0.150 A 
ATOM     19  C   LIG    1       -0.017   1.406   0.010  0.00  0.00    +0.530 A 
ATOM     20  N   LIG    1        1.160   2.068   0.002  0.00  0.00    -0.620 N 
ATOM     21  H   LIG    1        1.171   3.038   0.007  0.00  0.00    +0.420 HD
ATOM     22  C   LIG    1        2.318   1.380  -0.013  0.00  0.00    +0.430 A 
ATOM     23  O   LIG    1       -1.074   2.015   0.018  0.00  0.00    -0.550 OA
ATOM     24  N   LIG    1        2.336   0.073  -0.020  0.00  0.00    -0.520 NA
ENDBRANCH  14  22
ENDBRANCH   1  14
TORSDOF 5
