REMARK  Name = ZINCtV00000L6jEV.0
REMARK                            x       y       z     vdW  Elec       q    Type
REMARK                         _______ _______ _______ _____ _____    ______ ____
ROOT
ATOM      1  C   LIG    1       -3.819  -0.284  -3.291  0.00  0.00    -0.090 A 
ATOM      2  C   LIG    1       -3.160  -0.226  -2.077  0.00  0.00    +0.030 A 
ATOM      3  C   LIG    1       -3.233   0.918  -1.304  0.00  0.00    -0.080 A 
ATOM      4  C   LIG    1       -3.970   2.004  -1.739  0.00  0.00    +0.060 A 
ATOM      5  C   LIG    1       -4.626   1.953  -2.954  0.00  0.00    -0.090 A 
ATOM      6  C   LIG    1       -4.554   0.807  -3.732  0.00  0.00    +0.120 A 
ENDROOT
BRANCH   1   8
ATOM      7  C   LIG    1       -2.873  -2.572  -3.421  0.00  0.00    +0.030 C 
ATOM      8  C   LIG    1       -3.739  -1.531  -4.133  0.00  0.00    -0.020 C 
ATOM      9  C   LIG    1       -3.116  -1.191  -5.489  0.00  0.00    +0.030 C 
ATOM     10  C   LIG    1       -5.145  -2.094  -4.344  0.00  0.00    +0.030 C 
ENDBRANCH   1   8
BRANCH   5  11
ATOM     11  C   LIG    1       -5.424   3.139  -3.431  0.00  0.00    -0.020 C 
ATOM     12  C   LIG    1       -6.885   2.728  -3.619  0.00  0.00    +0.030 C 
ATOM     13  C   LIG    1       -4.857   3.633  -4.764  0.00  0.00    +0.030 C 
ATOM     14  C   LIG    1       -5.339   4.261  -2.394  0.00  0.00    +0.040 C 
ENDBRANCH   5  11
BRANCH   6  15
ATOM     15  O   LIG    1       -5.202   0.752  -4.925  0.00  0.00    -0.490 OA
ATOM     16  H   LIG    1       -6.108   0.417  -4.865  0.00  0.00    +0.380 HD
ENDBRANCH   6  15
BRANCH   3  17
ATOM     17  C   LIG    1       -2.514   0.979   0.019  0.00  0.00    +0.230 C 
BRANCH  17  18
ATOM     18  C   LIG    1       -1.276   1.828  -0.121  0.00  0.00    -0.070 A 
ATOM     19  C   LIG    1       -0.030   1.231  -0.166  0.00  0.00    +0.030 A 
ATOM     20  C   LIG    1        1.104   2.009  -0.300  0.00  0.00    +0.020 A 
ATOM     21  C   LIG    1        0.993   3.386  -0.384  0.00  0.00    -0.030 A 
ATOM     22  C   LIG    1       -0.254   3.983  -0.333  0.00  0.00    +0.020 A 
ATOM     23 CL   LIG    1        2.418   4.363  -0.553  0.00  0.00    -0.070 Cl
ATOM     24  C   LIG    1       -1.388   3.204  -0.199  0.00  0.00    +0.060 A 
ENDBRANCH  17  18
BRANCH  17  25
ATOM     25  N   LIG    1       -3.400   1.568   1.032  0.00  0.00    -0.520 NA
ATOM     26  C   LIG    1       -2.712   1.691   2.325  0.00  0.00    +0.150 C 
ATOM     27  C   LIG    1       -3.650   2.362   3.333  0.00  0.00    +0.230 C 
ATOM     28  O   LIG    1       -4.858   1.602   3.432  0.00  0.00    -0.380 OA
ATOM     29  C   LIG    1       -5.553   1.463   2.190  0.00  0.00    +0.220 C 
ATOM     30  C   LIG    1       -4.635   0.783   1.171  0.00  0.00    +0.150 C 
ENDBRANCH  17  25
ENDBRANCH   3  17
TORSDOF 6
