REMARK  Name = ZINCah0000006ktL.0
REMARK                            x       y       z     vdW  Elec       q    Type
REMARK                         _______ _______ _______ _____ _____    ______ ____
ROOT
ATOM      1  C   LIG    1       -1.097   1.428   3.599  0.00  0.00    +0.260 A 
ATOM      2  C   LIG    1       -0.447   0.970   2.469  0.00  0.00    -0.030 A 
ATOM      3  C   LIG    1       -0.716   1.570   1.247  0.00  0.00    -0.030 A 
ATOM      4  C   LIG    1       -1.626   2.607   1.204  0.00  0.00    -0.180 A 
ATOM      5  C   LIG    1       -1.967   3.300  -0.088  0.00  0.00    +0.280 C 
ATOM      6  O   LIG    1       -0.988   2.997  -1.082  0.00  0.00    -0.370 OA
ATOM      7  C   LIG    1       -0.752   1.592  -1.233  0.00  0.00    +0.220 C 
ATOM      8  C   LIG    1       -2.238   3.013   2.378  0.00  0.00    +0.270 A 
ATOM      9  C   LIG    1       -0.013   1.086   0.008  0.00  0.00    +0.060 C 
ATOM     10  N   LIG    1       -1.960   2.421   3.523  0.00  0.00    -0.490 NA
ENDROOT
TORSDOF 0
