REMARK  Name = ZINCrH00000tj0MB.0
REMARK                            x       y       z     vdW  Elec       q    Type
REMARK                         _______ _______ _______ _____ _____    ______ ____
ROOT
ATOM      1  C   LIG    1       -1.028  -3.675  -3.959  0.00  0.00    +0.180 A 
ATOM      2  C   LIG    1       -0.174  -4.575  -3.336  0.00  0.00    -0.030 A 
ATOM      3  C   LIG    1        0.266  -5.696  -4.013  0.00  0.00    +0.050 A 
ATOM      4  C   LIG    1       -0.143  -5.925  -5.313  0.00  0.00    +0.010 A 
ATOM      5  C   LIG    1       -0.998  -5.029  -5.942  0.00  0.00    +0.160 A 
ATOM      6  C   LIG    1       -1.445  -3.905  -5.263  0.00  0.00    +0.000 A 
ENDROOT
BRANCH   1   9
ATOM      7  N   LIG    1       -2.222  -0.329  -3.299  0.00  0.00    -0.620 N 
ATOM      8  C   LIG    1       -1.696  -1.391  -3.941  0.00  0.00    +0.710 C 
ATOM      9  N   LIG    1       -1.473  -2.540  -3.272  0.00  0.00    -0.680 N 
ATOM     10  H   LIG    1       -1.621  -2.580  -2.314  0.00  0.00    +0.410 HD
ATOM     11  O   LIG    1       -1.423  -1.313  -5.123  0.00  0.00    -0.560 OA
ATOM     12  C   LIG    1       -2.551  -0.423  -1.875  0.00  0.00    +0.280 C 
BRANCH   7  13
ATOM     13  C   LIG    1       -2.465   0.920  -4.026  0.00  0.00    +0.410 C 
BRANCH  13  18
ATOM     14  C   LIG    1       -7.076   0.466  -6.862  0.00  0.00    +0.180 C 
ATOM     15  C   LIG    1       -5.941   0.692  -5.897  0.00  0.00    +0.040 A 
ATOM     16  N   LIG    1       -6.062   1.216  -4.724  0.00  0.00    -0.480 NA
ATOM     17  C   LIG    1       -4.964   1.342  -4.006  0.00  0.00    +0.220 A 
ATOM     18  C   LIG    1       -3.855   0.901  -4.607  0.00  0.00    -0.260 A 
ATOM     19  S   LIG    1       -4.306   0.292  -6.198  0.00  0.00    +0.160 S 
ENDBRANCH  13  18
ENDBRANCH   7  13
ENDBRANCH   1   9
BRANCH   5  20
ATOM     20  N   LIG    1       -1.411  -5.261  -7.258  0.00  0.00    -0.670 N 
ATOM     21  H   LIG    1       -1.536  -4.516  -7.866  0.00  0.00    +0.410 HD
ATOM     22  C   LIG    1       -1.636  -6.521  -7.681  0.00  0.00    +0.570 C 
ATOM     23  O   LIG    1       -1.399  -7.460  -6.946  0.00  0.00    -0.510 OA
BRANCH  22  24
ATOM     24  C   LIG    1       -2.171  -6.761  -9.037  0.00  0.00    -0.190 A 
ATOM     25  C   LIG    1       -2.404  -8.065  -9.491  0.00  0.00    +0.140 A 
ATOM     26  C   LIG    1       -2.910  -8.236 -10.767  0.00  0.00    -0.030 A 
ATOM     27  C   LIG    1       -3.157  -7.123 -11.551  0.00  0.00    +0.300 A 
ATOM     28  N   LIG    1       -2.924  -5.906 -11.099  0.00  0.00    -0.490 NA
ATOM     29  C   LIG    1       -2.448  -5.692  -9.891  0.00  0.00    +0.300 A 
ENDBRANCH  22  24
ENDBRANCH   5  20
TORSDOF 5
