REMARK  Name = ZINCpe000000YZQa.0
REMARK                            x       y       z     vdW  Elec       q    Type
REMARK                         _______ _______ _______ _____ _____    ______ ____
ROOT
ATOM      1  O   LIG    1       -0.462   5.018  -1.383  0.00  0.00    -0.510 OA
ATOM      2  C   LIG    1       -0.013   5.195  -0.270  0.00  0.00    +0.500 C 
ATOM      3  N   LIG    1        0.921   6.144  -0.063  0.00  0.00    -0.610 N 
ATOM      4  C   LIG    1        1.463   6.367   1.284  0.00  0.00    +0.290 C 
ATOM      5  C   LIG    1        1.481   7.867   1.604  0.00  0.00    +0.190 C 
ATOM      6  N   LIG    1        2.141   8.552   0.499  0.00  0.00    -0.520 NA
ATOM      7  C   LIG    1        2.320  10.004   0.651  0.00  0.00    +0.200 C 
ATOM      8  C   LIG    1        2.597  10.491  -0.796  0.00  0.00    +0.290 C 
ATOM      9  C   LIG    1        1.959   9.413  -1.708  0.00  0.00    +0.070 C 
ATOM     10  F   LIG    1        1.993  11.733  -1.016  0.00  0.00    -0.190 F 
ATOM     11  F   LIG    1        3.974  10.570  -1.027  0.00  0.00    -0.180 F 
ATOM     12  C   LIG    1        1.313   8.424  -0.730  0.00  0.00    +0.110 C 
ATOM     13  C   LIG    1        1.402   6.972  -1.188  0.00  0.00    +0.320 C 
ENDROOT
BRANCH   2  14
ATOM     14  C   LIG    1       -0.500   4.353   0.882  0.00  0.00    +0.380 C 
BRANCH  14  15
ATOM     15  N   LIG    1       -1.505   3.402   0.401  0.00  0.00    -0.370 N 
ATOM     16  N   LIG    1       -2.889   3.615   0.271  0.00  0.00    -0.070 NA
ATOM     17  N   LIG    1       -3.394   2.522  -0.187  0.00  0.00    -0.030 NA
ATOM     18  N   LIG    1       -2.474   1.644  -0.365  0.00  0.00    -0.320 NA
ATOM     19  C   LIG    1       -1.301   2.128  -0.016  0.00  0.00    +0.300 A 
BRANCH  19  20
ATOM     20  C   LIG    1       -0.004   1.419  -0.073  0.00  0.00    -0.040 A 
ATOM     21  C   LIG    1        1.189   2.141  -0.098  0.00  0.00    +0.020 A 
ATOM     22  C   LIG    1        2.396   1.474  -0.157  0.00  0.00    +0.020 A 
ATOM     23  C   LIG    1        2.424   0.091  -0.192  0.00  0.00    +0.040 A 
ATOM     24  C   LIG    1        1.244  -0.631  -0.168  0.00  0.00    +0.020 A 
ATOM     25  C   LIG    1        0.031   0.025  -0.109  0.00  0.00    +0.080 A 
ENDBRANCH  19  20
ENDBRANCH  14  15
ENDBRANCH   2  14
TORSDOF 3
