REMARK  Name = ZINCrD0000072Avm.0
REMARK                            x       y       z     vdW  Elec       q    Type
REMARK                         _______ _______ _______ _____ _____    ______ ____
ROOT
ATOM      1  C   LIG    1        2.312   0.719  -0.016  0.00  0.00    +0.000 C 
ATOM      2  C   LIG    1        1.450   1.998  -0.001  0.00  0.00    +0.050 C 
ATOM      3  C   LIG    1       -0.019   1.538   0.011  0.00  0.00    +0.040 C 
ATOM      4  C   LIG    1        0.002  -0.004   0.002  0.00  0.00    +0.100 C 
ATOM      5  F   LIG    1       -0.122  -0.488  -1.305  0.00  0.00    -0.200 F 
ATOM      6  C   LIG    1        1.389  -0.368   0.588  0.00  0.00    +0.080 C 
ENDROOT
BRANCH   1   9
ATOM      7  C   LIG    1        4.301   2.608  -0.727  0.00  0.00    +0.270 C 
ATOM      8  N   LIG    1        4.479   1.802   0.483  0.00  0.00    -0.610 N 
ATOM      9  C   LIG    1        3.542   0.899   0.835  0.00  0.00    +0.530 C 
ATOM     10  O   LIG    1        3.690   0.231   1.837  0.00  0.00    -0.530 OA
BRANCH   8  11
ATOM     11  C   LIG    1        5.675   1.976   1.310  0.00  0.00    +0.340 C 
BRANCH  11  12
ATOM     12  C   LIG    1        6.757   1.043   0.833  0.00  0.00    -0.120 A 
ATOM     13  C   LIG    1        6.860  -0.227   1.370  0.00  0.00    +0.050 A 
ATOM     14  C   LIG    1        7.847  -1.087   0.929  0.00  0.00    -0.020 A 
ATOM     15  C   LIG    1        8.744  -0.672  -0.044  0.00  0.00    +0.110 A 
ATOM     16  C   LIG    1        8.642   0.605  -0.578  0.00  0.00    -0.020 A 
ATOM     17  C   LIG    1        7.649   1.459  -0.138  0.00  0.00    +0.040 A 
BRANCH  15  18
ATOM     18  O   LIG    1        9.719  -1.514  -0.476  0.00  0.00    -0.500 OA
ATOM     19  H   LIG    1       10.543  -1.452   0.028  0.00  0.00    +0.390 HD
ENDBRANCH  15  18
ENDBRANCH  11  12
ENDBRANCH   8  11
ENDBRANCH   1   9
BRANCH   4  20
ATOM     20  C   LIG    1       -1.116  -0.560   0.886  0.00  0.00    +0.300 C 
BRANCH  20  21
ATOM     21  N   LIG    1       -2.415  -0.228   0.297  0.00  0.00    -0.710 N 
ATOM     22  H   LIG    1       -2.458   0.273  -0.533  0.00  0.00    +0.410 HD
ATOM     23  C   LIG    1       -3.552  -0.618   0.907  0.00  0.00    +0.650 C 
ATOM     24  O   LIG    1       -3.498  -1.245   1.947  0.00  0.00    -0.560 OA
BRANCH  23  25
ATOM     25  O   LIG    1       -4.746  -0.314   0.365  0.00  0.00    -0.360 OA
BRANCH  25  26
ATOM     26  C   LIG    1       -5.928  -0.766   1.077  0.00  0.00    +0.140 C 
ATOM     27  C   LIG    1       -5.904  -2.292   1.188  0.00  0.00    +0.040 C 
ATOM     28  C   LIG    1       -7.181  -0.330   0.316  0.00  0.00    +0.080 C 
ATOM     29  C   LIG    1       -5.944  -0.154   2.479  0.00  0.00    +0.040 C 
ENDBRANCH  25  26
ENDBRANCH  23  25
ENDBRANCH  20  21
ENDBRANCH   4  20
TORSDOF 8
