REMARK  Name = ZINCpe00000RadA5.0
REMARK                            x       y       z     vdW  Elec       q    Type
REMARK                         _______ _______ _______ _____ _____    ______ ____
ROOT
ATOM      1  C   LIG    1        0.801   5.142   2.345  0.00  0.00    +0.120 C 
ATOM      2  C   LIG    1       -0.389   4.196   2.591  0.00  0.00    +0.310 C 
ATOM      3  N   LIG    1       -0.481   4.826   3.925  0.00  0.00    -0.620 N 
ATOM      4  C   LIG    1       -0.970   4.439   5.120  0.00  0.00    +0.600 C 
ATOM      5  O   LIG    1       -0.906   5.188   6.074  0.00  0.00    -0.530 OA
ATOM      6  C   LIG    1        0.181   6.047   3.425  0.00  0.00    +0.310 C 
ENDROOT
BRANCH   4   7
ATOM      7  C   LIG    1       -1.587   3.101   5.269  0.00  0.00    +0.070 A 
ATOM      8  C   LIG    1       -2.091   2.708   6.507  0.00  0.00    +0.080 A 
ATOM      9  C   LIG    1       -2.666   1.454   6.633  0.00  0.00    +0.050 A 
ATOM     10  C   LIG    1       -2.716   0.634   5.513  0.00  0.00    +0.080 A 
ATOM     11  C   LIG    1       -2.194   1.092   4.310  0.00  0.00    +0.250 A 
ATOM     12  F   LIG    1       -3.268  -0.597   5.593  0.00  0.00    -0.120 F 
ATOM     13  N   LIG    1       -1.659   2.290   4.221  0.00  0.00    -0.430 NA
ENDBRANCH   4   7
BRANCH   1  19
ATOM     14  C   LIG    1        1.374   4.812   0.015  0.00  0.00    +0.240 C 
ATOM     15  C   LIG    1        1.311   5.453  -1.374  0.00  0.00    +0.250 C 
ATOM     16  O   LIG    1        2.007   6.702  -1.349  0.00  0.00    -0.370 OA
ATOM     17  C   LIG    1        1.486   7.633  -0.396  0.00  0.00    +0.240 C 
ATOM     18  C   LIG    1        1.550   7.013   1.002  0.00  0.00    +0.180 C 
ATOM     19  N   LIG    1        0.812   5.742   1.004  0.00  0.00    -0.520 NA
BRANCH  14  24
ATOM     20  C   LIG    1        0.002  -0.004   0.002  0.00  0.00    +0.200 C 
ATOM     21  C   LIG    1       -0.018   1.503   0.010  0.00  0.00    +0.170 A 
ATOM     22  N   LIG    1       -1.076   2.257   0.019  0.00  0.00    -0.370 NA
ATOM     23  O   LIG    1       -0.757   3.428   0.027  0.00  0.00    +0.100 OA
ATOM     24  C   LIG    1        0.575   3.534   0.015  0.00  0.00    +0.180 A 
ATOM     25  N   LIG    1        1.055   2.313   0.004  0.00  0.00    -0.470 NA
ENDBRANCH  14  24
ENDBRANCH   1  19
TORSDOF 3
