REMARK  Name = ZINCrg00000c0Nsz.0
REMARK                            x       y       z     vdW  Elec       q    Type
REMARK                         _______ _______ _______ _____ _____    ______ ____
ROOT
ATOM      1  C   LIG    1        5.329   0.271  -3.867  0.00  0.00    +0.600 C 
ATOM      2  N   LIG    1        4.718   0.542  -2.696  0.00  0.00    -0.700 N 
ATOM      3  H   LIG    1        3.789   0.299  -2.567  0.00  0.00    +0.410 HD
ATOM      4  O   LIG    1        6.495   0.576  -4.030  0.00  0.00    -0.510 OA
ENDROOT
BRANCH   2   5
ATOM      5  C   LIG    1        5.460   1.205  -1.620  0.00  0.00    +0.270 C 
ATOM      6  C   LIG    1        5.412   2.690  -1.827  0.00  0.00    -0.050 C 
ATOM      7  C   LIG    1        4.629   3.497  -1.185  0.00  0.00    -0.030 C 
ATOM      8  C   LIG    1        3.664   3.051  -0.122  0.00  0.00    +0.330 C 
ATOM      9  N   LIG    1        3.575   1.584  -0.135  0.00  0.00    -0.600 N 
ATOM     10  C   LIG    1        2.390   0.952  -0.025  0.00  0.00    +0.570 C 
ATOM     11  O   LIG    1        2.343  -0.263  -0.067  0.00  0.00    -0.520 OA
ATOM     12  C   LIG    1        4.836   0.833  -0.266  0.00  0.00    +0.310 C 
BRANCH  10  13
ATOM     13  C   LIG    1        1.151   1.732   0.146  0.00  0.00    +0.020 C 
ATOM     14  C   LIG    1       -0.009   1.099   0.072  0.00  0.00    -0.030 C 
ATOM     15  C   LIG    1       -1.326   1.813   0.219  0.00  0.00    +0.080 C 
ATOM     16  C   LIG    1       -1.094   3.175   0.885  0.00  0.00    +0.010 C 
ATOM     17  C   LIG    1        0.080   3.860   0.173  0.00  0.00    +0.230 C 
ATOM     18  O   LIG    1        1.252   3.065   0.371  0.00  0.00    -0.310 OA
ENDBRANCH  10  13
ENDBRANCH   2   5
BRANCH   1  23
ATOM     19  C   LIG    1        4.146  -1.839  -8.229  0.00  0.00    +0.390 C 
ATOM     20  N   LIG    1        4.081  -1.315  -6.862  0.00  0.00    -0.320 N 
ATOM     21  N   LIG    1        2.965  -1.332  -6.013  0.00  0.00    -0.020 NA
ATOM     22  N   LIG    1        3.298  -0.788  -4.895  0.00  0.00    -0.200 NA
ATOM     23  C   LIG    1        4.583  -0.396  -4.951  0.00  0.00    -0.030 A 
ATOM     24  C   LIG    1        5.082  -0.726  -6.179  0.00  0.00    +0.010 A 
BRANCH  24  25
ATOM     25  C   LIG    1        6.484  -0.478  -6.674  0.00  0.00    +0.550 C 
ATOM     26  F   LIG    1        7.290  -1.577  -6.361  0.00  0.00    -0.160 F 
ATOM     27  F   LIG    1        6.999   0.669  -6.061  0.00  0.00    -0.120 F 
ATOM     28  F   LIG    1        6.462  -0.296  -8.061  0.00  0.00    -0.170 F 
ENDBRANCH  24  25
ENDBRANCH   1  23
TORSDOF 4
