REMARK  Name = ZINCqH0000007fsL.0
REMARK                            x       y       z     vdW  Elec       q    Type
REMARK                         _______ _______ _______ _____ _____    ______ ____
ROOT
ATOM      1  C   LIG    1       -0.648  -4.950   0.807  0.00  0.00    +0.020 C 
ATOM      2  C   LIG    1        0.258  -5.121   2.028  0.00  0.00    +0.080 C 
ENDROOT
BRANCH   1   5
ATOM      3  N   LIG    1        0.095  -2.777  -0.112  0.00  0.00    -0.650 N 
ATOM      4  H   LIG    1       -0.264  -2.352   0.682  0.00  0.00    +0.420 HD
ATOM      5  C   LIG    1        0.060  -4.119  -0.232  0.00  0.00    +0.540 C 
ATOM      6  O   LIG    1        0.599  -4.658  -1.175  0.00  0.00    -0.500 OA
BRANCH   3  13
ATOM      7  C   LIG    1        1.164  -0.733  -0.848  0.00  0.00    +0.110 A 
ATOM      8  C   LIG    1        1.708   0.036  -1.863  0.00  0.00    -0.040 A 
ATOM      9  C   LIG    1        1.751  -0.454  -3.155  0.00  0.00    +0.060 A 
ATOM     10  C   LIG    1        1.243  -1.708  -3.441  0.00  0.00    -0.050 A 
ATOM     11  C   LIG    1        0.693  -2.481  -2.433  0.00  0.00    +0.070 A 
ATOM     12 CL   LIG    1        1.294  -2.314  -5.067  0.00  0.00    -0.060 Cl
ATOM     13  C   LIG    1        0.652  -1.997  -1.134  0.00  0.00    +0.130 A 
BRANCH   7  15
ATOM     14  C   LIG    1        1.668   1.049   0.644  0.00  0.00    +0.250 C 
ATOM     15  O   LIG    1        1.125  -0.254   0.424  0.00  0.00    -0.320 OA
ENDBRANCH   7  15
ENDBRANCH   3  13
ENDBRANCH   1   5
BRANCH   1  16
ATOM     16  S   LIG    1       -1.040  -6.576   0.115  0.00  0.00    +0.090 S 
BRANCH  16  17
ATOM     17  C   LIG    1       -1.969  -7.260   1.446  0.00  0.00    +0.150 A 
ATOM     18  N   LIG    1       -2.247  -6.673   2.587  0.00  0.00    -0.290 NA
ATOM     19  N   LIG    1       -2.943  -7.461   3.326  0.00  0.00    -0.280 NA
ATOM     20  C   LIG    1       -3.149  -8.589   2.707  0.00  0.00    +0.390 A 
ATOM     21  N   LIG    1       -2.541  -8.499   1.485  0.00  0.00    -0.460 N 
BRANCH  21  22
ATOM     22  C   LIG    1       -2.508  -9.522   0.437  0.00  0.00    +0.450 C 
BRANCH  22  23
ATOM     23  C   LIG    1       -1.241 -10.328   0.561  0.00  0.00    -0.060 A 
ATOM     24  C   LIG    1       -1.089 -11.445   1.296  0.00  0.00    -0.020 A 
ATOM     25  C   LIG    1        0.249 -11.869   1.123  0.00  0.00    -0.070 A 
ATOM     26  C   LIG    1        0.836 -10.982   0.300  0.00  0.00    +0.200 A 
ATOM     27  O   LIG    1       -0.071 -10.051  -0.037  0.00  0.00    -0.160 OA
ENDBRANCH  22  23
ENDBRANCH  21  22
ENDBRANCH  16  17
ENDBRANCH   1  16
TORSDOF 7
