REMARK  Name = ZINCrg00000SjSmS.0
REMARK                            x       y       z     vdW  Elec       q    Type
REMARK                         _______ _______ _______ _____ _____    ______ ____
ROOT
ATOM      1  N   LIG    1        1.118   2.063   0.003  0.00  0.00    -0.550 N 
ATOM      2  C   LIG    1        2.325   1.460  -0.012  0.00  0.00    +0.600 A 
ATOM      3  C   LIG    1        2.391   0.052  -0.020  0.00  0.00    -0.150 A 
ATOM      4  C   LIG    1        1.210  -0.682  -0.013  0.00  0.00    +0.350 A 
ATOM      5  N   LIG    1        0.002  -0.004   0.002  0.00  0.00    -0.510 N 
ATOM      6  C   LIG    1       -1.257  -0.753   0.010  0.00  0.00    +0.350 C 
ATOM      7  N   LIG    1        1.544  -1.974  -0.022  0.00  0.00    -0.500 NA
ATOM      8  C   LIG    1        2.853  -2.097  -0.035  0.00  0.00    +0.540 A 
ATOM      9  N   LIG    1        3.423  -0.870  -0.034  0.00  0.00    -0.400 N 
ATOM     10  O   LIG    1        3.346   2.124  -0.018  0.00  0.00    -0.500 OA
ATOM     11  C   LIG    1       -0.016   1.342   0.009  0.00  0.00    +0.710 A 
ATOM     12  O   LIG    1       -1.086   1.921   0.018  0.00  0.00    -0.530 OA
ENDROOT
BRANCH   8  13
ATOM     13  N   LIG    1        3.545  -3.301  -0.047  0.00  0.00    -0.320 N 
ATOM     14  N   LIG    1        4.937  -3.454  -0.061  0.00  0.00    -0.290 NA
ATOM     15  C   LIG    1        5.209  -4.733  -0.070  0.00  0.00    +0.120 A 
ATOM     16  C   LIG    1        4.001  -5.442  -0.063  0.00  0.00    -0.220 A 
ATOM     17  C   LIG    1        3.854  -6.941  -0.070  0.00  0.00    +0.140 C 
ATOM     18  C   LIG    1        6.588  -5.341  -0.087  0.00  0.00    +0.180 C 
ATOM     19  C   LIG    1        2.991  -4.543  -0.043  0.00  0.00    +0.130 A 
ATOM     20  C   LIG    1        1.518  -4.861  -0.023  0.00  0.00    +0.180 C 
ENDBRANCH   8  13
BRANCH   1  21
ATOM     21  C   LIG    1        1.044   3.526   0.011  0.00  0.00    +0.310 C 
BRANCH  21  23
ATOM     22  C   LIG    1        0.953   5.556   1.466  0.00  0.00    +0.030 C 
ATOM     23  C   LIG    1        1.031   4.028   1.456  0.00  0.00    +0.000 C 
ENDBRANCH  21  23
ENDBRANCH   1  21
BRANCH   9  24
ATOM     24  C   LIG    1        4.858  -0.575  -0.046  0.00  0.00    +0.350 C 
BRANCH  24  25
ATOM     25  C   LIG    1        5.344  -0.465  -1.493  0.00  0.00    +0.160 C 
BRANCH  25  26
ATOM     26  O   LIG    1        6.743  -0.177  -1.505  0.00  0.00    -0.380 OA
ATOM     27  C   LIG    1        7.300  -0.054  -2.815  0.00  0.00    +0.200 C 
ENDBRANCH  25  26
ENDBRANCH  24  25
ENDBRANCH   9  24
TORSDOF 6
