REMARK  Name = ZINCpe00000gzDlK.0
REMARK                            x       y       z     vdW  Elec       q    Type
REMARK                         _______ _______ _______ _____ _____    ______ ____
ROOT
ATOM      1  N   LIG    1       -2.448   1.070  -0.101  0.00  0.00    -0.310 N 
ATOM      2  N   LIG    1       -2.712  -0.131  -0.776  0.00  0.00    -0.050 NA
ATOM      3  N   LIG    1       -3.928  -0.475  -0.532  0.00  0.00    -0.200 NA
ATOM      4  C   LIG    1       -4.500   0.434   0.276  0.00  0.00    -0.100 A 
ATOM      5  C   LIG    1       -3.580   1.403   0.557  0.00  0.00    +0.140 A 
ATOM      6  C   LIG    1       -3.788   2.613   1.431  0.00  0.00    +0.200 C 
ENDROOT
BRANCH   4   7
ATOM      7  C   LIG    1       -5.886   0.389   0.779  0.00  0.00    +0.610 C 
ATOM      8  N   LIG    1       -6.716  -0.596   0.380  0.00  0.00    -0.600 N 
ATOM      9  C   LIG    1       -6.219  -1.704  -0.447  0.00  0.00    +0.280 C 
ATOM     10  C   LIG    1       -6.555  -3.027   0.261  0.00  0.00    +0.280 C 
ATOM     11  N   LIG    1       -7.975  -3.008   0.641  0.00  0.00    -0.620 N 
ATOM     12  C   LIG    1       -8.473  -1.897   1.464  0.00  0.00    +0.270 C 
ATOM     13  C   LIG    1       -8.805  -3.992   0.241  0.00  0.00    +0.510 C 
ATOM     14  O   LIG    1       -8.367  -4.945  -0.366  0.00  0.00    -0.540 OA
ATOM     15  C   LIG    1      -10.278  -3.906   0.550  0.00  0.00    +0.080 C 
ATOM     16  C   LIG    1       -8.136  -0.576   0.760  0.00  0.00    +0.290 C 
ATOM     17  O   LIG    1       -6.280   1.239   1.554  0.00  0.00    -0.530 OA
ENDBRANCH   4   7
BRANCH   1  22
ATOM     18  C   LIG    1        1.159   1.811  -0.154  0.00  0.00    +0.150 A 
ATOM     19  C   LIG    1        1.140   3.198  -0.113  0.00  0.00    -0.060 A 
ATOM     20  C   LIG    1       -0.064   3.874  -0.065  0.00  0.00    +0.080 A 
ATOM     21  C   LIG    1       -1.253   3.171  -0.056  0.00  0.00    -0.020 A 
ATOM     22  C   LIG    1       -1.241   1.783  -0.103  0.00  0.00    +0.160 A 
ATOM     23  C   LIG    1       -0.033   1.103  -0.145  0.00  0.00    +0.020 A 
BRANCH  18  25
ATOM     24  C   LIG    1        3.532   1.942  -0.207  0.00  0.00    +0.250 C 
ATOM     25  O   LIG    1        2.344   1.148  -0.202  0.00  0.00    -0.310 OA
ENDBRANCH  18  25
ENDBRANCH   1  22
TORSDOF 3
