REMARK  Name = ZINCb80000002I4t.0
REMARK                            x       y       z     vdW  Elec       q    Type
REMARK                         _______ _______ _______ _____ _____    ______ ____
ROOT
ATOM      1  C   LIG    1       -0.030   3.832   0.022  0.00  0.00    +0.130 A 
ATOM      2  C   LIG    1       -1.198   3.151   0.029  0.00  0.00    +0.040 A 
ATOM      3  C   LIG    1       -1.197   1.748   0.017  0.00  0.00    +0.090 A 
ATOM      4  C   LIG    1       -0.013   1.076   0.008  0.00  0.00    +0.050 A 
ATOM      5  C   LIG    1        1.191   1.803   0.000  0.00  0.00    +0.280 A 
ATOM      6  N   LIG    1        2.468   1.438  -0.014  0.00  0.00    -0.550 NA
ATOM      7  C   LIG    1        3.241   2.515  -0.016  0.00  0.00    +0.470 A 
ATOM      8  N   LIG    1        2.493   3.594  -0.003  0.00  0.00    -0.350 NA
ATOM      9  N   LIG    1        1.157   3.169   0.008  0.00  0.00    -0.280 N 
ENDROOT
BRANCH   1  10
ATOM     10  C   LIG    1       -0.044   5.339   0.030  0.00  0.00    +0.280 C 
BRANCH  10  11
ATOM     11  O   LIG    1       -1.395   5.803   0.045  0.00  0.00    -0.560 OA
ATOM     12  H   LIG    1       -1.480   6.766   0.051  0.00  0.00    +0.400 HD
ENDBRANCH  10  11
ENDBRANCH   1  10
TORSDOF 2
