REMARK  Name = ZINCrH000004qKpL.0
REMARK                            x       y       z     vdW  Elec       q    Type
REMARK                         _______ _______ _______ _____ _____    ______ ____
ROOT
ATOM      1  N   LIG    1       -3.220   5.022   5.850  0.00  0.00    -0.650 N 
ATOM      2  H   LIG    1       -2.700   5.120   6.663  0.00  0.00    +0.420 HD
ATOM      3  C   LIG    1       -4.527   5.353   5.841  0.00  0.00    +0.600 C 
ATOM      4  O   LIG    1       -5.202   5.136   4.854  0.00  0.00    -0.500 OA
ENDROOT
BRANCH   1  11
ATOM      5  C   LIG    1       -0.913   3.381   6.124  0.00  0.00    +0.100 C 
ATOM      6  C   LIG    1       -1.485   3.731   4.774  0.00  0.00    -0.080 A 
ATOM      7  C   LIG    1       -0.886   3.252   3.626  0.00  0.00    +0.010 A 
ATOM      8  C   LIG    1       -1.413   3.574   2.382  0.00  0.00    +0.100 A 
ATOM      9  C   LIG    1       -2.539   4.382   2.293  0.00  0.00    -0.020 A 
ATOM     10  C   LIG    1       -3.141   4.857   3.441  0.00  0.00    +0.050 A 
ATOM     11  C   LIG    1       -2.614   4.535   4.685  0.00  0.00    +0.120 A 
BRANCH   8  12
ATOM     12  N   LIG    1       -0.806   3.088   1.219  0.00  0.00    -0.490 N 
ATOM     13  C   LIG    1       -0.718   1.621   1.243  0.00  0.00    +0.160 C 
ATOM     14  C   LIG    1        0.004   1.138  -0.018  0.00  0.00    +0.220 C 
ATOM     15  O   LIG    1       -0.689   1.620  -1.172  0.00  0.00    -0.380 OA
ATOM     16  C   LIG    1       -0.793   3.045  -1.228  0.00  0.00    +0.220 C 
ATOM     17  C   LIG    1       -1.523   3.548   0.020  0.00  0.00    +0.160 C 
ENDBRANCH   8  12
ENDBRANCH   1  11
BRANCH   3  18
ATOM     18  C   LIG    1       -5.140   5.982   7.036  0.00  0.00    -0.020 A 
ATOM     19  N   LIG    1       -4.542   6.275   8.165  0.00  0.00    -0.330 NA
ATOM     20  O   LIG    1       -5.301   6.783   8.956  0.00  0.00    +0.130 OA
ATOM     21  C   LIG    1       -6.542   6.901   8.451  0.00  0.00    +0.020 A 
ATOM     22  C   LIG    1       -6.491   6.393   7.183  0.00  0.00    +0.020 A 
BRANCH  21  23
ATOM     23  C   LIG    1       -7.724   7.472   9.130  0.00  0.00    -0.030 A 
ATOM     24  C   LIG    1       -8.951   7.532   8.468  0.00  0.00    +0.040 A 
ATOM     25  C   LIG    1      -10.052   8.062   9.109  0.00  0.00    +0.010 A 
ATOM     26  C   LIG    1       -9.939   8.544  10.400  0.00  0.00    +0.030 A 
ATOM     27  C   LIG    1       -8.724   8.493  11.060  0.00  0.00    +0.010 A 
ATOM     28  C   LIG    1       -7.617   7.960  10.433  0.00  0.00    +0.040 A 
ENDBRANCH  21  23
ENDBRANCH   3  18
TORSDOF 4
