REMARK  Name = ZINCrD0000073P5C.0
REMARK                            x       y       z     vdW  Elec       q    Type
REMARK                         _______ _______ _______ _____ _____    ______ ____
ROOT
ATOM      1  C   LIG    1       -1.441  -0.755   0.214  0.00  0.00    +0.550 C 
ATOM      2  O   LIG    1       -2.605  -0.448   0.035  0.00  0.00    -0.500 OA
ENDROOT
BRANCH   1   6
ATOM      3  C   LIG    1        1.441   1.303   0.793  0.00  0.00    +0.240 A 
ATOM      4  N   LIG    1        0.490   2.210   0.679  0.00  0.00    -0.490 NA
ATOM      5  C   LIG    1       -0.679   1.616   0.455  0.00  0.00    +0.320 A 
ATOM      6  C   LIG    1       -0.467   0.253   0.425  0.00  0.00    -0.090 A 
ATOM      7  N   LIG    1        0.895   0.067   0.642  0.00  0.00    -0.370 N 
BRANCH   7   8
ATOM      8  C   LIG    1        1.573  -1.158   0.696  0.00  0.00    +0.090 A 
ATOM      9  C   LIG    1        1.298  -2.061   1.715  0.00  0.00    +0.060 A 
ATOM     10  C   LIG    1        1.965  -3.270   1.762  0.00  0.00    +0.050 A 
ATOM     11  C   LIG    1        2.913  -3.577   0.803  0.00  0.00    +0.030 A 
ATOM     12  C   LIG    1        3.192  -2.678  -0.210  0.00  0.00    +0.020 A 
ATOM     13  C   LIG    1        2.525  -1.469  -0.266  0.00  0.00    +0.030 A 
ENDBRANCH   7   8
BRANCH   3  15
ATOM     14  C   LIG    1        3.098   3.448   1.173  0.00  0.00    +0.150 C 
ATOM     15  S   LIG    1        3.144   1.640   1.094  0.00  0.00    +0.010 S 
ENDBRANCH   3  15
ENDBRANCH   1   6
BRANCH   1  16
ATOM     16  O   LIG    1       -1.077  -2.054   0.212  0.00  0.00    -0.320 OA
BRANCH  16  17
ATOM     17  C   LIG    1       -2.111  -3.017  -0.006  0.00  0.00    +0.180 C 
ATOM     18  C   LIG    1       -2.243  -3.292  -1.505  0.00  0.00    +0.060 C 
BRANCH  17  19
ATOM     19  C   LIG    1       -1.765  -4.296   0.711  0.00  0.00    +0.520 C 
ATOM     20  N   LIG    1       -2.694  -5.262   0.852  0.00  0.00    -0.610 N 
ATOM     21  C   LIG    1       -4.019  -5.123   0.231  0.00  0.00    +0.270 C 
ATOM     22  C   LIG    1       -5.092  -5.318   1.300  0.00  0.00    +0.020 C 
ATOM     23  C   LIG    1       -4.867  -6.656   2.008  0.00  0.00    -0.020 C 
ATOM     24  C   LIG    1       -3.498  -6.650   2.691  0.00  0.00    +0.020 C 
ATOM     25  C   LIG    1       -5.960  -6.868   3.058  0.00  0.00    +0.020 C 
ATOM     26  C   LIG    1       -2.404  -6.472   1.633  0.00  0.00    +0.270 C 
ATOM     27  O   LIG    1       -0.651  -4.457   1.162  0.00  0.00    -0.510 OA
ENDBRANCH  17  19
ENDBRANCH  16  17
ENDBRANCH   1  16
TORSDOF 6
