REMARK  Name = ZINCrH000004jULF.0
REMARK                            x       y       z     vdW  Elec       q    Type
REMARK                         _______ _______ _______ _____ _____    ______ ____
ROOT
ATOM      1  C   LIG    1        1.030   3.720   5.562  0.00  0.00    -0.270 A 
ATOM      2  C   LIG    1        1.023   2.593   6.360  0.00  0.00    +0.270 A 
ATOM      3  N   LIG    1        1.954   2.771   7.315  0.00  0.00    -0.310 N 
ATOM      4  N   LIG    1        2.550   4.023   7.125  0.00  0.00    -0.280 NA
ATOM      5  C   LIG    1        2.008   4.596   6.085  0.00  0.00    +0.150 A 
ENDROOT
BRANCH   3   6
ATOM      6  C   LIG    1        2.270   1.859   8.331  0.00  0.00    +0.150 A 
ATOM      7  C   LIG    1        1.597   0.648   8.412  0.00  0.00    -0.010 A 
ATOM      8  C   LIG    1        1.915  -0.251   9.412  0.00  0.00    +0.050 A 
ATOM      9  C   LIG    1        2.895   0.059  10.337  0.00  0.00    +0.010 A 
ATOM     10  C   LIG    1        3.562   1.268  10.263  0.00  0.00    +0.040 A 
ATOM     11  C   LIG    1        3.253   2.169   9.262  0.00  0.00    +0.030 A 
ENDBRANCH   3   6
BRANCH   1  14
ATOM     12  C   LIG    1       -1.736   3.191   5.686  0.00  0.00    +0.280 C 
ATOM     13  N   LIG    1       -1.155   3.758   4.467  0.00  0.00    -0.610 N 
ATOM     14  C   LIG    1        0.175   3.965   4.387  0.00  0.00    +0.600 C 
ATOM     15  O   LIG    1        0.668   4.354   3.346  0.00  0.00    -0.520 OA
BRANCH  13  16
ATOM     16  C   LIG    1       -2.019   4.100   3.334  0.00  0.00    +0.300 C 
BRANCH  16  17
ATOM     17  C   LIG    1       -2.144   2.890   2.405  0.00  0.00    -0.010 C 
ATOM     18  C   LIG    1       -2.867   1.758   3.138  0.00  0.00    +0.020 C 
ATOM     19  C   LIG    1       -2.992   0.548   2.209  0.00  0.00    +0.000 C 
ATOM     20  C   LIG    1       -3.791   0.941   0.965  0.00  0.00    +0.010 C 
ATOM     21  C   LIG    1       -3.069   2.074   0.232  0.00  0.00    -0.010 C 
ATOM     22  C   LIG    1       -2.943   3.283   1.161  0.00  0.00    +0.170 C 
BRANCH  22  23
ATOM     23  O   LIG    1       -4.246   3.723   1.550  0.00  0.00    -0.560 OA
ATOM     24  H   LIG    1       -4.809   3.988   0.810  0.00  0.00    +0.380 HD
ENDBRANCH  22  23
ENDBRANCH  16  17
ENDBRANCH  13  16
ENDBRANCH   1  14
BRANCH   5  25
ATOM     25  C   LIG    1        2.363   5.955   5.538  0.00  0.00    +0.010 C 
ATOM     26  C   LIG    1        3.038   5.795   4.174  0.00  0.00    +0.060 C 
ATOM     27  C   LIG    1        3.320   6.659   6.502  0.00  0.00    +0.040 C 
ATOM     28  C   LIG    1        1.090   6.790   5.382  0.00  0.00    +0.040 C 
ENDBRANCH   5  25
TORSDOF 6
