REMARK  Name = ZINCqH0000000aiz.0
REMARK                            x       y       z     vdW  Elec       q    Type
REMARK                         _______ _______ _______ _____ _____    ______ ____
ROOT
ATOM      1  C   LIG    1        2.550   5.650   0.012  0.00  0.00    +0.470 C 
ENDROOT
BRANCH   1  14
ATOM      2  C   LIG    1        0.087   4.274   0.027  0.00  0.00    +0.030 C 
ATOM      3  C   LIG    1        1.214   3.560   0.011  0.00  0.00    +0.130 A 
ATOM      4  C   LIG    1        1.182   2.079   0.002  0.00  0.00    -0.100 A 
ATOM      5  C   LIG    1       -0.017   1.378   0.010  0.00  0.00    +0.080 A 
ATOM      6  C   LIG    1        0.002  -0.004   0.002  0.00  0.00    -0.010 A 
ATOM      7  C   LIG    1        1.206  -0.686  -0.014  0.00  0.00    +0.060 A 
ATOM      8  C   LIG    1        2.405   0.004  -0.021  0.00  0.00    -0.020 A 
ATOM      9  C   LIG    1        2.403   1.389  -0.013  0.00  0.00    +0.170 A 
ATOM     10  N   LIG    1        3.593   2.114  -0.021  0.00  0.00    -0.650 N 
ATOM     11  H   LIG    1        4.438   1.638  -0.031  0.00  0.00    +0.430 HD
ATOM     12  C   LIG    1        3.595   3.456  -0.012  0.00  0.00    +0.710 A 
ATOM     13  O   LIG    1        4.664   4.036  -0.019  0.00  0.00    -0.570 OA
ATOM     14  N   LIG    1        2.468   4.187   0.003  0.00  0.00    -0.550 N 
ENDBRANCH   1  14
BRANCH   1  15
ATOM     15  C   LIG    1        2.565   6.161  -1.405  0.00  0.00    +0.120 A 
ATOM     16  N   LIG    1        1.519   6.482  -2.122  0.00  0.00    -0.220 NA
ATOM     17  N   LIG    1        1.885   6.882  -3.290  0.00  0.00    -0.270 NA
ATOM     18  C   LIG    1        3.204   6.836  -3.379  0.00  0.00    +0.210 A 
ATOM     19  C   LIG    1        4.117   7.152  -4.404  0.00  0.00    +0.100 A 
ATOM     20  C   LIG    1        5.449   6.991  -4.179  0.00  0.00    +0.100 A 
ATOM     21  C   LIG    1        5.893   6.515  -2.934  0.00  0.00    -0.210 A 
ATOM     22  C   LIG    1        5.007   6.216  -1.962  0.00  0.00    +0.350 A 
ATOM     23  N   LIG    1        3.669   6.377  -2.171  0.00  0.00    -0.380 N 
BRANCH  21  24
ATOM     24  C   LIG    1        7.369   6.337  -2.683  0.00  0.00    +0.530 C 
ATOM     25  F   LIG    1        7.622   6.419  -1.310  0.00  0.00    -0.170 F 
ATOM     26  F   LIG    1        8.079   7.341  -3.349  0.00  0.00    -0.170 F 
ATOM     27  F   LIG    1        7.775   5.085  -3.158  0.00  0.00    -0.170 F 
ENDBRANCH  21  24
ENDBRANCH   1  15
TORSDOF 3
