REMARK  Name = ZINCnE000001PkPf.0
REMARK                            x       y       z     vdW  Elec       q    Type
REMARK                         _______ _______ _______ _____ _____    ______ ____
ROOT
ATOM      1  C   LIG    1        1.167   3.174   0.008  0.00  0.00    -0.070 A 
ATOM      2  C   LIG    1        1.177   1.780   0.000  0.00  0.00    +0.040 A 
ATOM      3  C   LIG    1       -0.013   1.076   0.008  0.00  0.00    +0.000 A 
ATOM      4  C   LIG    1       -1.218   1.746   0.017  0.00  0.00    +0.070 A 
ATOM      5  C   LIG    1       -1.243   3.145   0.031  0.00  0.00    -0.160 A 
ATOM      6  C   LIG    1       -0.043   3.860   0.024  0.00  0.00    +0.080 A 
ENDROOT
BRANCH   1  11
ATOM      7  C   LIG    1        6.132   6.094  -0.022  0.00  0.00    +0.100 C 
ATOM      8  C   LIG    1        4.833   5.330  -0.014  0.00  0.00    -0.090 A 
ATOM      9  C   LIG    1        3.840   5.650  -0.922  0.00  0.00    +0.000 A 
ATOM     10  C   LIG    1        2.648   4.953  -0.919  0.00  0.00    +0.030 A 
ATOM     11  C   LIG    1        2.446   3.926   0.000  0.00  0.00    -0.050 A 
ATOM     12  C   LIG    1        3.449   3.611   0.916  0.00  0.00    -0.080 A 
ATOM     13  C   LIG    1        4.638   4.311   0.901  0.00  0.00    +0.030 A 
BRANCH  12  14
ATOM     14  C   LIG    1        3.236   2.505   1.917  0.00  0.00    +0.240 C 
BRANCH  14  15
ATOM     15  O   LIG    1        4.398   2.376   2.738  0.00  0.00    -0.570 OA
ATOM     16  H   LIG    1        4.332   1.681   3.407  0.00  0.00    +0.380 HD
ENDBRANCH  14  15
ENDBRANCH  12  14
ENDBRANCH   1  11
BRANCH   5  17
ATOM     17  C   LIG    1       -2.528   3.861   0.047  0.00  0.00    +0.390 C 
ATOM     18  O   LIG    1       -2.547   5.074   0.054  0.00  0.00    -0.450 OA
BRANCH  17  19
ATOM     19  C   LIG    1       -3.822   3.087   0.055  0.00  0.00    +0.050 C 
BRANCH  19  20
ATOM     20  C   LIG    1       -5.000   4.064   0.071  0.00  0.00    -0.080 C 
ATOM     21  C   LIG    1       -5.016   4.866  -1.232  0.00  0.00    +0.020 C 
BRANCH  20  22
ATOM     22  C   LIG    1       -6.288   3.293   0.203  0.00  0.00    +0.500 C 
ATOM     23  O   LIG    1       -6.438   2.247  -0.405  0.00  0.00    -0.700 OA
ATOM     24  O   LIG    1       -7.182   3.717   0.916  0.00  0.00    -0.700 OA
ENDBRANCH  20  22
ENDBRANCH  19  20
ENDBRANCH  17  19
ENDBRANCH   5  17
TORSDOF 7
