REMARK  Name = ZINCvU00000007eH.0
REMARK                            x       y       z     vdW  Elec       q    Type
REMARK                         _______ _______ _______ _____ _____    ______ ____
ROOT
ATOM      1  C   LIG    1        1.706   3.126   0.868  0.00  0.00    +0.290 A 
ATOM      2  N   LIG    1        1.410   3.212   2.132  0.00  0.00    -0.480 NA
ATOM      3  C   LIG    1        1.749   4.441   2.598  0.00  0.00    +0.050 A 
ATOM      4  C   LIG    1        1.657   5.057   3.849  0.00  0.00    +0.070 A 
ATOM      5  C   LIG    1        2.089   6.343   4.008  0.00  0.00    +0.000 A 
ATOM      6  C   LIG    1        2.619   7.049   2.938  0.00  0.00    +0.030 A 
ATOM      7  C   LIG    1        2.719   6.462   1.694  0.00  0.00    +0.010 A 
ATOM      8  C   LIG    1        2.286   5.156   1.514  0.00  0.00    +0.050 A 
ATOM      9  N   LIG    1        2.245   4.297   0.434  0.00  0.00    -0.480 N 
ENDROOT
BRANCH   1  12
ATOM     10  N   LIG    1        1.223  -0.452   0.341  0.00  0.00    -0.560 N 
ATOM     11  C   LIG    1        2.136   0.660   0.634  0.00  0.00    +0.300 C 
ATOM     12  C   LIG    1        1.478   1.909   0.009  0.00  0.00    +0.090 C 
ATOM     13  C   LIG    1       -0.016   1.509   0.002  0.00  0.00    +0.090 C 
ATOM     14  C   LIG    1        0.006  -0.004  -0.011  0.00  0.00    +0.520 C 
ATOM     15  O   LIG    1       -0.938  -0.710  -0.298  0.00  0.00    -0.500 OA
BRANCH  10  20
ATOM     16  C   LIG    1        2.650  -5.934   0.656  0.00  0.00    +0.090 C 
ATOM     17  C   LIG    1        2.271  -4.477   0.572  0.00  0.00    -0.110 A 
ATOM     18  C   LIG    1        0.961  -4.119   0.314  0.00  0.00    +0.040 A 
ATOM     19  C   LIG    1        0.610  -2.785   0.237  0.00  0.00    -0.010 A 
ATOM     20  C   LIG    1        1.575  -1.804   0.419  0.00  0.00    +0.160 A 
ATOM     21  C   LIG    1        2.892  -2.167   0.671  0.00  0.00    -0.030 A 
ATOM     22  C   LIG    1        3.235  -3.502   0.753  0.00  0.00    -0.060 A 
ATOM     23  C   LIG    1        4.662  -3.897   1.033  0.00  0.00    +0.090 C 
ENDBRANCH  10  20
ENDBRANCH   1  12
BRANCH   9  24
ATOM     24  C   LIG    1        2.699   4.592  -0.928  0.00  0.00    +0.310 C 
BRANCH  24  25
ATOM     25  C   LIG    1        1.539   5.177  -1.736  0.00  0.00    +0.060 C 
BRANCH  25  26
ATOM     26  C   LIG    1        2.006   5.480  -3.137  0.00  0.00    -0.090 A 
ATOM     27  C   LIG    1        2.531   6.723  -3.437  0.00  0.00    +0.010 A 
ATOM     28  C   LIG    1        2.962   7.000  -4.720  0.00  0.00    +0.000 A 
ATOM     29  C   LIG    1        2.861   6.037  -5.706  0.00  0.00    +0.000 A 
ATOM     30  C   LIG    1        2.331   4.795  -5.408  0.00  0.00    +0.000 A 
ATOM     31  C   LIG    1        1.903   4.517  -4.123  0.00  0.00    +0.010 A 
ENDBRANCH  25  26
ENDBRANCH  24  25
ENDBRANCH   9  24
TORSDOF 5
