REMARK  Name = ZINCnE000001QOWY.1
REMARK                            x       y       z     vdW  Elec       q    Type
REMARK                         _______ _______ _______ _____ _____    ______ ____
ROOT
ATOM      1  C   LIG    1       -0.018   1.503   0.010  0.00  0.00    +0.140 C 
ATOM      2  C   LIG    1        0.002  -0.004   0.002  0.00  0.00    +0.190 A 
ATOM      3  C   LIG    1       -0.004  -0.730  -1.136  0.00  0.00    -0.330 A 
ATOM      4  S   LIG    1        0.029  -2.435  -0.692  0.00  0.00    +0.050 S 
ATOM      5  C   LIG    1        0.038  -2.014   0.965  0.00  0.00    +0.350 A 
ATOM      6  N   LIG    1        0.022  -0.723   1.102  0.00  0.00    -0.560 NA
ENDROOT
BRANCH   3   7
ATOM      7  C   LIG    1       -0.031  -0.192  -2.510  0.00  0.00    +0.260 A 
ATOM      8  C   LIG    1       -0.034  -1.067  -3.598  0.00  0.00    -0.060 A 
ATOM      9  C   LIG    1       -0.059  -0.546  -4.879  0.00  0.00    +0.070 A 
ATOM     10  C   LIG    1       -0.080   0.833  -5.034  0.00  0.00    -0.100 A 
ATOM     11  C   LIG    1       -0.076   1.643  -3.914  0.00  0.00    +0.260 A 
ATOM     12  N   LIG    1       -0.057   1.123  -2.703  0.00  0.00    -0.490 NA
ENDBRANCH   3   7
BRANCH   5  13
ATOM     13  N   LIG    1        0.060  -2.922   2.014  0.00  0.00    -0.680 NA
ATOM     14  C   LIG    1        0.066  -2.481   3.287  0.00  0.00    +0.460 C 
ATOM     15  O   LIG    1        0.051  -1.290   3.517  0.00  0.00    -0.540 OA
BRANCH  14  16
ATOM     16  C   LIG    1        0.090  -3.468   4.426  0.00  0.00    +0.170 C 
ATOM     17  C   LIG    1        1.408  -4.244   4.401  0.00  0.00    +0.030 C 
BRANCH  16  18
ATOM     18  O   LIG    1       -0.026  -2.767   5.666  0.00  0.00    -0.350 OA
BRANCH  18  19
ATOM     19  C   LIG    1       -0.671  -3.515   6.699  0.00  0.00    +0.200 C 
BRANCH  19  20
ATOM     20  C   LIG    1       -0.740  -2.671   7.973  0.00  0.00    +0.460 C 
ATOM     21  F   LIG    1        0.556  -2.336   8.381  0.00  0.00    -0.180 F 
ATOM     22  F   LIG    1       -1.371  -3.403   8.984  0.00  0.00    -0.180 F 
ATOM     23  F   LIG    1       -1.466  -1.502   7.720  0.00  0.00    -0.170 F 
ENDBRANCH  19  20
ENDBRANCH  18  19
ENDBRANCH  16  18
ENDBRANCH  14  16
ENDBRANCH   5  13
TORSDOF 6
