REMARK  Name = ZINCrD00000cdM1R.0
REMARK                            x       y       z     vdW  Elec       q    Type
REMARK                         _______ _______ _______ _____ _____    ______ ____
ROOT
ATOM      1  N   LIG    1        0.081  -2.852  -0.050  0.00  0.00    -0.720 N 
ATOM      2  H   LIG    1       -0.762  -2.373  -0.039  0.00  0.00    +0.400 HD
ATOM      3  C   LIG    1        1.244  -2.171  -0.070  0.00  0.00    +0.570 C 
ATOM      4  O   LIG    1        2.301  -2.772  -0.084  0.00  0.00    -0.530 OA
ENDROOT
BRANCH   1  16
ATOM      5  C   LIG    1       -6.055  -3.624  -1.378  0.00  0.00    +0.090 C 
ATOM      6  C   LIG    1       -4.865  -3.877  -2.267  0.00  0.00    +0.510 C 
ATOM      7  N   LIG    1       -3.787  -4.523  -1.782  0.00  0.00    -0.610 N 
ATOM      8  C   LIG    1       -3.705  -4.880  -0.359  0.00  0.00    +0.270 C 
ATOM      9  C   LIG    1       -2.394  -4.332   0.213  0.00  0.00    +0.020 C 
ATOM     10  C   LIG    1       -1.222  -4.839  -0.630  0.00  0.00    -0.060 C 
ATOM     11  C   LIG    1       -1.371  -4.337  -2.068  0.00  0.00    +0.030 C 
ATOM     12  C   LIG    1       -1.212  -6.369  -0.622  0.00  0.00    +0.030 C 
ATOM     13  C   LIG    1       -1.060  -6.871   0.815  0.00  0.00    +0.020 C 
ATOM     14  C   LIG    1        0.253  -6.349   1.402  0.00  0.00    +0.020 C 
ATOM     15  C   LIG    1        0.242  -4.819   1.395  0.00  0.00    +0.010 C 
ATOM     16  C   LIG    1        0.091  -4.317  -0.043  0.00  0.00    +0.250 C 
ATOM     17  C   LIG    1       -2.670  -4.886  -2.665  0.00  0.00    +0.270 C 
ATOM     18  O   LIG    1       -4.877  -3.498  -3.419  0.00  0.00    -0.550 OA
ENDBRANCH   1  16
BRANCH   3  19
ATOM     19  C   LIG    1        1.234  -0.695  -0.078  0.00  0.00    -0.140 A 
ATOM     20  C   LIG    1        0.024   0.006  -0.063  0.00  0.00    +0.090 A 
ATOM     21  C   LIG    1        0.009   1.377  -0.069  0.00  0.00    +0.020 A 
ATOM     22  C   LIG    1        1.206   2.113  -0.090  0.00  0.00    +0.160 A 
ATOM     23  N   LIG    1        1.356   3.484  -0.098  0.00  0.00    -0.640 N 
ATOM     24  H   LIG    1        0.580   4.066  -0.090  0.00  0.00    +0.420 HD
ATOM     25  C   LIG    1        2.590   3.996  -0.119  0.00  0.00    +0.520 A 
ATOM     26  S   LIG    1        3.696   2.613  -0.129  0.00  0.00    +0.020 S 
ATOM     27  O   LIG    1        2.892   5.175  -0.129  0.00  0.00    -0.450 OA
ATOM     28  C   LIG    1        2.409   1.400  -0.105  0.00  0.00    -0.160 A 
ATOM     29  C   LIG    1        2.433   0.021  -0.099  0.00  0.00    +0.170 A 
ENDBRANCH   3  19
TORSDOF 2
