REMARK  Name = ZINCtj00001txqWb.1
REMARK                            x       y       z     vdW  Elec       q    Type
REMARK                         _______ _______ _______ _____ _____    ______ ____
ROOT
ATOM      1  C   LIG    1        3.770   2.406  -2.540  0.00  0.00    +0.250 C 
ATOM      2  C   LIG    1        2.703   2.921  -3.509  0.00  0.00    +0.060 C 
ENDROOT
BRANCH   1   3
ATOM      3  C   LIG    1        4.989   1.979  -3.316  0.00  0.00    +0.520 C 
ATOM      4  N   LIG    1        5.648   2.872  -4.080  0.00  0.00    -0.750 N 
ATOM      5  H   LIG    1        5.337   3.790  -4.131  0.00  0.00    +0.400 HD
ATOM      6  O   LIG    1        5.378   0.832  -3.252  0.00  0.00    -0.500 OA
BRANCH   4   7
ATOM      7  C   LIG    1        6.833   2.458  -4.835  0.00  0.00    +0.320 C 
BRANCH   7   8
ATOM      8  C   LIG    1        7.446   3.674  -5.532  0.00  0.00    +0.310 C 
BRANCH   8   9
ATOM      9  C   LIG    1        7.944   4.648  -4.496  0.00  0.00    -0.110 A 
ATOM     10  C   LIG    1        9.222   4.788  -4.098  0.00  0.00    +0.040 A 
ATOM     11  C   LIG    1        9.236   5.807  -3.118  0.00  0.00    -0.050 A 
ATOM     12  C   LIG    1        7.967   6.230  -2.977  0.00  0.00    +0.230 A 
ATOM     13  O   LIG    1        7.190   5.528  -3.817  0.00  0.00    -0.180 OA
ENDBRANCH   8   9
BRANCH   8  14
ATOM     14  N   LIG    1        6.426   4.325  -6.366  0.00  0.00    -0.390 N 
ATOM     15  C   LIG    1        5.914   3.365  -7.352  0.00  0.00    +0.330 C 
ATOM     16  C   LIG    1        7.024   5.472  -7.063  0.00  0.00    +0.330 C 
ATOM     17  H   LIG    1        5.668   4.645  -5.782  0.00  0.00    +0.420 HD
ENDBRANCH   8  14
ENDBRANCH   7   8
ENDBRANCH   4   7
ENDBRANCH   1   3
BRANCH   1  18
ATOM     18  N   LIG    1        3.240   1.261  -1.794  0.00  0.00    -1.100 NA
ATOM     19  H   LIG    1        3.289   0.370  -2.174  0.00  0.00    +0.430 HD
BRANCH  18  20
ATOM     20  S   LIG    1        2.560   1.489  -0.301  0.00  0.00    +2.700 S 
ATOM     21  O   LIG    1        2.119   0.211   0.137  0.00  0.00    -0.940 OA
ATOM     22  O   LIG    1        3.470   2.292   0.436  0.00  0.00    -0.950 OA
BRANCH  20  26
ATOM     23  C   LIG    1       -1.166   3.994  -0.896  0.00  0.00    +0.210 A 
ATOM     24  C   LIG    1       -1.243   2.608  -0.953  0.00  0.00    -0.030 A 
ATOM     25  C   LIG    1       -0.105   1.847  -0.766  0.00  0.00    +0.160 A 
ATOM     26  C   LIG    1        1.110   2.463  -0.532  0.00  0.00    -0.700 A 
ATOM     27  C   LIG    1        1.190   3.843  -0.479  0.00  0.00    +0.140 A 
ATOM     28  C   LIG    1        0.056   4.610  -0.660  0.00  0.00    +0.010 A 
BRANCH  23  31
ATOM     29  C   LIG    1       -3.449   6.853  -1.779  0.00  0.00    +0.120 C 
ATOM     30  C   LIG    1       -2.231   5.971  -1.681  0.00  0.00    +0.520 C 
ATOM     31  N   LIG    1       -2.317   4.768  -1.080  0.00  0.00    -0.680 N 
ATOM     32  H   LIG    1       -3.177   4.438  -0.776  0.00  0.00    +0.420 HD
ATOM     33  O   LIG    1       -1.173   6.345  -2.142  0.00  0.00    -0.520 OA
ENDBRANCH  23  31
ENDBRANCH  20  26
ENDBRANCH  18  20
ENDBRANCH   1  18
TORSDOF 9
