REMARK  Name = ZINCqH0000009Bjn.0
REMARK                            x       y       z     vdW  Elec       q    Type
REMARK                         _______ _______ _______ _____ _____    ______ ____
ROOT
ATOM      1  C   LIG    1       -2.384  -0.845   0.021  0.00  0.00    +0.360 C 
ENDROOT
BRANCH   1   2
ATOM      2  N   LIG    1       -0.931  -1.033   0.005  0.00  0.00    -0.530 N 
ATOM      3  C   LIG    1       -0.304  -2.239  -0.007  0.00  0.00    +0.580 A 
ATOM      4  C   LIG    1        1.143  -1.997  -0.020  0.00  0.00    -0.160 A 
ATOM      5  C   LIG    1        2.324  -2.720  -0.036  0.00  0.00    +0.130 A 
ATOM      6  C   LIG    1        3.545  -2.047  -0.043  0.00  0.00    +0.010 A 
ATOM      7  C   LIG    1        3.648  -0.682  -0.036  0.00  0.00    +0.080 A 
ATOM      8  C   LIG    1        2.473   0.089  -0.021  0.00  0.00    -0.030 A 
ATOM      9  C   LIG    1        2.412   1.492  -0.013  0.00  0.00    +0.030 A 
ATOM     10  C   LIG    1        1.181   2.092   0.002  0.00  0.00    +0.040 A 
ATOM     11  C   LIG    1       -0.017   1.378   0.010  0.00  0.00    +0.020 A 
ATOM     12  C   LIG    1        1.260  -0.599  -0.013  0.00  0.00    -0.100 A 
ATOM     13  O   LIG    1       -0.848  -3.328  -0.008  0.00  0.00    -0.490 OA
ATOM     14  C   LIG    1        0.002  -0.004   0.002  0.00  0.00    +0.150 A 
ENDBRANCH   1   2
BRANCH   1  25
ATOM     15  C   LIG    1       -4.585  -1.800  -3.740  0.00  0.00    +0.040 C 
ATOM     16  C   LIG    1       -4.827  -0.510  -2.954  0.00  0.00    +0.230 C 
ATOM     17  C   LIG    1       -6.330  -0.323  -2.691  0.00  0.00    +0.100 C 
ATOM     18  C   LIG    1       -6.455  -0.313  -1.184  0.00  0.00    -0.130 A 
ATOM     19  C   LIG    1       -7.560  -0.172  -0.367  0.00  0.00    +0.060 A 
ATOM     20  C   LIG    1       -7.415  -0.196   1.008  0.00  0.00    -0.010 A 
ATOM     21  C   LIG    1       -6.160  -0.360   1.564  0.00  0.00    +0.050 A 
ATOM     22  C   LIG    1       -5.054  -0.501   0.753  0.00  0.00    -0.040 A 
ATOM     23  C   LIG    1       -5.192  -0.478  -0.636  0.00  0.00    +0.140 A 
ATOM     24  N   LIG    1       -4.213  -0.601  -1.627  0.00  0.00    -0.550 N 
ATOM     25  C   LIG    1       -2.896  -0.773  -1.394  0.00  0.00    +0.510 C 
ATOM     26  O   LIG    1       -2.124  -0.869  -2.325  0.00  0.00    -0.500 OA
ENDBRANCH   1  25
TORSDOF 2
