REMARK  Name = ZINC9p0000006kvH.0
REMARK                            x       y       z     vdW  Elec       q    Type
REMARK                         _______ _______ _______ _____ _____    ______ ____
ROOT
ATOM      1  C   LIG    1       -2.423   0.126  -0.017  0.00  0.00    +0.030 C 
ATOM      2  C   LIG    1       -2.150   0.967   1.232  0.00  0.00    -0.070 C 
ATOM      3  C   LIG    1       -3.057   2.217   1.235  0.00  0.00    +0.050 C 
ATOM      4  C   LIG    1       -2.161   3.334   1.825  0.00  0.00    +0.050 C 
ATOM      5  C   LIG    1       -0.774   3.019   1.212  0.00  0.00    +0.050 C 
ATOM      6  C   LIG    1       -2.399   0.134   2.491  0.00  0.00    +0.060 C 
ATOM      7  C   LIG    1       -0.699   1.479   1.216  0.00  0.00    +0.060 C 
ATOM      8  C   LIG    1        0.041   0.993   2.464  0.00  0.00    +0.100 C 
ENDROOT
BRANCH   7   9
ATOM      9  N   LIG    1       -0.012   1.005   0.008  0.00  0.00    -0.630 N 
ATOM     10  H   LIG    1       -0.500   1.339  -0.810  0.00  0.00    +0.430 HD
ATOM     11  H   LIG    1        0.935   1.354   0.000  0.00  0.00    +0.430 HD
ATOM     12  H   LIG    1        0.002  -0.004   0.002  0.00  0.00    +0.430 HD
ENDBRANCH   7   9
TORSDOF 1
