REMARK  Name = ZINCrD000000CuzD.0
REMARK                            x       y       z     vdW  Elec       q    Type
REMARK                         _______ _______ _______ _____ _____    ______ ____
ROOT
ATOM      1  O   LIG    1        3.948  -1.984   2.098  0.00  0.00    -0.490 OA
ATOM      2  C   LIG    1        4.324  -2.741   1.228  0.00  0.00    +0.520 C 
ATOM      3  N   LIG    1        3.486  -3.679   0.744  0.00  0.00    -0.590 N 
ATOM      4  C   LIG    1        4.011  -4.667  -0.219  0.00  0.00    +0.250 C 
ATOM      5  C   LIG    1        3.497  -6.089   0.069  0.00  0.00    +0.020 C 
ATOM      6  C   LIG    1        3.487  -6.345   1.556  0.00  0.00    +0.010 C 
ATOM      7  C   LIG    1        2.122  -5.972   2.125  0.00  0.00    +0.000 C 
ATOM      8  C   LIG    1        1.975  -4.548   2.462  0.00  0.00    +0.020 C 
ATOM      9  C   LIG    1        2.111  -3.677   1.189  0.00  0.00    +0.250 C 
ENDROOT
BRANCH   2  10
ATOM     10  C   LIG    1        5.727  -2.632   0.689  0.00  0.00    +0.140 C 
ATOM     11  C   LIG    1        6.580  -3.787   1.231  0.00  0.00    +0.250 C 
ATOM     12  O   LIG    1        7.907  -3.646   0.710  0.00  0.00    -0.300 OA
ATOM     13  C   LIG    1        8.458  -2.403   0.768  0.00  0.00    +0.040 A 
ATOM     14  C   LIG    1        9.829  -2.259   0.622  0.00  0.00    +0.030 A 
ATOM     15  C   LIG    1       10.403  -1.003   0.675  0.00  0.00    +0.020 A 
ATOM     16  C   LIG    1        9.613   0.113   0.873  0.00  0.00    +0.020 A 
ATOM     17  C   LIG    1        8.245  -0.024   1.020  0.00  0.00    +0.030 A 
ATOM     18  C   LIG    1        7.663  -1.281   0.969  0.00  0.00    +0.050 A 
ATOM     19  O   LIG    1        6.315  -1.400   1.119  0.00  0.00    -0.280 OA
ENDBRANCH   2  10
BRANCH   9  20
ATOM     20  C   LIG    1        1.680  -2.243   1.504  0.00  0.00    +0.020 C 
BRANCH  20  21
ATOM     21  C   LIG    1        1.910  -1.360   0.276  0.00  0.00    +0.310 C 
BRANCH  21  22
ATOM     22  C   LIG    1        1.602   0.074   0.623  0.00  0.00    -0.050 A 
ATOM     23  C   LIG    1        2.507   1.022   0.926  0.00  0.00    -0.040 A 
ATOM     24  C   LIG    1        1.785   2.210   1.184  0.00  0.00    -0.060 A 
ATOM     25  C   LIG    1        0.482   1.917   1.023  0.00  0.00    +0.160 A 
ATOM     26  O   LIG    1        0.377   0.622   0.684  0.00  0.00    -0.180 OA
ENDBRANCH  21  22
BRANCH  21  27
ATOM     27  O   LIG    1        1.055  -1.787  -0.786  0.00  0.00    -0.550 OA
ATOM     28  H   LIG    1        0.112  -1.741  -0.574  0.00  0.00    +0.380 HD
ENDBRANCH  21  27
ENDBRANCH  20  21
ENDBRANCH   9  20
TORSDOF 5
