REMARK  Name = ZINCqH0000038v6M.0
REMARK                            x       y       z     vdW  Elec       q    Type
REMARK                         _______ _______ _______ _____ _____    ______ ____
ROOT
ATOM      1  N   LIG    1       -4.941   5.242  -0.862  0.00  0.00    -0.680 N 
ATOM      2  H   LIG    1       -5.233   4.429  -1.305  0.00  0.00    +0.400 HD
ATOM      3  C   LIG    1       -5.654   6.377  -0.999  0.00  0.00    +0.710 C 
ATOM      4  N   LIG    1       -6.715   6.410  -1.829  0.00  0.00    -0.590 N 
ATOM      5  O   LIG    1       -5.340   7.372  -0.374  0.00  0.00    -0.560 OA
ENDROOT
BRANCH   1  10
ATOM      6  C   LIG    1       -1.578   4.388   0.368  0.00  0.00    +0.170 A 
ATOM      7  C   LIG    1       -1.484   5.226   1.472  0.00  0.00    -0.020 A 
ATOM      8  C   LIG    1       -2.534   6.064   1.796  0.00  0.00    +0.060 A 
ATOM      9  C   LIG    1       -3.680   6.071   1.024  0.00  0.00    +0.030 A 
ATOM     10  C   LIG    1       -3.780   5.234  -0.081  0.00  0.00    +0.180 A 
ATOM     11  C   LIG    1       -2.725   4.397  -0.412  0.00  0.00    -0.010 A 
BRANCH   6  17
ATOM     12  C   LIG    1        0.268   3.045   2.417  0.00  0.00    +0.160 C 
ATOM     13  C   LIG    1        0.320   2.931   0.915  0.00  0.00    +0.090 A 
ATOM     14  C   LIG    1        1.208   2.201   0.201  0.00  0.00    -0.120 A 
ATOM     15  C   LIG    1        0.910   2.369  -1.156  0.00  0.00    +0.250 A 
ATOM     16  N   LIG    1       -0.117   3.174  -1.254  0.00  0.00    -0.290 NA
ATOM     17  N   LIG    1       -0.512   3.539   0.040  0.00  0.00    -0.320 N 
ENDBRANCH   6  17
ENDBRANCH   1  10
BRANCH   4  18
ATOM     18  C   LIG    1       -7.484   7.648  -1.987  0.00  0.00    +0.210 C 
ATOM     19  C   LIG    1       -6.774   8.965  -1.669  0.00  0.00    +0.040 C 
ATOM     20  C   LIG    1       -7.843   8.423  -0.718  0.00  0.00    +0.020 C 
ENDBRANCH   4  18
BRANCH   4  21
ATOM     21  C   LIG    1       -7.101   5.208  -2.573  0.00  0.00    +0.340 C 
BRANCH  21  22
ATOM     22  C   LIG    1       -8.083   4.406  -1.758  0.00  0.00    -0.070 A 
ATOM     23  C   LIG    1       -7.643   3.427  -0.880  0.00  0.00    -0.030 A 
ATOM     24  C   LIG    1       -8.572   2.714  -0.146  0.00  0.00    +0.270 A 
ATOM     25  N   LIG    1       -9.862   2.950  -0.280  0.00  0.00    -0.480 NA
ATOM     26  C   LIG    1      -10.317   3.871  -1.107  0.00  0.00    +0.260 A 
ATOM     27  C   LIG    1       -9.447   4.626  -1.871  0.00  0.00    -0.010 A 
ENDBRANCH  21  22
ENDBRANCH   4  21
TORSDOF 5
