REMARK  Name = ZINCpe00000gNfHp.0
REMARK                            x       y       z     vdW  Elec       q    Type
REMARK                         _______ _______ _______ _____ _____    ______ ____
ROOT
ATOM      1  O   LIG    1        7.411  -0.056   0.625  0.00  0.00    -0.540 OA
ATOM      2  C   LIG    1        6.613  -0.052   1.543  0.00  0.00    +0.600 C 
ATOM      3  N   LIG    1        5.317  -0.342   1.310  0.00  0.00    -0.710 N 
ATOM      4  H   LIG    1        4.681  -0.339   2.042  0.00  0.00    +0.410 HD
ENDROOT
BRANCH   2   5
ATOM      5  C   LIG    1        7.063   0.269   2.909  0.00  0.00    -0.070 A 
ATOM      6  C   LIG    1        8.332   0.580   3.291  0.00  0.00    +0.250 A 
ATOM      7  O   LIG    1        8.299   0.801   4.615  0.00  0.00    -0.190 OA
ATOM      8  C   LIG    1        7.039   0.630   5.038  0.00  0.00    +0.160 A 
ATOM      9  N   LIG    1        6.286   0.317   4.026  0.00  0.00    -0.450 NA
BRANCH   8  10
ATOM     10  C   LIG    1        6.567   0.783   6.461  0.00  0.00    +0.380 C 
BRANCH  10  11
ATOM     11  N   LIG    1        6.674  -0.508   7.154  0.00  0.00    -0.490 NA
ATOM     12  C   LIG    1        8.090  -0.876   7.375  0.00  0.00    +0.180 C 
ATOM     13  C   LIG    1        8.182  -2.409   7.259  0.00  0.00    -0.010 C 
ATOM     14  C   LIG    1        6.745  -2.876   6.930  0.00  0.00    +0.180 C 
ATOM     15  C   LIG    1        6.095  -1.602   6.333  0.00  0.00    +0.200 C 
BRANCH  14  16
ATOM     16  O   LIG    1        6.765  -3.935   5.971  0.00  0.00    -0.560 OA
ATOM     17  H   LIG    1        7.230  -4.728   6.271  0.00  0.00    +0.380 HD
ENDBRANCH  14  16
ENDBRANCH  10  11
ENDBRANCH   8  10
ENDBRANCH   2   5
BRANCH   3  18
ATOM     18  C   LIG    1        4.870  -0.662  -0.048  0.00  0.00    +0.370 C 
BRANCH  18  19
ATOM     19  C   LIG    1        3.390  -0.945  -0.036  0.00  0.00    -0.280 A 
ATOM     20  C   LIG    1        2.373   0.001  -0.021  0.00  0.00    +0.130 A 
ATOM     21  C   LIG    1        2.373   1.409  -0.013  0.00  0.00    +0.030 A 
ATOM     22  C   LIG    1        1.185   2.073   0.002  0.00  0.00    +0.060 A 
ATOM     23  C   LIG    1       -0.016   1.345   0.009  0.00  0.00    +0.000 A 
ATOM     24  C   LIG    1        0.002  -0.004   0.002  0.00  0.00    +0.280 A 
ATOM     25  N   LIG    1        1.186  -0.684  -0.013  0.00  0.00    -0.270 N 
ATOM     26  N   LIG    1        1.490  -2.051  -0.024  0.00  0.00    -0.320 NA
ATOM     27  C   LIG    1        2.797  -2.197  -0.037  0.00  0.00    +0.290 A 
ENDBRANCH  18  19
ENDBRANCH   3  18
TORSDOF 6
