REMARK  Name = ZINCpk00000y6yXa.0
REMARK                            x       y       z     vdW  Elec       q    Type
REMARK                         _______ _______ _______ _____ _____    ______ ____
ROOT
ATOM      1  C   LIG    1        0.556   4.236  -1.526  0.00  0.00    +0.620 C 
ATOM      2  N   LIG    1        0.781   3.000  -1.039  0.00  0.00    -0.550 N 
ATOM      3  C   LIG    1        2.149   2.504  -0.828  0.00  0.00    +0.350 C 
ATOM      4  C   LIG    1        2.229   1.067  -1.276  0.00  0.00    +0.510 C 
ATOM      5  N   LIG    1        1.149   0.265  -1.226  0.00  0.00    -0.650 N 
ATOM      6  H   LIG    1        1.230  -0.668  -1.479  0.00  0.00    +0.420 HD
ATOM      7  C   LIG    1       -0.090   0.767  -0.816  0.00  0.00    +0.080 A 
ATOM      8  C   LIG    1       -1.138  -0.076  -0.487  0.00  0.00    +0.260 A 
ATOM      9  N   LIG    1       -2.299   0.423  -0.102  0.00  0.00    -0.470 NA
ATOM     10  C   LIG    1       -2.511   1.722  -0.008  0.00  0.00    +0.270 A 
ATOM     11  C   LIG    1       -1.513   2.631  -0.312  0.00  0.00    +0.020 A 
ATOM     12  O   LIG    1        3.282   0.628  -1.690  0.00  0.00    -0.510 OA
ATOM     13  C   LIG    1       -0.279   2.149  -0.719  0.00  0.00    +0.160 A 
ATOM     14  O   LIG    1       -0.576   4.587  -1.796  0.00  0.00    -0.490 OA
ENDROOT
BRANCH   1  21
ATOM     15  C   LIG    1        4.182   8.997  -1.869  0.00  0.00    +0.070 C 
ATOM     16  C   LIG    1        3.272   8.265  -2.858  0.00  0.00    +0.250 C 
ATOM     17  O   LIG    1        2.062   9.012  -3.047  0.00  0.00    -0.360 OA
ATOM     18  C   LIG    1        1.048   8.323  -3.783  0.00  0.00    +0.140 C 
ATOM     19  C   LIG    1        0.473   7.183  -2.927  0.00  0.00    +0.110 C 
ATOM     20  C   LIG    1        1.633   6.426  -2.341  0.00  0.00    -0.130 A 
ATOM     21  C   LIG    1        1.686   5.164  -1.733  0.00  0.00    -0.010 A 
ATOM     22  N   LIG    1        2.947   4.965  -1.385  0.00  0.00    -0.260 NA
ATOM     23  N   LIG    1        3.666   5.983  -1.717  0.00  0.00    -0.250 N 
ATOM     24  C   LIG    1        5.107   6.105  -1.484  0.00  0.00    +0.380 C 
ATOM     25  C   LIG    1       -0.070   9.301  -4.147  0.00  0.00    +0.080 C 
ATOM     26  C   LIG    1        2.901   6.913  -2.305  0.00  0.00    -0.020 A 
ENDBRANCH   1  21
TORSDOF 1
