REMARK  Name = ZINCvU00000004Ry.0
REMARK                            x       y       z     vdW  Elec       q    Type
REMARK                         _______ _______ _______ _____ _____    ______ ____
ROOT
ATOM      1  C   LIG    1        0.333   4.891   0.127  0.00  0.00    -0.060 A 
ATOM      2  C   LIG    1        0.567   3.517   0.093  0.00  0.00    -0.070 A 
ATOM      3  C   LIG    1        0.603   2.848  -1.256  0.00  0.00    +0.090 C 
ATOM      4  C   LIG    1        0.434   1.337  -1.111  0.00  0.00    +0.010 C 
ATOM      5  C   LIG    1        1.440   0.837  -0.067  0.00  0.00    +0.030 C 
ATOM      6  C   LIG    1        1.002   1.333   1.309  0.00  0.00    +0.110 C 
ATOM      7  C   LIG    1        0.756   2.823   1.281  0.00  0.00    +0.170 A 
ATOM      8  N   LIG    1        0.725   3.446   2.443  0.00  0.00    -0.460 NA
ATOM      9  C   LIG    1        0.510   4.755   2.553  0.00  0.00    +0.140 A 
ATOM     10  C   LIG    1        0.483   5.387   3.809  0.00  0.00    +0.060 A 
ATOM     11  C   LIG    1        0.260   6.727   3.886  0.00  0.00    +0.040 A 
ATOM     12  C   LIG    1        0.055   7.489   2.739  0.00  0.00    +0.030 A 
ATOM     13  C   LIG    1        0.073   6.911   1.504  0.00  0.00    +0.010 A 
ATOM     14  C   LIG    1        0.302   5.535   1.388  0.00  0.00    -0.070 A 
ENDROOT
BRANCH   4  15
ATOM     15  C   LIG    1        0.705   0.656  -2.454  0.00  0.00    -0.060 C 
ATOM     16  C   LIG    1        2.124   0.989  -2.917  0.00  0.00    +0.030 C 
ATOM     17  C   LIG    1       -0.301   1.159  -3.492  0.00  0.00    +0.020 C 
ATOM     18  C   LIG    1        0.561  -0.859  -2.296  0.00  0.00    +0.040 C 
ENDBRANCH   4  15
BRANCH   1  19
ATOM     19  C   LIG    1        0.124   5.655  -1.120  0.00  0.00    +0.520 C 
ATOM     20  O   LIG    1       -0.997   5.792  -1.568  0.00  0.00    -0.480 OA
BRANCH  19  21
ATOM     21  O   LIG    1        1.176   6.201  -1.760  0.00  0.00    -0.320 OA
BRANCH  21  22
ATOM     22  C   LIG    1        0.896   6.938  -2.980  0.00  0.00    +0.260 C 
BRANCH  22  24
ATOM     23  N   LIG    1        2.167   8.215  -4.675  0.00  0.00    -0.600 N 
ATOM     24  C   LIG    1        2.185   7.471  -3.551  0.00  0.00    +0.520 C 
ATOM     25  O   LIG    1        3.238   7.231  -3.000  0.00  0.00    -0.510 OA
BRANCH  23  27
ATOM     26  C   LIG    1       -0.007   7.392  -5.437  0.00  0.00    +0.030 C 
ATOM     27  C   LIG    1        0.888   8.621  -5.264  0.00  0.00    +0.230 C 
ATOM     28  C   LIG    1        0.198   9.628  -4.343  0.00  0.00    +0.030 C 
ENDBRANCH  23  27
BRANCH  23  29
ATOM     29  C   LIG    1        3.425   8.619  -5.307  0.00  0.00    +0.230 C 
ATOM     30  C   LIG    1        3.467  10.143  -5.434  0.00  0.00    +0.030 C 
ATOM     31  C   LIG    1        3.522   7.989  -6.698  0.00  0.00    +0.030 C 
ENDBRANCH  23  29
ENDBRANCH  22  24
ENDBRANCH  21  22
ENDBRANCH  19  21
ENDBRANCH   1  19
TORSDOF 7
