REMARK  Name = ZINCrg000000mRIS.0
REMARK                            x       y       z     vdW  Elec       q    Type
REMARK                         _______ _______ _______ _____ _____    ______ ____
ROOT
ATOM      1  S   LIG    1       -1.966  -2.009   6.323  0.00  0.00    +2.690 S 
ATOM      2  O   LIG    1       -3.103  -2.507   5.632  0.00  0.00    -0.960 OA
ATOM      3  O   LIG    1       -0.940  -1.256   5.691  0.00  0.00    -0.950 OA
ENDROOT
BRANCH   1  10
ATOM      4  C   LIG    1        2.859  -6.110   8.810  0.00  0.00    +0.120 C 
ATOM      5  C   LIG    1        1.762  -7.098   9.111  0.00  0.00    +0.530 C 
ATOM      6  N   LIG    1        0.484  -6.799   8.807  0.00  0.00    -0.550 N 
ATOM      7  C   LIG    1        0.059  -5.607   8.213  0.00  0.00    +0.210 A 
ATOM      8  C   LIG    1        0.810  -4.500   7.815  0.00  0.00    -0.030 A 
ATOM      9  C   LIG    1        0.191  -3.409   7.241  0.00  0.00    +0.160 A 
ATOM     10  C   LIG    1       -1.179  -3.404   7.057  0.00  0.00    -0.700 A 
ATOM     11  C   LIG    1       -1.930  -4.497   7.450  0.00  0.00    +0.170 A 
ATOM     12  C   LIG    1       -1.314  -5.591   8.024  0.00  0.00    -0.150 A 
ATOM     13  C   LIG    1       -1.885  -6.895   8.537  0.00  0.00    +0.110 C 
ATOM     14  C   LIG    1       -0.665  -7.676   9.050  0.00  0.00    +0.230 C 
ATOM     15  C   LIG    1       -0.507  -8.985   8.274  0.00  0.00    +0.040 C 
ATOM     16  O   LIG    1        2.030  -8.163   9.626  0.00  0.00    -0.510 OA
ENDBRANCH   1  10
BRANCH   1  17
ATOM     17  N   LIG    1       -2.544  -1.067   7.557  0.00  0.00    -1.000 NA
ATOM     18  C   LIG    1       -3.965  -1.107   7.935  0.00  0.00    +0.300 C 
ATOM     19  C   LIG    1       -4.499   0.329   7.973  0.00  0.00    +0.170 C 
ATOM     20  N   LIG    1       -3.645   1.142   8.850  0.00  0.00    -0.530 NA
ATOM     21  C   LIG    1       -2.275   1.230   8.328  0.00  0.00    +0.180 C 
ATOM     22  C   LIG    1       -1.649  -0.174   8.308  0.00  0.00    +0.250 C 
ATOM     23  C   LIG    1       -0.283  -0.119   7.621  0.00  0.00    +0.050 C 
BRANCH  20  24
ATOM     24  C   LIG    1       -4.219   2.479   9.051  0.00  0.00    +0.190 C 
BRANCH  24  25
ATOM     25  C   LIG    1       -5.531   2.360   9.829  0.00  0.00    +0.160 C 
ATOM     26  C   LIG    1       -6.191   3.736   9.930  0.00  0.00    +0.010 C 
BRANCH  25  27
ATOM     27  O   LIG    1       -5.263   1.862  11.142  0.00  0.00    -0.550 OA
ATOM     28  H   LIG    1       -6.051   1.761  11.693  0.00  0.00    +0.370 HD
ENDBRANCH  25  27
ENDBRANCH  24  25
ENDBRANCH  20  24
ENDBRANCH   1  17
TORSDOF 5
