REMARK  Name = ZINCrD0000073EVw.0
REMARK                            x       y       z     vdW  Elec       q    Type
REMARK                         _______ _______ _______ _____ _____    ______ ____
ROOT
ATOM      1  C   LIG    1        1.280   1.980   0.007  0.00  0.00    +0.180 C 
ATOM      2  C   LIG    1        1.416   2.749   1.323  0.00  0.00    +0.070 C 
ENDROOT
BRANCH   1   3
ATOM      3  C   LIG    1       -0.014   1.209   0.007  0.00  0.00    +0.520 C 
ATOM      4  N   LIG    1       -1.191   1.867   0.018  0.00  0.00    -0.670 N 
ATOM      5  H   LIG    1       -1.205   2.833   0.098  0.00  0.00    +0.410 HD
ATOM      6  O   LIG    1        0.002  -0.004  -0.008  0.00  0.00    -0.490 OA
BRANCH   4   7
ATOM      7  C   LIG    1       -2.391   1.155  -0.086  0.00  0.00    +0.140 A 
ATOM      8  C   LIG    1       -2.510  -0.099   0.499  0.00  0.00    +0.020 A 
ATOM      9  C   LIG    1       -3.697  -0.796   0.394  0.00  0.00    +0.030 A 
ATOM     10  C   LIG    1       -4.770  -0.251  -0.293  0.00  0.00    -0.110 A 
ATOM     11  C   LIG    1       -6.155  -0.806  -0.545  0.00  0.00    +0.080 C 
ATOM     12  C   LIG    1       -7.008   0.410  -0.963  0.00  0.00    +0.030 C 
ATOM     13  C   LIG    1       -5.953   1.366  -1.560  0.00  0.00    +0.080 C 
ATOM     14  C   LIG    1       -4.654   0.998  -0.876  0.00  0.00    -0.080 A 
ATOM     15  C   LIG    1       -3.468   1.703  -0.769  0.00  0.00    -0.010 A 
ENDBRANCH   4   7
ENDBRANCH   1   3
BRANCH   1  16
ATOM     16  O   LIG    1        2.393   1.058  -0.131  0.00  0.00    -0.320 OA
BRANCH  16  17
ATOM     17  C   LIG    1        3.497   1.520  -0.751  0.00  0.00    +0.540 C 
ATOM     18  O   LIG    1        3.529   2.662  -1.165  0.00  0.00    -0.490 OA
BRANCH  17  24
ATOM     19  C   LIG    1        4.779  -0.159  -2.074  0.00  0.00    +0.210 A 
ATOM     20  C   LIG    1        5.884  -0.979  -2.232  0.00  0.00    -0.110 A 
ATOM     21  C   LIG    1        6.866  -1.019  -1.260  0.00  0.00    +0.130 A 
ATOM     22  C   LIG    1        6.760  -0.239  -0.123  0.00  0.00    -0.110 A 
ATOM     23  C   LIG    1        5.666   0.593   0.053  0.00  0.00    +0.210 A 
ATOM     24  C   LIG    1        4.664   0.641  -0.927  0.00  0.00    -0.180 A 
BRANCH  19  26
ATOM     25  C   LIG    1        3.999  -0.968  -4.167  0.00  0.00    +0.260 C 
ATOM     26  O   LIG    1        3.814  -0.126  -3.027  0.00  0.00    -0.310 OA
ENDBRANCH  19  26
BRANCH  23  27
ATOM     27  O   LIG    1        5.565   1.357   1.169  0.00  0.00    -0.310 OA
ATOM     28  C   LIG    1        6.624   1.256   2.123  0.00  0.00    +0.260 C 
ENDBRANCH  23  27
ENDBRANCH  17  24
ENDBRANCH  16  17
ENDBRANCH   1  16
TORSDOF 7
