REMARK  Name = ZINCpk000000oYgb.0
REMARK                            x       y       z     vdW  Elec       q    Type
REMARK                         _______ _______ _______ _____ _____    ______ ____
ROOT
ATOM      1  S   LIG    1       -3.316   2.538  -2.970  0.00  0.00    +2.600 S 
ATOM      2  O   LIG    1       -4.412   1.718  -2.588  0.00  0.00    -0.950 OA
ATOM      3  O   LIG    1       -2.269   2.029  -3.784  0.00  0.00    -0.920 OA
ENDROOT
BRANCH   1   8
ATOM      4  C   LIG    1       -5.246   7.294  -5.189  0.00  0.00    +0.650 C 
ATOM      5  N   LIG    1       -4.688   6.322  -4.442  0.00  0.00    -0.590 N 
ATOM      6  C   LIG    1       -3.282   5.941  -4.639  0.00  0.00    +0.300 C 
ATOM      7  C   LIG    1       -3.216   4.434  -4.914  0.00  0.00    +0.290 C 
ATOM      8  N   LIG    1       -4.002   3.734  -3.888  0.00  0.00    -1.000 NA
ATOM      9  C   LIG    1       -5.410   4.111  -3.695  0.00  0.00    +0.290 C 
ATOM     10  C   LIG    1       -5.474   5.622  -3.416  0.00  0.00    +0.290 C 
ATOM     11  O   LIG    1       -4.586   7.865  -6.035  0.00  0.00    -0.570 OA
BRANCH   4  12
ATOM     12  O   LIG    1       -6.535   7.633  -4.998  0.00  0.00    -0.370 OA
BRANCH  12  14
ATOM     13  C   LIG    1       -8.537   8.933  -5.480  0.00  0.00    +0.070 C 
ATOM     14  C   LIG    1       -7.070   8.689  -5.839  0.00  0.00    +0.220 C 
ENDBRANCH  12  14
ENDBRANCH   4  12
ENDBRANCH   1   8
BRANCH   1  15
ATOM     15  C   LIG    1       -2.638   3.406  -1.529  0.00  0.00    -0.320 C 
BRANCH  15  16
ATOM     16  C   LIG    1       -1.969   2.397  -0.594  0.00  0.00    -0.120 C 
ATOM     17  C   LIG    1       -2.895   1.306   0.026  0.00  0.00    +0.050 C 
ATOM     18  C   LIG    1       -2.112   0.788   1.261  0.00  0.00    +0.040 C 
ATOM     19  C   LIG    1       -0.788   1.611   1.255  0.00  0.00    +0.030 C 
ATOM     20  C   LIG    1       -0.013   1.086   0.008  0.00  0.00    +0.020 C 
ATOM     21  C   LIG    1       -1.306   2.987   0.700  0.00  0.00    -0.040 C 
ATOM     22  C   LIG    1       -2.335   3.633   1.630  0.00  0.00    +0.050 C 
ATOM     23  C   LIG    1       -0.158   3.943   0.374  0.00  0.00    +0.040 C 
ATOM     24  C   LIG    1       -0.792   1.611  -1.189  0.00  0.00    +0.340 C 
ATOM     25  O   LIG    1       -0.538   1.446  -2.358  0.00  0.00    -0.390 OA
ENDBRANCH  15  16
ENDBRANCH   1  15
TORSDOF 5
