REMARK  Name = ZINCpk000000nPEg.0
REMARK                            x       y       z     vdW  Elec       q    Type
REMARK                         _______ _______ _______ _____ _____    ______ ____
ROOT
ATOM      1  N   LIG    1        6.093   3.352  -1.619  0.00  0.00    -1.120 NA
ATOM      2  H   LIG    1        6.807   2.806  -1.987  0.00  0.00    +0.420 HD
ENDROOT
BRANCH   1   3
ATOM      3  S   LIG    1        5.648   3.174  -0.035  0.00  0.00    +2.690 S 
ATOM      4  O   LIG    1        6.462   2.138   0.497  0.00  0.00    -0.950 OA
ATOM      5  O   LIG    1        5.597   4.483   0.517  0.00  0.00    -0.950 OA
BRANCH   3   9
ATOM      6  C   LIG    1        1.401   1.607  -0.003  0.00  0.00    -0.020 A 
ATOM      7  C   LIG    1        1.635   2.970  -0.003  0.00  0.00    -0.010 A 
ATOM      8  C   LIG    1        2.932   3.448  -0.009  0.00  0.00    +0.120 A 
ATOM      9  C   LIG    1        3.995   2.564  -0.023  0.00  0.00    -0.680 A 
ATOM     10  C   LIG    1        3.761   1.202  -0.027  0.00  0.00    +0.130 A 
ATOM     11  C   LIG    1        2.464   0.724  -0.018  0.00  0.00    -0.010 A 
BRANCH   6  13
ATOM     12  C   LIG    1       -0.753   1.593  -1.232  0.00  0.00    +0.030 C 
ATOM     13  C   LIG    1       -0.013   1.086   0.008  0.00  0.00    +0.010 C 
ATOM     14  C   LIG    1       -0.729   1.579   1.267  0.00  0.00    +0.030 C 
ENDBRANCH   6  13
ENDBRANCH   3   9
ENDBRANCH   1   3
BRANCH   1  15
ATOM     15  C   LIG    1        5.411   4.333  -2.467  0.00  0.00    +0.290 C 
BRANCH  15  16
ATOM     16  C   LIG    1        6.230   4.567  -3.737  0.00  0.00    +0.010 C 
ATOM     17  C   LIG    1        6.252   3.286  -4.599  0.00  0.00    +0.040 C 
ATOM     18  C   LIG    1        6.182   3.806  -6.057  0.00  0.00    +0.040 C 
ATOM     19  C   LIG    1        5.217   5.015  -5.946  0.00  0.00    +0.050 C 
ATOM     20  C   LIG    1        5.572   5.650  -4.595  0.00  0.00    +0.120 C 
ATOM     21  N   LIG    1        4.384   6.202  -3.941  0.00  0.00    -0.720 N 
ATOM     22  H   LIG    1        3.588   5.717  -3.674  0.00  0.00    +0.440 HD
ATOM     23  C   LIG    1        4.618   7.521  -3.786  0.00  0.00    +0.700 C 
ATOM     24  N   LIG    1        5.816   7.886  -4.261  0.00  0.00    -0.680 N 
ATOM     25  H   LIG    1        6.159   8.793  -4.237  0.00  0.00    +0.440 HD
ATOM     26  O   LIG    1        3.832   8.291  -3.272  0.00  0.00    -0.530 OA
ATOM     27  C   LIG    1        6.487   6.834  -4.778  0.00  0.00    +0.540 C 
ATOM     28  O   LIG    1        7.590   6.841  -5.282  0.00  0.00    -0.450 OA
ENDBRANCH  15  16
ENDBRANCH   1  15
TORSDOF 5
