REMARK  Name = ZINCrD00000F5LzR.0
REMARK                            x       y       z     vdW  Elec       q    Type
REMARK                         _______ _______ _______ _____ _____    ______ ____
ROOT
ATOM      1  N   LIG    1       -1.237   2.069   0.019  0.00  0.00    -0.670 N 
ATOM      2  H   LIG    1       -2.070   1.577  -0.046  0.00  0.00    +0.410 HD
ATOM      3  C   LIG    1       -1.256   3.413   0.128  0.00  0.00    +0.700 C 
ATOM      4  N   LIG    1       -2.430   4.064   0.239  0.00  0.00    -0.690 N 
ATOM      5  H   LIG    1       -3.263   3.566   0.240  0.00  0.00    +0.410 HD
ATOM      6  C   LIG    1       -2.449   5.407   0.348  0.00  0.00    +0.520 C 
ATOM      7  O   LIG    1       -1.408   6.029   0.347  0.00  0.00    -0.440 OA
ATOM      8  O   LIG    1       -0.212   4.037   0.127  0.00  0.00    -0.510 OA
ENDROOT
BRANCH   1  13
ATOM      9  C   LIG    1        3.708  -0.710  -0.076  0.00  0.00    +0.100 C 
ATOM     10  C   LIG    1        2.394   0.029  -0.050  0.00  0.00    -0.090 A 
ATOM     11  C   LIG    1        2.295   1.279  -0.631  0.00  0.00    +0.020 A 
ATOM     12  C   LIG    1        1.092   1.959  -0.609  0.00  0.00    +0.030 A 
ATOM     13  C   LIG    1       -0.016   1.385  -0.001  0.00  0.00    +0.150 A 
ATOM     14  C   LIG    1        0.087   0.129   0.583  0.00  0.00    -0.100 A 
ATOM     15  C   LIG    1       -1.114  -0.497   1.243  0.00  0.00    +0.080 C 
ATOM     16  C   LIG    1        1.292  -0.545   0.556  0.00  0.00    +0.030 A 
ENDBRANCH   1  13
BRANCH   6  17
ATOM     17  C   LIG    1       -3.762   6.135   0.472  0.00  0.00    +0.270 C 
BRANCH  17  18
ATOM     18  O   LIG    1       -3.521   7.540   0.573  0.00  0.00    -0.330 OA
BRANCH  18  19
ATOM     19  C   LIG    1       -4.600   8.340   0.691  0.00  0.00    +0.500 C 
ATOM     20  O   LIG    1       -5.716   7.857   0.707  0.00  0.00    -0.510 OA
BRANCH  19  21
ATOM     21  C   LIG    1       -4.429   9.787   0.799  0.00  0.00    -0.050 C 
ATOM     22  C   LIG    1       -5.509  10.588   0.917  0.00  0.00    +0.150 C 
BRANCH  22  23
ATOM     23  C   LIG    1       -5.337  12.045   1.026  0.00  0.00    -0.100 A 
ATOM     24  C   LIG    1       -4.054  12.603   1.013  0.00  0.00    +0.070 A 
ATOM     25  C   LIG    1       -3.899  13.969   1.110  0.00  0.00    -0.020 A 
ATOM     26  C   LIG    1       -5.011  14.789   1.231  0.00  0.00    +0.120 A 
ATOM     27  C   LIG    1       -6.285  14.241   1.250  0.00  0.00    -0.020 A 
ATOM     28  F   LIG    1       -4.853  16.127   1.332  0.00  0.00    -0.130 F 
ATOM     29  C   LIG    1       -6.454  12.877   1.148  0.00  0.00    +0.080 A 
ENDBRANCH  22  23
ENDBRANCH  19  21
ENDBRANCH  18  19
ENDBRANCH  17  18
ENDBRANCH   6  17
TORSDOF 6
