REMARK  Name = ZINCah0000002iJb.0
REMARK                            x       y       z     vdW  Elec       q    Type
REMARK                         _______ _______ _______ _____ _____    ______ ____
ROOT
ATOM      1  C   LIG    1        3.732  -0.574  -0.036  0.00  0.00    +0.120 C 
ATOM      2  C   LIG    1        2.382   0.096  -0.020  0.00  0.00    -0.140 A 
ATOM      3  C   LIG    1        1.222  -0.663  -0.013  0.00  0.00    +0.080 A 
ATOM      4  C   LIG    1        0.002  -0.004   0.002  0.00  0.00    -0.150 A 
ATOM      5  C   LIG    1       -0.017   1.378   0.010  0.00  0.00    +0.280 A 
ATOM      6  N   LIG    1        1.107   2.068   0.003  0.00  0.00    -0.480 NA
ATOM      7  C   LIG    1        2.285   1.475  -0.012  0.00  0.00    +0.130 A 
ATOM      8  C   LIG    1        3.539   2.310  -0.020  0.00  0.00    +0.130 C 
ENDROOT
BRANCH   4   9
ATOM      9  C   LIG    1       -1.287  -0.785   0.010  0.00  0.00    +0.240 C 
BRANCH   9  10
ATOM     10  O   LIG    1       -1.707  -1.024  -1.335  0.00  0.00    -0.570 OA
ATOM     11  H   LIG    1       -2.532  -1.523  -1.407  0.00  0.00    +0.380 HD
ENDBRANCH   9  10
ENDBRANCH   4   9
TORSDOF 2
