REMARK  Name = ZINCpe00000zgolY.0
REMARK                            x       y       z     vdW  Elec       q    Type
REMARK                         _______ _______ _______ _____ _____    ______ ____
ROOT
ATOM      1  N   LIG    1       -1.198   1.824   0.018  0.00  0.00    -0.520 N 
ATOM      2  C   LIG    1       -1.367   3.271  -0.033  0.00  0.00    +0.310 C 
ATOM      3  C   LIG    1       -0.076   3.977   0.382  0.00  0.00    +0.000 C 
ATOM      4  C   LIG    1        1.087   3.388  -0.425  0.00  0.00    +0.050 C 
ATOM      5  C   LIG    1        1.299   1.939   0.019  0.00  0.00    +0.090 C 
ATOM      6  C   LIG    1       -0.014   1.209   0.026  0.00  0.00    +0.510 C 
ATOM      7  O   LIG    1        0.003  -0.004   0.033  0.00  0.00    -0.540 OA
ENDROOT
BRANCH   1  11
ATOM      8  C   LIG    1       -5.909   0.410   0.299  0.00  0.00    +0.370 C 
ATOM      9  N   LIG    1       -4.449   0.389   0.192  0.00  0.00    -0.370 N 
ATOM     10  C   LIG    1       -3.632   1.474   0.185  0.00  0.00    +0.200 A 
ATOM     11  C   LIG    1       -2.356   1.025   0.067  0.00  0.00    -0.010 A 
ATOM     12  C   LIG    1       -2.396  -0.375   0.009  0.00  0.00    +0.270 A 
ATOM     13  N   LIG    1       -3.646  -0.754   0.084  0.00  0.00    -0.290 NA
ENDBRANCH   1  11
BRANCH   3  14
ATOM     14  C   LIG    1       -0.191   5.453   0.100  0.00  0.00    +0.520 C 
ATOM     15  N   LIG    1        0.842   6.274   0.375  0.00  0.00    -0.650 N 
ATOM     16  H   LIG    1        1.659   5.915   0.754  0.00  0.00    +0.420 HD
ATOM     17  O   LIG    1       -1.212   5.902  -0.374  0.00  0.00    -0.450 OA
BRANCH  15  18
ATOM     18  C   LIG    1        0.737   7.635   0.115  0.00  0.00    +0.420 A 
ATOM     19  N   LIG    1       -0.373   8.121  -0.405  0.00  0.00    -0.460 NA
ATOM     20  C   LIG    1       -0.493   9.432  -0.658  0.00  0.00    +0.280 A 
ATOM     21  C   LIG    1       -1.526  10.194  -1.187  0.00  0.00    -0.110 A 
ATOM     22  C   LIG    1       -1.097  11.512  -1.230  0.00  0.00    +0.300 A 
ATOM     23  N   LIG    1        0.128  11.578  -0.758  0.00  0.00    -0.320 NA
ATOM     24  N   LIG    1        0.540  10.292  -0.390  0.00  0.00    -0.330 N 
ATOM     25  C   LIG    1        1.704   9.815   0.146  0.00  0.00    +0.380 A 
ATOM     26  C   LIG    1        1.818   8.493   0.403  0.00  0.00    -0.070 A 
ENDBRANCH  15  18
ENDBRANCH   3  14
TORSDOF 3
