REMARK  Name = ZINCpk00001AZiZf.0
REMARK                            x       y       z     vdW  Elec       q    Type
REMARK                         _______ _______ _______ _____ _____    ______ ____
ROOT
ATOM      1  C   LIG    1        1.432   2.051  -0.001  0.00  0.00    +0.310 C 
ATOM      2  C   LIG    1        2.176   1.252  -1.102  0.00  0.00    -0.320 C 
ATOM      3  S   LIG    1        1.561  -0.454  -0.842  0.00  0.00    +2.400 S 
ATOM      4  C   LIG    1        0.002  -0.004   0.002  0.00  0.00    -0.300 C 
ATOM      5  O   LIG    1        1.262  -1.044  -2.100  0.00  0.00    -0.920 OA
ATOM      6  O   LIG    1        2.414  -1.128   0.073  0.00  0.00    -0.920 OA
ATOM      7  C   LIG    1       -0.019   1.537   0.011  0.00  0.00    +0.010 C 
ENDROOT
BRANCH   7   8
ATOM      8  C   LIG    1       -0.720   2.028   1.251  0.00  0.00    +0.540 C 
ATOM      9  N   LIG    1       -2.013   1.710   1.464  0.00  0.00    -0.620 N 
ATOM     10  C   LIG    1       -2.855   0.902   0.571  0.00  0.00    +0.240 C 
ATOM     11  C   LIG    1       -4.258   0.825   1.209  0.00  0.00    +0.040 C 
ATOM     12  C   LIG    1       -4.285   2.069   2.136  0.00  0.00    +0.040 C 
ATOM     13  C   LIG    1       -2.817   2.121   2.629  0.00  0.00    +0.250 C 
ATOM     14  O   LIG    1       -0.122   2.708   2.057  0.00  0.00    -0.510 OA
ENDBRANCH   7   8
BRANCH   1  15
ATOM     15  N   LIG    1        1.455   3.481  -0.315  0.00  0.00    -0.680 N 
ATOM     16  H   LIG    1        0.728   3.879  -0.819  0.00  0.00    +0.410 HD
BRANCH  15  21
ATOM     17  C   LIG    1        1.128   8.800  -1.721  0.00  0.00    +0.150 C 
ATOM     18  C   LIG    1        1.948   7.752  -1.014  0.00  0.00    -0.180 A 
ATOM     19  C   LIG    1        1.606   6.482  -0.917  0.00  0.00    +0.040 A 
ATOM     20  C   LIG    1        2.549   5.651  -0.192  0.00  0.00    -0.230 A 
ATOM     21  C   LIG    1        2.515   4.265   0.106  0.00  0.00    +0.500 A 
ATOM     22  N   LIG    1        3.511   3.733   0.799  0.00  0.00    -0.580 NA
ATOM     23  C   LIG    1        4.531   4.468   1.203  0.00  0.00    +0.560 A 
ATOM     24  N   LIG    1        4.609   5.754   0.953  0.00  0.00    -0.530 NA
ATOM     25  C   LIG    1        3.649   6.383   0.264  0.00  0.00    +0.120 A 
ATOM     26  S   LIG    1        3.479   8.065  -0.218  0.00  0.00    +0.170 S 
ENDBRANCH  15  21
ENDBRANCH   1  15
TORSDOF 3
