REMARK  Name = ZINCwl00000009Nk.1
REMARK                            x       y       z     vdW  Elec       q    Type
REMARK                         _______ _______ _______ _____ _____    ______ ____
ROOT
ATOM      1  C   LIG    1        5.382   8.957  -0.838  0.00  0.00    +0.620 C 
ATOM      2  N   LIG    1        6.659   9.241  -0.514  0.00  0.00    -0.710 N 
ATOM      3  H   LIG    1        7.170   8.623   0.033  0.00  0.00    +0.410 HD
ATOM      4  O   LIG    1        4.742   9.731  -1.523  0.00  0.00    -0.500 OA
ENDROOT
BRANCH   2   5
ATOM      5  C   LIG    1        7.276  10.482  -0.989  0.00  0.00    +0.270 C 
ATOM      6  C   LIG    1        8.819  10.361  -0.971  0.00  0.00    +0.100 C 
ATOM      7  C   LIG    1        9.161  10.955   0.408  0.00  0.00    +0.230 C 
ATOM      8  C   LIG    1       10.454  11.771   0.325  0.00  0.00    +0.270 C 
ATOM      9  N   LIG    1       10.599  12.535   1.572  0.00  0.00    -0.380 N 
ATOM     10  C   LIG    1        9.568  13.565   1.677  0.00  0.00    +0.250 C 
ATOM     11  C   LIG    1        8.167  12.965   1.710  0.00  0.00    +0.330 C 
ATOM     12  H   LIG    1       10.520  11.906   2.357  0.00  0.00    +0.420 HD
ATOM     13  N   LIG    1        8.060  11.882   0.725  0.00  0.00    -0.640 N 
ATOM     14  C   LIG    1        6.982  11.618  -0.035  0.00  0.00    +0.510 C 
ATOM     15  O   LIG    1        5.924  12.207   0.035  0.00  0.00    -0.470 OA
BRANCH   9  16
ATOM     16  C   LIG    1       11.923  13.172   1.597  0.00  0.00    +0.160 C 
ATOM     17  C   LIG    1       13.008  12.096   1.524  0.00  0.00    +0.090 C 
ATOM     18  C   LIG    1       12.081  13.969   2.893  0.00  0.00    +0.080 C 
ENDBRANCH   9  16
ENDBRANCH   2   5
BRANCH   1  21
ATOM     19  C   LIG    1        2.454   8.038  -1.440  0.00  0.00    +0.200 C 
ATOM     20  C   LIG    1        3.482   7.301  -0.620  0.00  0.00    +0.140 A 
ATOM     21  C   LIG    1        4.760   7.708  -0.360  0.00  0.00    -0.110 A 
ATOM     22  N   LIG    1        5.357   6.774   0.400  0.00  0.00    -0.200 NA
ATOM     23  N   LIG    1        4.531   5.815   0.634  0.00  0.00    -0.050 NA
ATOM     24  N   LIG    1        3.316   6.114   0.002  0.00  0.00    -0.310 N 
BRANCH  24  25
ATOM     25  C   LIG    1        2.154   5.329   0.009  0.00  0.00    +0.120 A 
ATOM     26  C   LIG    1        2.259   3.966   0.001  0.00  0.00    +0.090 A 
ATOM     27  C   LIG    1        1.095   3.182   0.009  0.00  0.00    -0.100 A 
ATOM     28  C   LIG    1        1.161   1.776   0.001  0.00  0.00    +0.100 A 
ATOM     29  C   LIG    1       -0.013   1.076   0.008  0.00  0.00    -0.020 A 
ATOM     30  C   LIG    1       -1.228   1.756   0.017  0.00  0.00    +0.320 A 
ATOM     31  N   LIG    1       -1.285   3.066   0.030  0.00  0.00    -0.470 NA
ATOM     32  C   LIG    1       -0.175   3.811   0.024  0.00  0.00    +0.130 A 
ATOM     33  C   LIG    1       -0.244   5.216   0.033  0.00  0.00    +0.090 A 
ATOM     34  C   LIG    1        0.900   5.949   0.025  0.00  0.00    +0.030 A 
ENDBRANCH  24  25
ENDBRANCH   1  21
TORSDOF 4
