REMARK  Name = ZINCtV00000L6jvT.0
REMARK                            x       y       z     vdW  Elec       q    Type
REMARK                         _______ _______ _______ _____ _____    ______ ____
ROOT
ATOM      1  C   LIG    1        6.287  -4.724  -0.086  0.00  0.00    +0.520 C 
ATOM      2  N   LIG    1        6.480  -6.058  -0.095  0.00  0.00    -0.620 N 
ATOM      3  H   LIG    1        5.718  -6.659  -0.091  0.00  0.00    +0.430 HD
ATOM      4  O   LIG    1        7.239  -3.974  -0.091  0.00  0.00    -0.490 OA
ENDROOT
BRANCH   2   5
ATOM      5  C   LIG    1        7.770  -6.573  -0.111  0.00  0.00    +0.280 A 
ATOM      6  N   LIG    1        8.074  -7.834  -0.121  0.00  0.00    -0.500 NA
ATOM      7  C   LIG    1        9.363  -8.143  -0.136  0.00  0.00    +0.120 A 
ATOM      8  C   LIG    1       10.206  -7.095  -0.139  0.00  0.00    -0.110 A 
ATOM      9  S   LIG    1        9.248  -5.616  -0.128  0.00  0.00    +0.220 S 
BRANCH   7  10
ATOM     10  C   LIG    1        9.842  -9.546  -0.149  0.00  0.00    -0.000 A 
ATOM     11  C   LIG    1       11.209  -9.818  -0.171  0.00  0.00    +0.050 A 
ATOM     12  C   LIG    1       11.650 -11.126  -0.177  0.00  0.00    +0.050 A 
ATOM     13  C   LIG    1       10.738 -12.167  -0.174  0.00  0.00    -0.030 A 
ATOM     14  C   LIG    1        9.378 -11.902  -0.159  0.00  0.00    -0.030 A 
ATOM     15 CL   LIG    1        8.240 -13.213  -0.154  0.00  0.00    -0.040 Cl
ATOM     16 CL   LIG    1       11.300 -13.809  -0.190  0.00  0.00    -0.040 Cl
ATOM     17  C   LIG    1        8.926 -10.597  -0.146  0.00  0.00    +0.080 A 
ENDBRANCH   7  10
ENDBRANCH   2   5
BRANCH   1  18
ATOM     18  C   LIG    1        4.887  -4.166  -0.069  0.00  0.00    +0.090 C 
BRANCH  18  19
ATOM     19  C   LIG    1        4.949  -2.637  -0.061  0.00  0.00    +0.070 C 
BRANCH  19  20
ATOM     20  C   LIG    1        3.528  -2.070  -0.044  0.00  0.00    +0.180 C 
BRANCH  20  21
ATOM     21  O   LIG    1        3.585  -0.642  -0.036  0.00  0.00    -0.300 OA
BRANCH  21  27
ATOM     22  C   LIG    1        2.380   1.415  -0.013  0.00  0.00    +0.100 A 
ATOM     23  C   LIG    1        1.170   2.089   0.002  0.00  0.00    -0.040 A 
ATOM     24  C   LIG    1       -0.017   1.378   0.010  0.00  0.00    +0.010 A 
ATOM     25  C   LIG    1        0.002  -0.004   0.002  0.00  0.00    +0.010 A 
ATOM     26  C   LIG    1        1.207  -0.682  -0.013  0.00  0.00    -0.040 A 
ATOM     27  C   LIG    1        2.399   0.024  -0.021  0.00  0.00    +0.100 A 
BRANCH  22  28
ATOM     28  O   LIG    1        3.548   2.113  -0.021  0.00  0.00    -0.300 OA
BRANCH  28  30
ATOM     29  C   LIG    1        4.857   4.144  -0.022  0.00  0.00    +0.070 C 
ATOM     30  C   LIG    1        3.452   3.539  -0.012  0.00  0.00    +0.170 C 
ENDBRANCH  28  30
ENDBRANCH  22  28
ENDBRANCH  21  27
ENDBRANCH  20  21
ENDBRANCH  19  20
ENDBRANCH  18  19
ENDBRANCH   1  18
TORSDOF 9
