REMARK  Name = ZINCpe00000MJJJN.0
REMARK                            x       y       z     vdW  Elec       q    Type
REMARK                         _______ _______ _______ _____ _____    ______ ____
ROOT
ATOM      1  C   LIG    1        2.355   5.121   1.447  0.00  0.00    +0.520 C 
ATOM      2  N   LIG    1        2.564   5.760   2.616  0.00  0.00    -0.620 N 
ATOM      3  C   LIG    1        2.361   5.073   3.901  0.00  0.00    +0.250 C 
ATOM      4  C   LIG    1        3.616   5.287   4.762  0.00  0.00    +0.220 C 
ATOM      5  O   LIG    1        3.907   6.685   4.828  0.00  0.00    -0.370 OA
ATOM      6  C   LIG    1        4.215   7.280   3.565  0.00  0.00    +0.220 C 
ATOM      7  C   LIG    1        2.996   7.166   2.643  0.00  0.00    +0.280 C 
ATOM      8  O   LIG    1        2.522   5.706   0.398  0.00  0.00    -0.530 OA
ENDROOT
BRANCH   6   9
ATOM      9  C   LIG    1        4.562   8.732   3.764  0.00  0.00    +0.220 A 
ATOM     10  N   LIG    1        4.783   9.517   2.722  0.00  0.00    -0.560 NA
ATOM     11  C   LIG    1        5.089  10.795   2.889  0.00  0.00    +0.570 A 
ATOM     12  N   LIG    1        5.184  11.333   4.096  0.00  0.00    -0.570 NA
ATOM     13  C   LIG    1        4.975  10.604   5.180  0.00  0.00    +0.360 A 
ATOM     14  C   LIG    1        4.649   9.265   5.041  0.00  0.00    -0.120 A 
BRANCH  11  15
ATOM     15  N   LIG    1        5.314  11.587   1.777  0.00  0.00    -0.590 N 
ATOM     16  C   LIG    1        5.652  13.003   1.942  0.00  0.00    +0.300 C 
ATOM     17  C   LIG    1        5.212  11.010   0.434  0.00  0.00    +0.300 C 
ENDBRANCH  11  15
ENDBRANCH   6   9
BRANCH   1  18
ATOM     18  C   LIG    1        1.913   3.680   1.445  0.00  0.00    +0.060 C 
BRANCH  18  19
ATOM     19  C   LIG    1        1.749   3.200   0.002  0.00  0.00    +0.140 C 
BRANCH  19  23
ATOM     20  C   LIG    1        1.806  -1.812  -0.025  0.00  0.00    +0.360 C 
ATOM     21  N   LIG    1        1.339  -0.424  -0.013  0.00  0.00    -0.380 N 
ATOM     22  C   LIG    1        2.119   0.677  -0.015  0.00  0.00    +0.230 A 
ATOM     23  C   LIG    1        1.307   1.759  -0.001  0.00  0.00    -0.240 A 
ATOM     24  C   LIG    1       -0.016   1.304   0.009  0.00  0.00    +0.230 A 
ATOM     25  N   LIG    1        0.002  -0.004   0.002  0.00  0.00    -0.300 NA
ENDBRANCH  19  23
ENDBRANCH  18  19
ENDBRANCH   1  18
TORSDOF 5
