REMARK  Name = ZINCnE000001KMum.0
REMARK                            x       y       z     vdW  Elec       q    Type
REMARK                         _______ _______ _______ _____ _____    ______ ____
ROOT
ATOM      1  C   LIG    1       -1.979   1.183   1.344  0.00  0.00    +0.170 A 
ATOM      2  C   LIG    1       -2.411  -0.028   0.828  0.00  0.00    -0.110 A 
ATOM      3  C   LIG    1       -3.724  -0.425   0.994  0.00  0.00    +0.100 A 
ATOM      4  C   LIG    1       -4.624   0.388   1.682  0.00  0.00    +0.050 A 
ATOM      5  C   LIG    1       -4.207   1.598   2.203  0.00  0.00    +0.140 A 
ATOM      6  F   LIG    1       -4.138  -1.608   0.488  0.00  0.00    -0.150 F 
ATOM      7  C   LIG    1       -2.878   2.005   2.042  0.00  0.00    -0.160 A 
ENDROOT
BRANCH   4   8
ATOM      8  N   LIG    1       -5.954  -0.024   1.847  0.00  0.00    -0.670 N 
ATOM      9  H   LIG    1       -6.395  -0.531   1.148  0.00  0.00    +0.410 HD
ATOM     10  C   LIG    1       -6.620   0.285   2.978  0.00  0.00    +0.510 C 
ATOM     11  O   LIG    1       -6.097   0.987   3.817  0.00  0.00    -0.500 OA
BRANCH  10  12
ATOM     12  C   LIG    1       -8.014  -0.243   3.199  0.00  0.00    -0.010 C 
ATOM     13  C   LIG    1       -7.996  -1.782   3.230  0.00  0.00    +0.020 C 
ATOM     14  C   LIG    1       -8.516  -2.204   4.623  0.00  0.00    +0.030 C 
ATOM     15  C   LIG    1       -9.325  -0.989   5.103  0.00  0.00    -0.080 C 
ATOM     16  C   LIG    1       -9.679  -0.963   6.585  0.00  0.00    +0.020 C 
ATOM     17  C   LIG    1      -11.024  -0.345   6.161  0.00  0.00    -0.000 C 
ATOM     18  C   LIG    1      -10.817  -1.013   4.789  0.00  0.00    +0.020 C 
ATOM     19  C   LIG    1       -8.544   0.223   4.574  0.00  0.00    +0.070 C 
ENDBRANCH  10  12
ENDBRANCH   4   8
BRANCH   7  20
ATOM     20  C   LIG    1       -2.426   3.289   2.597  0.00  0.00    +0.520 C 
ATOM     21  O   LIG    1       -1.264   3.644   2.451  0.00  0.00    -0.670 OA
ATOM     22  O   LIG    1       -3.212   4.003   3.205  0.00  0.00    -0.690 OA
ENDBRANCH   7  20
BRANCH   1  24
ATOM     23  C   LIG    1        0.170   0.682   0.463  0.00  0.00    +0.220 C 
ATOM     24  O   LIG    1       -0.690   1.572   1.179  0.00  0.00    -0.260 OA
ENDBRANCH   1  24
TORSDOF 4
