REMARK  Name = ZINCrH000004qE32.0
REMARK                            x       y       z     vdW  Elec       q    Type
REMARK                         _______ _______ _______ _____ _____    ______ ____
ROOT
ATOM      1  C   LIG    1       -0.058   3.840   0.013  0.00  0.00    +0.210 A 
ATOM      2  C   LIG    1        1.156   3.170   0.004  0.00  0.00    -0.070 A 
ATOM      3  C   LIG    1        1.179   1.782  -0.006  0.00  0.00    +0.180 A 
ATOM      4  C   LIG    1       -0.013   1.068  -0.008  0.00  0.00    +0.000 A 
ATOM      5  C   LIG    1       -1.222   1.738  -0.005  0.00  0.00    +0.050 A 
ATOM      6  C   LIG    1       -1.249   3.120   0.011  0.00  0.00    +0.010 A 
ATOM      7  F   LIG    1       -2.432   3.772   0.020  0.00  0.00    -0.140 F 
ENDROOT
BRANCH   3   8
ATOM      8  N   LIG    1        2.402   1.102  -0.015  0.00  0.00    -0.670 N 
ATOM      9  H   LIG    1        3.158   1.470  -0.497  0.00  0.00    +0.410 HD
ATOM     10  C   LIG    1        2.529  -0.065   0.648  0.00  0.00    +0.570 C 
ATOM     11  O   LIG    1        1.560  -0.570   1.182  0.00  0.00    -0.510 OA
BRANCH  10  12
ATOM     12  C   LIG    1        3.844  -0.731   0.725  0.00  0.00    -0.130 A 
ATOM     13  C   LIG    1        4.958  -0.153   0.112  0.00  0.00    +0.070 A 
ATOM     14  C   LIG    1        6.185  -0.775   0.185  0.00  0.00    +0.040 A 
ATOM     15  C   LIG    1        6.319  -1.978   0.866  0.00  0.00    +0.070 A 
ATOM     16  O   LIG    1        7.403  -2.777   1.078  0.00  0.00    -0.300 OA
ATOM     17  C   LIG    1        6.869  -4.054   1.474  0.00  0.00    +0.440 C 
ATOM     18  O   LIG    1        5.604  -3.724   2.076  0.00  0.00    -0.300 OA
ATOM     19  C   LIG    1        5.210  -2.560   1.481  0.00  0.00    +0.030 A 
ATOM     20  C   LIG    1        3.979  -1.938   1.416  0.00  0.00    +0.110 A 
ENDBRANCH  10  12
ENDBRANCH   3   8
BRANCH   1  21
ATOM     21  N   LIG    1       -0.085   5.238   0.024  0.00  0.00    -0.740 N 
ATOM     22  H   LIG    1       -0.935   5.707   0.030  0.00  0.00    +0.410 HD
BRANCH  21  23
ATOM     23  C   LIG    1        1.169   5.995   0.025  0.00  0.00    +0.380 C 
BRANCH  23  27
ATOM     24  C   LIG    1        0.301  10.811   1.427  0.00  0.00    +0.190 C 
ATOM     25  C   LIG    1        0.496   9.530   0.657  0.00  0.00    -0.030 A 
ATOM     26  C   LIG    1        0.794   8.313   1.171  0.00  0.00    -0.050 A 
ATOM     27  C   LIG    1        0.865   7.471   0.037  0.00  0.00    -0.000 A 
ATOM     28  N   LIG    1        0.621   8.226  -0.996  0.00  0.00    -0.350 NA
ATOM     29  O   LIG    1        0.408   9.370  -0.671  0.00  0.00    +0.110 OA
ENDBRANCH  23  27
ENDBRANCH  21  23
ENDBRANCH   1  21
TORSDOF 5
