REMARK  Name = ZINCrH000004rMa2.0
REMARK                            x       y       z     vdW  Elec       q    Type
REMARK                         _______ _______ _______ _____ _____    ______ ____
ROOT
ATOM      1  N   LIG    1       -5.816   3.119  -1.501  0.00  0.00    -0.510 NA
ATOM      2  C   LIG    1       -6.207   2.056  -0.565  0.00  0.00    +0.210 C 
ENDROOT
BRANCH   1   3
ATOM      3  C   LIG    1       -4.774   3.975  -0.919  0.00  0.00    +0.220 C 
BRANCH   3   6
ATOM      4  N   LIG    1       -2.413   3.758  -0.215  0.00  0.00    -0.680 N 
ATOM      5  H   LIG    1       -2.456   4.672   0.108  0.00  0.00    +0.410 HD
ATOM      6  C   LIG    1       -3.510   3.175  -0.737  0.00  0.00    +0.510 C 
ATOM      7  O   LIG    1       -3.481   2.006  -1.060  0.00  0.00    -0.490 OA
BRANCH   4  15
ATOM      8  C   LIG    1       -1.161   2.970  -2.646  0.00  0.00    +0.100 C 
ATOM      9  C   LIG    1       -0.567   2.642  -1.300  0.00  0.00    -0.070 A 
ATOM     10  C   LIG    1        0.617   1.935  -1.222  0.00  0.00    +0.010 A 
ATOM     11  C   LIG    1        1.166   1.637   0.012  0.00  0.00    +0.010 A 
ATOM     12  C   LIG    1        0.529   2.042   1.171  0.00  0.00    +0.010 A 
ATOM     13  C   LIG    1       -0.658   2.745   1.099  0.00  0.00    -0.090 A 
ATOM     14  C   LIG    1       -1.351   3.186   2.363  0.00  0.00    +0.090 C 
ATOM     15  C   LIG    1       -1.211   3.045  -0.138  0.00  0.00    +0.130 A 
ENDBRANCH   4  15
ENDBRANCH   3   6
ENDBRANCH   1   3
BRANCH   1  16
ATOM     16  C   LIG    1       -6.982   3.913  -1.912  0.00  0.00    +0.220 C 
BRANCH  16  17
ATOM     17  C   LIG    1       -7.918   3.051  -2.720  0.00  0.00    +0.520 C 
ATOM     18  N   LIG    1       -9.062   3.571  -3.206  0.00  0.00    -0.730 N 
ATOM     19  H   LIG    1       -9.283   4.500  -3.037  0.00  0.00    +0.400 HD
ATOM     20  O   LIG    1       -7.641   1.889  -2.932  0.00  0.00    -0.510 OA
BRANCH  18  21
ATOM     21  C   LIG    1       -9.972   2.733  -3.991  0.00  0.00    +0.330 C 
BRANCH  21  22
ATOM     22  C   LIG    1      -11.167   3.548  -4.413  0.00  0.00    -0.100 A 
ATOM     23  C   LIG    1      -12.358   3.437  -3.721  0.00  0.00    +0.080 A 
ATOM     24  C   LIG    1      -13.453   4.189  -4.104  0.00  0.00    +0.030 A 
ATOM     25  C   LIG    1      -13.361   5.043  -5.188  0.00  0.00    -0.020 A 
ATOM     26  C   LIG    1      -12.171   5.150  -5.885  0.00  0.00    +0.050 A 
ATOM     27 CL   LIG    1      -14.739   5.982  -5.673  0.00  0.00    -0.050 Cl
ATOM     28  C   LIG    1      -11.074   4.402  -5.498  0.00  0.00    -0.010 A 
ATOM     29 CL   LIG    1       -9.580   4.535  -6.372  0.00  0.00    -0.040 Cl
ENDBRANCH  21  22
ENDBRANCH  18  21
ENDBRANCH  16  17
ENDBRANCH   1  16
TORSDOF 7
