REMARK  Name = ZINCrD000000BEKr.0
REMARK                            x       y       z     vdW  Elec       q    Type
REMARK                         _______ _______ _______ _____ _____    ______ ____
ROOT
ATOM      1  O   LIG    1       -3.345  -1.960   1.291  0.00  0.00    -0.540 OA
ATOM      2  C   LIG    1       -2.250  -2.448   1.498  0.00  0.00    +0.580 C 
ATOM      3  N   LIG    1       -1.154  -1.911   0.926  0.00  0.00    -0.720 N 
ATOM      4  H   LIG    1       -0.281  -2.301   1.091  0.00  0.00    +0.400 HD
ENDROOT
BRANCH   2   5
ATOM      5  C   LIG    1       -2.122  -3.628   2.374  0.00  0.00    -0.250 A 
ATOM      6  C   LIG    1       -3.256  -4.192   2.979  0.00  0.00    +0.180 A 
ATOM      7  C   LIG    1       -3.092  -5.290   3.780  0.00  0.00    -0.100 A 
ATOM      8  C   LIG    1       -1.812  -5.804   3.980  0.00  0.00    +0.430 A 
ATOM      9  N   LIG    1       -0.756  -5.249   3.401  0.00  0.00    -0.550 NA
ATOM     10  C   LIG    1       -0.871  -4.196   2.619  0.00  0.00    +0.350 A 
BRANCH   8  11
ATOM     11  N   LIG    1       -1.641  -6.911   4.794  0.00  0.00    -0.690 N 
ATOM     12  H   LIG    1       -0.765  -7.317   4.883  0.00  0.00    +0.410 HD
BRANCH  11  13
ATOM     13  C   LIG    1       -2.784  -7.469   5.521  0.00  0.00    +0.220 C 
ATOM     14  C   LIG    1       -2.606  -7.741   7.016  0.00  0.00    +0.020 C 
ATOM     15  C   LIG    1       -2.665  -8.908   6.027  0.00  0.00    +0.030 C 
ENDBRANCH  11  13
ENDBRANCH   8  11
ENDBRANCH   2   5
BRANCH   3  16
ATOM     16  C   LIG    1       -1.281  -0.740   0.056  0.00  0.00    +0.320 C 
BRANCH  16  17
ATOM     17  C   LIG    1        0.020   0.020   0.044  0.00  0.00    -0.080 A 
ATOM     18  C   LIG    1        1.220  -0.666   0.014  0.00  0.00    +0.020 A 
ATOM     19  C   LIG    1        2.416   0.028   0.005  0.00  0.00    +0.030 A 
ATOM     20  C   LIG    1        2.415   1.414   0.024  0.00  0.00    +0.050 A 
ATOM     21  O   LIG    1        3.600   2.083   0.019  0.00  0.00    -0.310 OA
ATOM     22  C   LIG    1        3.555   3.469  -0.339  0.00  0.00    +0.220 C 
ATOM     23  C   LIG    1        2.400   4.127   0.428  0.00  0.00    +0.220 C 
ATOM     24  O   LIG    1        1.184   3.465   0.062  0.00  0.00    -0.310 OA
ATOM     25  C   LIG    1        1.208   2.104   0.051  0.00  0.00    +0.060 A 
ATOM     26  C   LIG    1        0.012   1.403   0.062  0.00  0.00    +0.040 A 
ENDBRANCH  16  17
BRANCH  16  27
ATOM     27  C   LIG    1       -1.619  -1.194  -1.365  0.00  0.00    -0.060 C 
ATOM     28  C   LIG    1       -2.821  -0.540  -2.049  0.00  0.00    +0.020 C 
ATOM     29  C   LIG    1       -2.912  -1.988  -1.564  0.00  0.00    +0.030 C 
ENDBRANCH  16  27
ENDBRANCH   3  16
TORSDOF 6
