REMARK  Name = ZINCpk00000KfLRF.2
REMARK                            x       y       z     vdW  Elec       q    Type
REMARK                         _______ _______ _______ _____ _____    ______ ____
ROOT
ATOM      1  C   LIG    1       -1.533  -0.913   0.142  0.00  0.00    +0.270 C 
ATOM      2  C   LIG    1       -1.310  -1.850  -1.049  0.00  0.00    +0.200 C 
ATOM      3  N   LIG    1       -2.408  -2.825  -1.111  0.00  0.00    -0.520 NA
ATOM      4  C   LIG    1       -2.486  -3.603   0.134  0.00  0.00    +0.160 C 
ATOM      5  C   LIG    1       -2.697  -2.649   1.313  0.00  0.00    +0.250 C 
ATOM      6  O   LIG    1       -1.637  -1.689   1.339  0.00  0.00    -0.370 OA
ENDROOT
BRANCH   1  11
ATOM      7  C   LIG    1        1.645   0.798   0.435  0.00  0.00    +0.230 A 
ATOM      8  N   LIG    1        0.870   1.851   0.403  0.00  0.00    -0.300 NA
ATOM      9  N   LIG    1       -0.449   1.380   0.288  0.00  0.00    -0.470 N 
ATOM     10  H   LIG    1       -1.255   1.917   0.236  0.00  0.00    +0.440 HD
ATOM     11  C   LIG    1       -0.370   0.038   0.258  0.00  0.00    +0.290 A 
ATOM     12  N   LIG    1        0.891  -0.297   0.347  0.00  0.00    -0.510 NA
BRANCH   7  13
ATOM     13  C   LIG    1        3.147   0.820   0.552  0.00  0.00    +0.150 C 
BRANCH  13  15
ATOM     14  C   LIG    1        5.292   0.889  -0.727  0.00  0.00    +0.030 C 
ATOM     15  C   LIG    1        3.767   0.866  -0.846  0.00  0.00    +0.010 C 
ENDBRANCH  13  15
ENDBRANCH   7  13
ENDBRANCH   1  11
BRANCH   3  16
ATOM     16  C   LIG    1       -2.262  -3.709  -2.276  0.00  0.00    +0.190 C 
ATOM     17  C   LIG    1       -0.846  -4.286  -2.303  0.00  0.00    +0.030 C 
BRANCH  16  18
ATOM     18  C   LIG    1       -2.509  -2.922  -3.537  0.00  0.00    +0.530 C 
ATOM     19  N   LIG    1       -2.647  -3.563  -4.715  0.00  0.00    -0.630 N 
ATOM     20  H   LIG    1       -2.588  -4.531  -4.750  0.00  0.00    +0.420 HD
ATOM     21  O   LIG    1       -2.582  -1.712  -3.493  0.00  0.00    -0.500 OA
BRANCH  19  22
ATOM     22  C   LIG    1       -2.875  -2.835  -5.883  0.00  0.00    +0.250 A 
ATOM     23  N   LIG    1       -3.029  -3.315  -7.089  0.00  0.00    -0.390 NA
ATOM     24  O   LIG    1       -3.212  -2.433  -7.896  0.00  0.00    +0.100 OA
ATOM     25  C   LIG    1       -3.204  -1.222  -7.319  0.00  0.00    -0.020 A 
ATOM     26  C   LIG    1       -3.398   0.104  -8.007  0.00  0.00    +0.190 C 
ATOM     27  C   LIG    1       -2.993  -1.425  -5.999  0.00  0.00    -0.040 A 
ENDBRANCH  19  22
ENDBRANCH  16  18
ENDBRANCH   3  16
TORSDOF 6
