REMARK  Name = ZINCpk00000KfLRF.1
REMARK                            x       y       z     vdW  Elec       q    Type
REMARK                         _______ _______ _______ _____ _____    ______ ____
ROOT
ATOM      1  C   LIG    1       -2.627   1.874  -0.159  0.00  0.00    +0.300 C 
ATOM      2  C   LIG    1       -2.011   1.257   1.100  0.00  0.00    +0.180 C 
ATOM      3  N   LIG    1       -0.603   1.667   1.203  0.00  0.00    -0.510 NA
ATOM      4  C   LIG    1        0.150   1.244   0.013  0.00  0.00    +0.150 C 
ATOM      5  C   LIG    1       -0.487   1.861  -1.235  0.00  0.00    +0.250 C 
ATOM      6  O   LIG    1       -1.863   1.477  -1.301  0.00  0.00    -0.370 OA
ENDROOT
BRANCH   1   9
ATOM      7  C   LIG    1       -6.208   1.398  -0.299  0.00  0.00    +0.290 A 
ATOM      8  N   LIG    1       -5.139   2.114  -0.060  0.00  0.00    -0.530 NA
ATOM      9  C   LIG    1       -4.047   1.394  -0.312  0.00  0.00    +0.230 A 
ATOM     10  N   LIG    1       -4.407   0.201  -0.708  0.00  0.00    -0.290 NA
ATOM     11  N   LIG    1       -5.811   0.180  -0.707  0.00  0.00    -0.480 N 
ATOM     12  H   LIG    1       -6.382  -0.565  -0.953  0.00  0.00    +0.440 HD
BRANCH   7  13
ATOM     13  C   LIG    1       -7.634   1.857  -0.138  0.00  0.00    +0.150 C 
BRANCH  13  15
ATOM     14  C   LIG    1       -9.599   1.910   1.404  0.00  0.00    +0.030 C 
ATOM     15  C   LIG    1       -8.151   1.444   1.242  0.00  0.00    +0.010 C 
ENDBRANCH  13  15
ENDBRANCH   7  13
ENDBRANCH   1   9
BRANCH   3  16
ATOM     16  C   LIG    1        0.012   1.142   2.429  0.00  0.00    +0.190 C 
ATOM     17  C   LIG    1       -0.262  -0.360   2.534  0.00  0.00    +0.030 C 
BRANCH  16  18
ATOM     18  C   LIG    1       -0.576   1.844   3.626  0.00  0.00    +0.530 C 
ATOM     19  N   LIG    1       -0.012   1.691   4.841  0.00  0.00    -0.630 N 
ATOM     20  H   LIG    1        0.771   1.129   4.945  0.00  0.00    +0.420 HD
ATOM     21  O   LIG    1       -1.556   2.547   3.497  0.00  0.00    -0.490 OA
BRANCH  19  22
ATOM     22  C   LIG    1       -0.556   2.341   5.949  0.00  0.00    +0.250 A 
ATOM     23  N   LIG    1       -0.122   2.289   7.181  0.00  0.00    -0.390 NA
ATOM     24  O   LIG    1       -0.804   2.961   7.920  0.00  0.00    +0.100 OA
ATOM     25  C   LIG    1       -1.805   3.563   7.261  0.00  0.00    -0.020 A 
ATOM     26  C   LIG    1       -2.851   4.473   7.850  0.00  0.00    +0.180 C 
ATOM     27  C   LIG    1       -1.689   3.197   5.964  0.00  0.00    -0.040 A 
ENDBRANCH  19  22
ENDBRANCH  16  18
ENDBRANCH   3  16
TORSDOF 6
