REMARK  Name = ZINCpk00000KfLRF.0
REMARK                            x       y       z     vdW  Elec       q    Type
REMARK                         _______ _______ _______ _____ _____    ______ ____
ROOT
ATOM      1  C   LIG    1        0.433   0.192   0.404  0.00  0.00    +0.270 C 
ATOM      2  C   LIG    1        0.952  -0.357  -0.928  0.00  0.00    +0.200 C 
ATOM      3  N   LIG    1        2.315   0.143  -1.160  0.00  0.00    -0.520 NA
ATOM      4  C   LIG    1        2.335   1.613  -1.178  0.00  0.00    +0.160 C 
ATOM      5  C   LIG    1        1.803   2.141   0.157  0.00  0.00    +0.240 C 
ATOM      6  O   LIG    1        0.490   1.620   0.380  0.00  0.00    -0.370 OA
ENDROOT
BRANCH   1  10
ATOM      7  C   LIG    1       -2.796  -1.108   1.445  0.00  0.00    +0.190 A 
ATOM      8  N   LIG    1       -3.059  -0.575   0.284  0.00  0.00    -0.290 NA
ATOM      9  N   LIG    1       -1.988  -0.061  -0.209  0.00  0.00    -0.260 NA
ATOM     10  C   LIG    1       -0.992  -0.253   0.611  0.00  0.00    +0.180 A 
ATOM     11  N   LIG    1       -1.477  -0.919   1.687  0.00  0.00    -0.570 N 
ATOM     12  H   LIG    1       -0.980  -1.203   2.470  0.00  0.00    +0.430 HD
BRANCH   7  13
ATOM     13  C   LIG    1       -3.779  -1.806   2.351  0.00  0.00    +0.150 C 
BRANCH  13  15
ATOM     14  C   LIG    1       -5.956  -1.582   3.556  0.00  0.00    +0.020 C 
ATOM     15  C   LIG    1       -4.959  -0.875   2.636  0.00  0.00    +0.020 C 
ENDBRANCH  13  15
ENDBRANCH   7  13
ENDBRANCH   1  10
BRANCH   3  16
ATOM     16  C   LIG    1        2.873  -0.406  -2.404  0.00  0.00    +0.190 C 
ATOM     17  C   LIG    1        1.848  -0.258  -3.531  0.00  0.00    +0.030 C 
BRANCH  16  18
ATOM     18  C   LIG    1        3.197  -1.865  -2.208  0.00  0.00    +0.530 C 
ATOM     19  N   LIG    1        3.987  -2.504  -3.092  0.00  0.00    -0.630 N 
ATOM     20  H   LIG    1        4.347  -2.026  -3.855  0.00  0.00    +0.420 HD
ATOM     21  O   LIG    1        2.746  -2.463  -1.254  0.00  0.00    -0.500 OA
BRANCH  19  22
ATOM     22  C   LIG    1        4.287  -3.855  -2.911  0.00  0.00    +0.250 A 
ATOM     23  N   LIG    1        5.034  -4.603  -3.680  0.00  0.00    -0.390 NA
ATOM     24  O   LIG    1        5.107  -5.734  -3.260  0.00  0.00    +0.100 OA
ATOM     25  C   LIG    1        4.401  -5.892  -2.131  0.00  0.00    -0.020 A 
ATOM     26  C   LIG    1        4.260  -7.159  -1.327  0.00  0.00    +0.190 C 
ATOM     27  C   LIG    1        3.847  -4.691  -1.851  0.00  0.00    -0.040 A 
ENDBRANCH  19  22
ENDBRANCH  16  18
ENDBRANCH   3  16
TORSDOF 6
