REMARK  Name = ZINCrH000004tPTX.1
REMARK                            x       y       z     vdW  Elec       q    Type
REMARK                         _______ _______ _______ _____ _____    ______ ____
ROOT
ATOM      1  O   LIG    1       -5.172  -0.940  -1.357  0.00  0.00    -0.510 OA
ATOM      2  C   LIG    1       -5.074   0.246  -1.124  0.00  0.00    +0.520 C 
ATOM      3  N   LIG    1       -6.141   0.935  -0.672  0.00  0.00    -0.720 N 
ATOM      4  H   LIG    1       -6.062   1.884  -0.487  0.00  0.00    +0.410 HD
ENDROOT
BRANCH   3   5
ATOM      5  C   LIG    1       -7.419   0.251  -0.462  0.00  0.00    +0.290 C 
BRANCH   5   6
ATOM      6  C   LIG    1       -8.455   1.254   0.050  0.00  0.00    +0.270 C 
BRANCH   6   7
ATOM      7  N   LIG    1       -8.543   2.386  -0.881  0.00  0.00    -0.510 NA
ATOM      8  C   LIG    1       -8.768   1.915  -2.272  0.00  0.00    +0.170 C 
ATOM      9  C   LIG    1       -9.348   3.165  -2.981  0.00  0.00    +0.020 C 
ATOM     10  C   LIG    1      -10.243   3.797  -1.890  0.00  0.00    +0.010 C 
ATOM     11  C   LIG    1       -9.699   3.251  -0.557  0.00  0.00    +0.160 C 
ENDBRANCH   6   7
BRANCH   6  12
ATOM     12  C   LIG    1       -9.799   0.579   0.150  0.00  0.00    -0.050 A 
ATOM     13  C   LIG    1      -10.417   0.221   1.290  0.00  0.00    -0.040 A 
ATOM     14  C   LIG    1      -11.645  -0.375   0.921  0.00  0.00    -0.060 A 
ATOM     15  C   LIG    1      -11.704  -0.344  -0.422  0.00  0.00    +0.160 A 
ATOM     16  O   LIG    1      -10.587   0.240  -0.884  0.00  0.00    -0.170 OA
ENDBRANCH   6  12
ENDBRANCH   5   6
ENDBRANCH   3   5
BRANCH   2  17
ATOM     17  C   LIG    1       -3.759   0.950  -1.341  0.00  0.00    +0.230 C 
BRANCH  17  18
ATOM     18  O   LIG    1       -2.791   0.014  -1.819  0.00  0.00    -0.290 OA
BRANCH  18  19
ATOM     19  C   LIG    1       -1.543   0.490  -2.067  0.00  0.00    +0.130 A 
ATOM     20  C   LIG    1       -0.577  -0.359  -2.526  0.00  0.00    -0.010 A 
ATOM     21  C   LIG    1        0.713   0.133  -2.788  0.00  0.00    -0.010 A 
ATOM     22  C   LIG    1        1.731  -0.710  -3.266  0.00  0.00    +0.020 A 
ATOM     23  C   LIG    1        2.969  -0.199  -3.509  0.00  0.00    +0.020 A 
ATOM     24  C   LIG    1        3.244   1.150  -3.291  0.00  0.00    -0.010 A 
ATOM     25  C   LIG    1        2.283   1.995  -2.828  0.00  0.00    +0.040 A 
ATOM     26  C   LIG    1        0.993   1.505  -2.566  0.00  0.00    -0.080 A 
ATOM     27  C   LIG    1       -0.025   2.349  -2.088  0.00  0.00    +0.070 A 
ATOM     28  C   LIG    1       -1.263   1.842  -1.844  0.00  0.00    -0.060 A 
ENDBRANCH  18  19
ENDBRANCH  17  18
ENDBRANCH   2  17
TORSDOF 7
