REMARK  Name = ZINCc70000006loD.0
REMARK                            x       y       z     vdW  Elec       q    Type
REMARK                         _______ _______ _______ _____ _____    ______ ____
ROOT
ATOM      1  C   LIG    1        0.771  -0.508  -1.251  0.00  0.00    -0.070 C 
ATOM      2  C   LIG    1       -0.161  -0.209  -0.072  0.00  0.00    +0.030 C 
ATOM      3  C   LIG    1       -0.574   1.266  -0.123  0.00  0.00    +0.030 C 
ATOM      4  C   LIG    1        0.682   2.140  -0.108  0.00  0.00    +0.210 C 
ATOM      5  O   LIG    1        1.519   1.790  -1.212  0.00  0.00    -0.340 OA
ATOM      6  C   LIG    1        1.975   0.436  -1.192  0.00  0.00    +0.230 C 
ENDROOT
BRANCH   1   8
ATOM      7  C   LIG    1        2.237  -2.143  -2.215  0.00  0.00    +0.310 C 
ATOM      8  N   LIG    1        1.233  -1.900  -1.170  0.00  0.00    -0.360 N 
ATOM      9  C   LIG    1        1.831  -2.141   0.150  0.00  0.00    +0.290 C 
ATOM     10  H   LIG    1        0.451  -2.522  -1.304  0.00  0.00    +0.430 HD
ENDBRANCH   1   8
BRANCH   1  11
ATOM     11  C   LIG    1        0.029  -0.296  -2.545  0.00  0.00    +0.500 C 
ATOM     12  O   LIG    1       -0.225  -1.247  -3.265  0.00  0.00    -0.680 OA
ATOM     13  O   LIG    1       -0.318   0.826  -2.873  0.00  0.00    -0.610 OA
ENDBRANCH   1  11
TORSDOF 2
