REMARK  Name = ZINCtV000002tTNC.0
REMARK                            x       y       z     vdW  Elec       q    Type
REMARK                         _______ _______ _______ _____ _____    ______ ____
ROOT
ATOM      1  N   LIG    1       -5.189   3.428   1.562  0.00  0.00    -0.590 N 
ATOM      2  C   LIG    1       -4.048   3.970   2.034  0.00  0.00    +0.520 C 
ATOM      3  O   LIG    1       -4.094   4.941   2.760  0.00  0.00    -0.510 OA
ENDROOT
BRANCH   1   7
ATOM      4  C   LIG    1       -7.998   1.818   0.243  0.00  0.00    -0.020 C 
ATOM      5  C   LIG    1       -7.410   1.571   1.633  0.00  0.00    +0.010 C 
ATOM      6  C   LIG    1       -5.958   1.107   1.498  0.00  0.00    +0.010 C 
ATOM      7  C   LIG    1       -5.142   2.188   0.784  0.00  0.00    +0.230 C 
ATOM      8  C   LIG    1       -5.731   2.435  -0.606  0.00  0.00    +0.020 C 
ATOM      9  C   LIG    1       -7.182   2.898  -0.471  0.00  0.00    +0.010 C 
BRANCH   4  11
ATOM     10  C   LIG    1      -10.294   1.147   0.962  0.00  0.00    +0.000 C 
ATOM     11  C   LIG    1       -9.450   2.281   0.379  0.00  0.00    +0.000 C 
ENDBRANCH   4  11
ENDBRANCH   1   7
BRANCH   1  12
ATOM     12  C   LIG    1       -6.474   4.079   1.827  0.00  0.00    +0.290 C 
ATOM     13  C   LIG    1       -6.471   5.482   1.216  0.00  0.00    +0.030 C 
BRANCH  12  14
ATOM     14  C   LIG    1       -6.688   4.180   3.315  0.00  0.00    -0.090 A 
ATOM     15  C   LIG    1       -6.170   3.212   4.155  0.00  0.00    +0.050 A 
ATOM     16  C   LIG    1       -6.361   3.307   5.521  0.00  0.00    -0.020 A 
ATOM     17  C   LIG    1       -7.082   4.366   6.046  0.00  0.00    +0.100 A 
ATOM     18  C   LIG    1       -7.606   5.331   5.204  0.00  0.00    -0.020 A 
ATOM     19  F   LIG    1       -7.274   4.456   7.381  0.00  0.00    -0.140 F 
ATOM     20  C   LIG    1       -7.409   5.237   3.839  0.00  0.00    +0.050 A 
ENDBRANCH  12  14
ENDBRANCH   1  12
BRANCH   2  21
ATOM     21  C   LIG    1       -2.717   3.371   1.659  0.00  0.00    +0.070 C 
ATOM     22  C   LIG    1       -1.604   4.381   1.948  0.00  0.00    +0.070 C 
BRANCH  21  23
ATOM     23  C   LIG    1       -2.484   2.121   2.468  0.00  0.00    -0.200 A 
ATOM     24  C   LIG    1       -2.180   0.881   2.017  0.00  0.00    -0.020 A 
ATOM     25  O   LIG    1       -2.066   0.100   3.101  0.00  0.00    +0.100 OA
ATOM     26  N   LIG    1       -2.263   0.722   4.119  0.00  0.00    -0.360 NA
ATOM     27  C   LIG    1       -2.005   0.461   0.580  0.00  0.00    +0.190 C 
ATOM     28  C   LIG    1       -2.525   1.973   3.873  0.00  0.00    +0.040 A 
ATOM     29  C   LIG    1       -2.816   3.050   4.886  0.00  0.00    +0.150 C 
ENDBRANCH  21  23
ENDBRANCH   2  21
TORSDOF 6
