REMARK  Name = ZINCrg000009DEsE.0
REMARK                            x       y       z     vdW  Elec       q    Type
REMARK                         _______ _______ _______ _____ _____    ______ ____
ROOT
ATOM      1  C   LIG    1        3.972  -0.060   3.476  0.00  0.00    +0.570 C 
ATOM      2  N   LIG    1        3.566   1.206   3.253  0.00  0.00    -0.620 N 
ATOM      3  C   LIG    1        2.256   1.485   2.644  0.00  0.00    +0.320 C 
ATOM      4  C   LIG    1        1.385   2.247   3.648  0.00  0.00    +0.330 C 
ATOM      5  N   LIG    1        2.174   3.323   4.253  0.00  0.00    -0.350 N 
ATOM      6  N   LIG    1        1.694   4.450   4.926  0.00  0.00    -0.280 NA
ATOM      7  C   LIG    1        2.723   5.156   5.327  0.00  0.00    +0.350 A 
ATOM      8  C   LIG    1        3.891   4.504   4.910  0.00  0.00    -0.790 A 
ATOM      9  C   LIG    1        3.526   3.386   4.255  0.00  0.00    +0.180 A 
ATOM     10  C   LIG    1        4.420   2.353   3.612  0.00  0.00    +0.390 C 
ATOM     11  O   LIG    1        3.213  -0.987   3.270  0.00  0.00    -0.510 OA
ENDROOT
BRANCH   1  15
ATOM     12  C   LIG    1        7.903  -0.808   4.899  0.00  0.00    +0.170 A 
ATOM     13  C   LIG    1        6.864  -1.667   5.244  0.00  0.00    +0.020 A 
ATOM     14  C   LIG    1        5.589  -1.428   4.785  0.00  0.00    +0.090 A 
ATOM     15  C   LIG    1        5.338  -0.320   3.971  0.00  0.00    -0.140 A 
ATOM     16  C   LIG    1        6.384   0.539   3.622  0.00  0.00    +0.050 A 
ATOM     17  C   LIG    1        7.656   0.296   4.088  0.00  0.00    +0.030 A 
BRANCH  12  19
ATOM     18  C   LIG    1       10.162  -1.423   4.505  0.00  0.00    +0.550 C 
ATOM     19  N   LIG    1        9.193  -1.054   5.366  0.00  0.00    -0.580 N 
ATOM     20  C   LIG    1        9.495  -0.909   6.792  0.00  0.00    +0.310 C 
ATOM     21  O   LIG    1        9.891  -1.636   3.339  0.00  0.00    -0.520 OA
BRANCH  18  23
ATOM     22  C   LIG    1       12.504  -1.935   4.128  0.00  0.00    +0.160 C 
ATOM     23  C   LIG    1       11.547  -1.570   4.977  0.00  0.00    -0.090 C 
ENDBRANCH  18  23
ENDBRANCH  12  19
ENDBRANCH   1  15
BRANCH   8  24
ATOM     24  S   LIG    1        5.542   5.047   5.197  0.00  0.00    +2.530 S 
ATOM     25  O   LIG    1        6.153   5.005   3.915  0.00  0.00    -0.940 OA
ATOM     26  O   LIG    1        5.391   6.274   5.897  0.00  0.00    -0.930 OA
ATOM     27  C   LIG    1        6.253   3.779   6.282  0.00  0.00    -0.260 C 
ENDBRANCH   8  24
TORSDOF 4
