REMARK  Name = ZINCrg000000sfCS.0
REMARK                            x       y       z     vdW  Elec       q    Type
REMARK                         _______ _______ _______ _____ _____    ______ ____
ROOT
ATOM      1  N   LIG    1       -0.242   1.246   2.466  0.00  0.00    -0.590 N 
ATOM      2  C   LIG    1       -0.718   1.572   1.248  0.00  0.00    +0.500 C 
ATOM      3  O   LIG    1       -1.714   2.256   1.150  0.00  0.00    -0.520 OA
ENDROOT
BRANCH   1   4
ATOM      4  C   LIG    1       -0.927   1.718   3.671  0.00  0.00    +0.350 C 
BRANCH   4  10
ATOM      5  C   LIG    1       -2.219  -2.349   6.285  0.00  0.00    +0.100 C 
ATOM      6  C   LIG    1       -2.585  -1.236   5.337  0.00  0.00    -0.090 A 
ATOM      7  C   LIG    1       -3.874  -1.142   4.847  0.00  0.00    +0.000 A 
ATOM      8  C   LIG    1       -4.210  -0.121   3.977  0.00  0.00    +0.000 A 
ATOM      9  C   LIG    1       -3.258   0.807   3.600  0.00  0.00    +0.030 A 
ATOM     10  C   LIG    1       -1.967   0.709   4.086  0.00  0.00    -0.110 A 
ATOM     11  C   LIG    1       -1.631  -0.310   4.956  0.00  0.00    +0.010 A 
ENDBRANCH   4  10
ENDBRANCH   1   4
BRANCH   2  12
ATOM     12  C   LIG    1       -0.013   1.086   0.008  0.00  0.00    +0.350 C 
BRANCH  12  13
ATOM     13  N   LIG    1       -0.721   1.571  -1.179  0.00  0.00    -0.390 N 
ATOM     14  N   LIG    1       -1.740   0.789  -1.726  0.00  0.00    -0.500 N 
ATOM     15  H   LIG    1       -1.957  -0.059  -1.309  0.00  0.00    +0.430 HD
ATOM     16  C   LIG    1       -2.430   1.177  -2.816  0.00  0.00    +0.570 A 
ATOM     17  C   LIG    1       -2.107   2.469  -3.460  0.00  0.00    -0.110 A 
ATOM     18  C   LIG    1       -2.789   2.911  -4.585  0.00  0.00    +0.090 A 
ATOM     19  C   LIG    1       -2.452   4.128  -5.154  0.00  0.00    +0.040 A 
ATOM     20  C   LIG    1       -1.443   4.902  -4.612  0.00  0.00    +0.040 A 
ATOM     21  C   LIG    1       -0.753   4.475  -3.490  0.00  0.00    +0.090 A 
ATOM     22  C   LIG    1       -1.079   3.259  -2.908  0.00  0.00    -0.100 A 
ATOM     23  O   LIG    1       -3.310   0.471  -3.267  0.00  0.00    -0.510 OA
ATOM     24  C   LIG    1       -0.374   2.761  -1.706  0.00  0.00    +0.570 A 
ATOM     25  O   LIG    1        0.515   3.419  -1.201  0.00  0.00    -0.510 OA
ENDBRANCH  12  13
ENDBRANCH   2  12
BRANCH   1  26
ATOM     26  C   LIG    1        0.962   0.419   2.584  0.00  0.00    +0.280 C 
BRANCH  26  27
ATOM     27  C   LIG    1        2.198   1.321   2.624  0.00  0.00    +0.160 C 
BRANCH  27  28
ATOM     28  O   LIG    1        2.168   2.117   3.810  0.00  0.00    -0.570 OA
ATOM     29  H   LIG    1        2.923   2.714   3.901  0.00  0.00    +0.380 HD
ENDBRANCH  27  28
ENDBRANCH  26  27
ENDBRANCH   1  26
TORSDOF 7
