REMARK  Name = ZINCtV000002qLqy.0
REMARK                            x       y       z     vdW  Elec       q    Type
REMARK                         _______ _______ _______ _____ _____    ______ ____
ROOT
ATOM      1  C   LIG    1       -4.752  -3.635   1.720  0.00  0.00    +0.230 A 
ATOM      2  N   LIG    1       -4.546  -3.464   0.437  0.00  0.00    -0.260 NA
ATOM      3  N   LIG    1       -3.532  -2.692   0.266  0.00  0.00    -0.280 NA
ATOM      4  C   LIG    1       -3.049  -2.339   1.435  0.00  0.00    +0.120 A 
ATOM      5  O   LIG    1       -3.805  -2.931   2.379  0.00  0.00    -0.200 OA
ENDROOT
BRANCH   1   9
ATOM      6  C   LIG    1       -7.820  -5.985   3.481  0.00  0.00    -0.040 A 
ATOM      7  C   LIG    1       -7.726  -5.897   2.104  0.00  0.00    +0.020 A 
ATOM      8  C   LIG    1       -6.731  -5.135   1.525  0.00  0.00    +0.080 A 
ATOM      9  C   LIG    1       -5.820  -4.453   2.333  0.00  0.00    -0.040 A 
ATOM     10  C   LIG    1       -5.917  -4.551   3.722  0.00  0.00    +0.050 A 
ATOM     11  C   LIG    1       -6.920  -5.311   4.287  0.00  0.00    +0.020 A 
BRANCH   6  13
ATOM     12  C   LIG    1       -8.765  -8.271   3.650  0.00  0.00    +0.040 C 
ATOM     13  C   LIG    1       -8.909  -6.818   4.106  0.00  0.00    -0.030 C 
ATOM     14  C   LIG    1      -10.275  -6.281   3.673  0.00  0.00    +0.040 C 
ATOM     15  C   LIG    1       -8.794  -6.748   5.630  0.00  0.00    +0.030 C 
ENDBRANCH   6  13
ENDBRANCH   1   9
BRANCH   4  16
ATOM     16  S   LIG    1       -1.663  -1.289   1.718  0.00  0.00    +0.120 S 
BRANCH  16  17
ATOM     17  C   LIG    1       -1.198  -0.916   0.009  0.00  0.00    +0.260 C 
BRANCH  17  18
ATOM     18  C   LIG    1        0.002  -0.004   0.002  0.00  0.00    +0.190 A 
ATOM     19  N   LIG    1        1.259  -0.373  -0.012  0.00  0.00    -0.440 NA
ATOM     20  C   LIG    1        1.974   0.775  -0.013  0.00  0.00    +0.220 A 
ATOM     21  N   LIG    1        1.118   1.763   0.001  0.00  0.00    -0.360 NA
ATOM     22  O   LIG    1       -0.016   1.333   0.009  0.00  0.00    +0.100 OA
BRANCH  20  23
ATOM     23  C   LIG    1        3.454   0.891  -0.025  0.00  0.00    -0.020 A 
ATOM     24  C   LIG    1        4.056   2.147  -0.025  0.00  0.00    +0.060 A 
ATOM     25  C   LIG    1        5.433   2.251  -0.036  0.00  0.00    +0.030 A 
ATOM     26  C   LIG    1        6.214   1.110  -0.048  0.00  0.00    +0.050 A 
ATOM     27  C   LIG    1        5.621  -0.141  -0.049  0.00  0.00    -0.040 A 
ATOM     28 CL   LIG    1        6.609  -1.569  -0.064  0.00  0.00    -0.060 Cl
ATOM     29  C   LIG    1        4.245  -0.256  -0.033  0.00  0.00    +0.080 A 
ENDBRANCH  20  23
ENDBRANCH  17  18
ENDBRANCH  16  17
ENDBRANCH   4  16
TORSDOF 6
