REMARK  Name = ZINCtV00001bB3aM.0
REMARK                            x       y       z     vdW  Elec       q    Type
REMARK                         _______ _______ _______ _____ _____    ______ ____
ROOT
ATOM      1  C   LIG    1        0.165  -6.763  -0.172  0.00  0.00    +0.110 A 
ATOM      2  C   LIG    1        1.117  -5.816  -0.039  0.00  0.00    -0.050 A 
ATOM      3  S   LIG    1        0.321  -4.255   0.146  0.00  0.00    +0.130 S 
ATOM      4  C   LIG    1       -1.250  -5.043   0.033  0.00  0.00    +0.120 A 
ATOM      5  N   LIG    1       -1.079  -6.324  -0.130  0.00  0.00    -0.430 NA
ENDROOT
BRANCH   1   9
ATOM      6  C   LIG    1        1.031 -10.870  -0.613  0.00  0.00    +0.170 A 
ATOM      7  N   LIG    1        0.118 -10.450   0.249  0.00  0.00    -0.490 NA
ATOM      8  C   LIG    1       -0.164  -9.172   0.399  0.00  0.00    +0.210 A 
ATOM      9  C   LIG    1        0.494  -8.198  -0.352  0.00  0.00    -0.080 A 
ATOM     10  C   LIG    1        1.461  -8.589  -1.280  0.00  0.00    +0.160 A 
ATOM     11  C   LIG    1       -1.213  -8.755   1.397  0.00  0.00    +0.150 C 
ATOM     12  C   LIG    1        1.740  -9.952  -1.409  0.00  0.00    -0.070 A 
BRANCH  12  13
ATOM     13  C   LIG    1        2.727 -10.407  -2.341  0.00  0.00    +0.250 C 
ATOM     14  N   LIG    1        3.511 -10.769  -3.080  0.00  0.00    -0.390 NA
ENDBRANCH  12  13
BRANCH   6  15
ATOM     15  S   LIG    1        1.361 -12.594  -0.765  0.00  0.00    -0.040 S 
BRANCH  15  17
ATOM     16  C   LIG    1        0.304 -14.771   0.504  0.00  0.00    +0.080 C 
ATOM     17  C   LIG    1        0.195 -13.246   0.457  0.00  0.00    +0.100 C 
ENDBRANCH  15  17
ENDBRANCH   6  15
ENDBRANCH   1   9
BRANCH   4  18
ATOM     18  C   LIG    1       -2.553  -4.360   0.105  0.00  0.00    -0.030 C 
ATOM     19  C   LIG    1       -3.462  -4.495  -0.926  0.00  0.00    +0.180 C 
BRANCH  19  20
ATOM     20  C   LIG    1       -3.177  -5.348  -2.007  0.00  0.00    -0.030 C 
ATOM     21  C   LIG    1       -4.109  -5.557  -2.969  0.00  0.00    +0.100 C 
BRANCH  21  22
ATOM     22  C   LIG    1       -3.811  -6.449  -4.099  0.00  0.00    -0.080 A 
ATOM     23  C   LIG    1       -4.770  -6.667  -5.095  0.00  0.00    +0.040 A 
ATOM     24  C   LIG    1       -4.482  -7.505  -6.151  0.00  0.00    +0.010 A 
ATOM     25  C   LIG    1       -3.249  -8.128  -6.229  0.00  0.00    +0.020 A 
ATOM     26  C   LIG    1       -2.295  -7.917  -5.249  0.00  0.00    +0.000 A 
ATOM     27  C   LIG    1       -2.566  -7.083  -4.186  0.00  0.00    +0.040 A 
ENDBRANCH  21  22
ENDBRANCH  19  20
BRANCH  18  28
ATOM     28  C   LIG    1       -2.877  -3.555   1.245  0.00  0.00    +0.250 C 
ATOM     29  N   LIG    1       -3.134  -2.917   2.148  0.00  0.00    -0.400 NA
ENDBRANCH  18  28
ENDBRANCH   4  18
TORSDOF 8
