REMARK  Name = ZINCrD00000hQ7ql.0
REMARK                            x       y       z     vdW  Elec       q    Type
REMARK                         _______ _______ _______ _____ _____    ______ ____
ROOT
ATOM      1  C   LIG    1        7.492   1.088  -0.065  0.00  0.00    +0.380 A 
ATOM      2  C   LIG    1        6.495   0.117  -0.061  0.00  0.00    -0.050 A 
ATOM      3  C   LIG    1        5.172   0.509  -0.043  0.00  0.00    +0.120 A 
ATOM      4  C   LIG    1        4.883   1.880  -0.038  0.00  0.00    -0.120 A 
ATOM      5  C   LIG    1        5.938   2.794  -0.043  0.00  0.00    +0.360 A 
ATOM      6  N   LIG    1        7.186   2.377  -0.055  0.00  0.00    -0.480 NA
ENDROOT
BRANCH   4   7
ATOM      7  C   LIG    1        3.483   2.352  -0.024  0.00  0.00    +0.170 A 
ATOM      8  N   LIG    1        3.122   3.591  -0.013  0.00  0.00    -0.460 NA
ATOM      9  C   LIG    1        1.806   3.864  -0.000  0.00  0.00    +0.090 A 
ATOM     10  C   LIG    1        1.163   5.121   0.012  0.00  0.00    +0.080 A 
ATOM     11  C   LIG    1       -0.196   5.203   0.030  0.00  0.00    +0.030 A 
ATOM     12  C   LIG    1       -0.977   4.056   0.026  0.00  0.00    +0.040 A 
ATOM     13  C   LIG    1       -0.378   2.816   0.013  0.00  0.00    +0.060 A 
ATOM     14  C   LIG    1        1.011   2.712   0.000  0.00  0.00    -0.170 A 
ATOM     15  S   LIG    1        2.071   1.304  -0.017  0.00  0.00    +0.060 S 
ENDBRANCH   4   7
BRANCH   1  18
ATOM     16  O   LIG    1        9.514   2.808  -0.175  0.00  0.00    -0.440 OA
ATOM     17  C   LIG    1        9.800   1.629  -0.184  0.00  0.00    +0.490 C 
ATOM     18  N   LIG    1        8.829   0.700  -0.078  0.00  0.00    -0.660 N 
ATOM     19  H   LIG    1        9.062  -0.239  -0.010  0.00  0.00    +0.420 HD
BRANCH  17  20
ATOM     20  C   LIG    1       11.239   1.203  -0.314  0.00  0.00    +0.210 C 
ATOM     21  O   LIG    1       12.110   2.361  -0.379  0.00  0.00    -0.350 OA
ATOM     22  C   LIG    1       12.354   2.704  -1.768  0.00  0.00    +0.220 C 
ATOM     23  C   LIG    1       11.513   1.742  -2.592  0.00  0.00    -0.080 C 
ATOM     24  C   LIG    1       12.054   1.255  -3.917  0.00  0.00    +0.240 C 
ATOM     25  O   LIG    1       11.095   0.310  -4.427  0.00  0.00    -0.380 OA
ATOM     26  C   LIG    1       10.787  -0.809  -3.603  0.00  0.00    +0.220 C 
ATOM     27  C   LIG    1       10.364  -0.387  -2.184  0.00  0.00    +0.020 C 
ATOM     28  C   LIG    1       11.473   0.498  -1.649  0.00  0.00    -0.020 C 
ENDBRANCH  17  20
ENDBRANCH   1  18
TORSDOF 3
