REMARK  Name = ZINCqH0000006Jis.0
REMARK                            x       y       z     vdW  Elec       q    Type
REMARK                         _______ _______ _______ _____ _____    ______ ____
ROOT
ATOM      1  N   LIG    1        0.165   5.991  -0.397  0.00  0.00    -0.660 N 
ATOM      2  H   LIG    1        0.032   6.948  -0.314  0.00  0.00    +0.410 HD
ATOM      3  C   LIG    1        0.873   5.497  -1.432  0.00  0.00    +0.560 C 
ATOM      4  O   LIG    1        0.970   4.294  -1.583  0.00  0.00    -0.510 OA
ENDROOT
BRANCH   1   8
ATOM      5  C   LIG    1       -1.455   3.410   2.452  0.00  0.00    +0.090 A 
ATOM      6  C   LIG    1       -0.983   4.655   2.833  0.00  0.00    -0.020 A 
ATOM      7  C   LIG    1       -0.449   5.512   1.889  0.00  0.00    -0.110 A 
ATOM      8  C   LIG    1       -0.377   5.123   0.558  0.00  0.00    +0.140 A 
ATOM      9  C   LIG    1       -0.843   3.872   0.174  0.00  0.00    -0.010 A 
ATOM     10  C   LIG    1        0.057   6.869   2.304  0.00  0.00    +0.090 C 
ATOM     11  C   LIG    1       -1.379   3.014   1.120  0.00  0.00    +0.110 A 
BRANCH   5  13
ATOM     12  C   LIG    1       -2.033   3.041   4.730  0.00  0.00    +0.230 C 
ATOM     13  O   LIG    1       -1.986   2.570   3.382  0.00  0.00    -0.310 OA
ENDBRANCH   5  13
BRANCH  11  14
ATOM     14  O   LIG    1       -1.836   1.789   0.746  0.00  0.00    -0.300 OA
ATOM     15  C   LIG    1       -1.732   1.452  -0.638  0.00  0.00    +0.240 C 
ENDBRANCH  11  14
ENDBRANCH   1   8
BRANCH   3  16
ATOM     16  C   LIG    1        1.529   6.416  -2.384  0.00  0.00    -0.140 A 
ATOM     17  C   LIG    1        1.413   7.798  -2.216  0.00  0.00    +0.080 A 
ATOM     18  C   LIG    1        2.029   8.652  -3.102  0.00  0.00    +0.000 A 
ATOM     19  C   LIG    1        2.759   8.140  -4.170  0.00  0.00    +0.190 A 
ATOM     20  C   LIG    1        2.872   6.766  -4.343  0.00  0.00    +0.020 A 
ATOM     21  C   LIG    1        2.262   5.905  -3.458  0.00  0.00    +0.120 A 
BRANCH  19  22
ATOM     22  N   LIG    1        3.379   9.011  -5.072  0.00  0.00    -0.340 N 
ATOM     23  N   LIG    1        4.605   8.797  -5.715  0.00  0.00    -0.290 NA
ATOM     24  C   LIG    1        4.852   9.829  -6.480  0.00  0.00    +0.250 A 
ATOM     25  C   LIG    1        3.795  10.737  -6.351  0.00  0.00    -0.100 A 
ATOM     26  C   LIG    1        2.897  10.212  -5.485  0.00  0.00    +0.090 A 
ATOM     27  C   LIG    1        1.600  10.846  -5.054  0.00  0.00    +0.160 C 
ENDBRANCH  19  22
ENDBRANCH   3  16
TORSDOF 5
