REMARK  Name = ZINCzw00000009SX.0
REMARK                            x       y       z     vdW  Elec       q    Type
REMARK                         _______ _______ _______ _____ _____    ______ ____
ROOT
ATOM      1  C   LIG    1       -1.671   5.783  -3.529  0.00  0.00    +0.210 A 
ATOM      2  N   LIG    1       -1.807   5.270  -4.726  0.00  0.00    -0.370 NA
ATOM      3  O   LIG    1       -2.055   6.146  -5.528  0.00  0.00    +0.090 OA
ATOM      4  C   LIG    1       -2.103   7.332  -4.912  0.00  0.00    +0.200 A 
ATOM      5  N   LIG    1       -1.867   7.117  -3.642  0.00  0.00    -0.440 NA
ENDROOT
BRANCH   1  19
ATOM      6  O   LIG    1       -1.394   6.931  -0.998  0.00  0.00    -0.470 OA
ATOM      7  C   LIG    1       -1.246   5.722  -1.049  0.00  0.00    +0.530 A 
ATOM      8  N   LIG    1       -0.967   5.028   0.068  0.00  0.00    -0.600 N 
ATOM      9  H   LIG    1       -0.888   5.501   0.911  0.00  0.00    +0.430 HD
ATOM     10  C   LIG    1       -0.792   3.677   0.045  0.00  0.00    +0.200 A 
ATOM     11  C   LIG    1       -0.904   2.987  -1.113  0.00  0.00    -0.240 A 
ATOM     12  C   LIG    1       -0.726   1.493  -1.175  0.00  0.00    +0.360 C 
ATOM     13  N   LIG    1       -0.012   1.005   0.008  0.00  0.00    -0.510 N 
ATOM     14  C   LIG    1       -0.706   1.482   1.214  0.00  0.00    +0.290 C 
ATOM     15  H   LIG    1        0.934   1.356   0.000  0.00  0.00    +0.430 HD
ATOM     16  H   LIG    1        0.002  -0.004   0.002  0.00  0.00    +0.440 HD
ATOM     17  C   LIG    1       -1.194   3.667  -2.306  0.00  0.00    +0.180 A 
ATOM     18  C   LIG    1       -0.468   2.986   1.346  0.00  0.00    +0.140 C 
ATOM     19  C   LIG    1       -1.367   5.040  -2.284  0.00  0.00    -0.110 A 
ENDBRANCH   1  19
BRANCH   4  20
ATOM     20  C   LIG    1       -2.382   8.665  -5.557  0.00  0.00    +0.140 C 
ATOM     21  C   LIG    1       -3.765   8.635  -6.210  0.00  0.00    +0.040 C 
ATOM     22  C   LIG    1       -4.060  10.002  -6.835  0.00  0.00    +0.310 C 
ATOM     23  N   LIG    1       -2.967  10.348  -7.753  0.00  0.00    -1.000 NA
ATOM     24  C   LIG    1       -1.587  10.319  -7.251  0.00  0.00    +0.310 C 
ATOM     25  C   LIG    1       -1.319   8.948  -6.622  0.00  0.00    +0.030 C 
BRANCH  23  26
ATOM     26  S   LIG    1       -3.284  10.764  -9.325  0.00  0.00    +2.690 S 
ATOM     27  O   LIG    1       -2.181  11.544  -9.764  0.00  0.00    -0.940 OA
ATOM     28  O   LIG    1       -4.626  11.230  -9.353  0.00  0.00    -0.940 OA
BRANCH  26  29
ATOM     29  C   LIG    1       -3.253   9.279 -10.273  0.00  0.00    -0.680 A 
ATOM     30  C   LIG    1       -4.412   8.546 -10.448  0.00  0.00    +0.160 A 
ATOM     31  C   LIG    1       -4.388   7.381 -11.192  0.00  0.00    +0.010 A 
ATOM     32  C   LIG    1       -3.204   6.949 -11.761  0.00  0.00    +0.130 A 
ATOM     33  C   LIG    1       -2.045   7.682 -11.586  0.00  0.00    -0.200 A 
ATOM     34  C   LIG    1       -2.071   8.850 -10.847  0.00  0.00    +0.180 A 
BRANCH  33  35
ATOM     35  C   LIG    1       -0.755   7.212 -12.207  0.00  0.00    +0.510 C 
ATOM     36  F   LIG    1        0.192   6.990 -11.202  0.00  0.00    -0.170 F 
ATOM     37  F   LIG    1       -0.280   8.187 -13.090  0.00  0.00    -0.170 F 
ATOM     38  F   LIG    1       -0.981   6.021 -12.906  0.00  0.00    -0.170 F 
ENDBRANCH  33  35
ENDBRANCH  26  29
ENDBRANCH  23  26
ENDBRANCH   4  20
TORSDOF 5
