REMARK  Name = ZINCrH00000tj0N8.0
REMARK                            x       y       z     vdW  Elec       q    Type
REMARK                         _______ _______ _______ _____ _____    ______ ____
ROOT
ATOM      1  N   LIG    1        1.143   1.903   0.001  0.00  0.00    -0.720 N 
ATOM      2  H   LIG    1        1.130   2.873   0.007  0.00  0.00    +0.410 HD
ATOM      3  C   LIG    1       -0.014   1.214   0.009  0.00  0.00    +0.600 C 
ATOM      4  O   LIG    1        0.002  -0.004   0.002  0.00  0.00    -0.520 OA
ENDROOT
BRANCH   3   5
ATOM      5  C   LIG    1       -1.252   1.906   0.018  0.00  0.00    -0.260 A 
ATOM      6  C   LIG    1       -2.477   1.313   0.015  0.00  0.00    +0.170 A 
ATOM      7  C   LIG    1       -3.549   2.186   0.030  0.00  0.00    -0.020 A 
ATOM      8  C   LIG    1       -3.183   3.519   0.035  0.00  0.00    +0.010 A 
ATOM      9  N   LIG    1       -4.308   4.258   0.044  0.00  0.00    -0.420 NA
ATOM     10  C   LIG    1       -5.356   3.465   0.045  0.00  0.00    +0.210 A 
ATOM     11  S   LIG    1       -7.128   3.432   0.053  0.00  0.00    +0.190 S 
ATOM     12  C   LIG    1       -7.229   1.662   0.044  0.00  0.00    +0.010 A 
ATOM     13  C   LIG    1       -5.979   1.235   0.036  0.00  0.00    +0.230 A 
ATOM     14  N   LIG    1       -4.965   2.163   0.036  0.00  0.00    -0.410 N 
ATOM     15  S   LIG    1       -1.428   3.653   0.028  0.00  0.00    +0.260 S 
ENDBRANCH   3   5
BRANCH   1  16
ATOM     16  C   LIG    1        2.422   1.188  -0.015  0.00  0.00    +0.360 C 
BRANCH  16  17
ATOM     17  C   LIG    1        3.495   2.064   0.580  0.00  0.00    +0.130 A 
ATOM     18  N   LIG    1        3.693   3.330   0.318  0.00  0.00    -0.230 NA
ATOM     19  N   LIG    1        4.691   3.775   0.999  0.00  0.00    -0.280 NA
ATOM     20  C   LIG    1        5.193   2.798   1.736  0.00  0.00    +0.200 A 
ATOM     21  C   LIG    1        6.266   2.724   2.645  0.00  0.00    +0.080 A 
ATOM     22  C   LIG    1        6.536   1.541   3.259  0.00  0.00    +0.070 A 
ATOM     23  C   LIG    1        5.744   0.414   2.980  0.00  0.00    +0.030 A 
ATOM     24  C   LIG    1        4.719   0.500   2.107  0.00  0.00    +0.230 A 
ATOM     25  N   LIG    1        4.437   1.680   1.484  0.00  0.00    -0.380 N 
ENDBRANCH  16  17
BRANCH  16  27
ATOM     26  C   LIG    1        4.127   0.090  -1.474  0.00  0.00    +0.030 C 
ATOM     27  C   LIG    1        2.792   0.837  -1.457  0.00  0.00    -0.010 C 
ATOM     28  C   LIG    1        1.703  -0.051  -2.061  0.00  0.00    +0.050 C 
ENDBRANCH  16  27
ENDBRANCH   1  16
TORSDOF 4
