REMARK  Name = ZINCrg00000b4SVT.1
REMARK                            x       y       z     vdW  Elec       q    Type
REMARK                         _______ _______ _______ _____ _____    ______ ____
ROOT
ATOM      1  N   LIG    1        0.116   1.457   0.076  0.00  0.00    -0.600 N 
ATOM      2  C   LIG    1       -0.932   2.280   0.279  0.00  0.00    +0.510 C 
ATOM      3  O   LIG    1       -2.047   1.821   0.411  0.00  0.00    -0.500 OA
ATOM      4  C   LIG    1        1.462   2.011  -0.089  0.00  0.00    +0.280 C 
ENDROOT
BRANCH   1   5
ATOM      5  C   LIG    1       -0.092   0.008   0.016  0.00  0.00    +0.300 C 
ATOM      6  C   LIG    1        0.613  -0.659   1.199  0.00  0.00    +0.030 C 
BRANCH   5  12
ATOM      7  C   LIG    1       -0.213  -0.344  -2.464  0.00  0.00    +0.150 A 
ATOM      8  C   LIG    1        0.315  -0.833  -3.650  0.00  0.00    -0.080 A 
ATOM      9  C   LIG    1        1.519  -1.511  -3.642  0.00  0.00    +0.060 A 
ATOM     10  C   LIG    1        2.200  -1.697  -2.454  0.00  0.00    -0.030 A 
ATOM     11  C   LIG    1        1.679  -1.205  -1.271  0.00  0.00    +0.060 A 
ATOM     12  C   LIG    1        0.475  -0.527  -1.274  0.00  0.00    -0.140 A 
BRANCH   7  14
ATOM     13  C   LIG    1       -2.054   0.468  -3.731  0.00  0.00    +0.240 C 
ATOM     14  O   LIG    1       -1.400   0.317  -2.469  0.00  0.00    -0.300 OA
ENDBRANCH   7  14
ENDBRANCH   5  12
ENDBRANCH   1   5
BRANCH   2  15
ATOM     15  C   LIG    1       -0.718   3.770   0.342  0.00  0.00    +0.360 C 
BRANCH  15  16
ATOM     16  N   LIG    1       -2.002   4.439   0.569  0.00  0.00    -0.280 N 
ATOM     17  C   LIG    1       -2.279   5.303   1.572  0.00  0.00    +0.140 A 
ATOM     18  C   LIG    1       -3.569   5.676   1.404  0.00  0.00    +0.000 A 
ATOM     19  N   LIG    1       -4.012   5.029   0.320  0.00  0.00    -0.260 NA
ATOM     20  N   LIG    1       -3.058   4.309  -0.155  0.00  0.00    -0.050 NA
BRANCH  18  21
ATOM     21  C   LIG    1       -4.352   6.631   2.267  0.00  0.00    +0.150 C 
BRANCH  21  22
ATOM     22  C   LIG    1       -4.931   7.747   1.396  0.00  0.00    +0.160 C 
ATOM     23  C   LIG    1       -5.829   8.648   2.249  0.00  0.00    +0.180 C 
ATOM     24  O   LIG    1       -6.308   9.732   1.449  0.00  0.00    -0.380 OA
ATOM     25  C   LIG    1       -5.267  10.534   0.885  0.00  0.00    +0.170 C 
ATOM     26  C   LIG    1       -4.364   9.653   0.017  0.00  0.00    +0.190 C 
ATOM     27  N   LIG    1       -3.836   8.549   0.833  0.00  0.00    -0.670 NA
ATOM     28  H   LIG    1       -3.229   8.896   1.561  0.00  0.00    +0.340 HD
ENDBRANCH  21  22
ENDBRANCH  18  21
ENDBRANCH  15  16
ENDBRANCH   2  15
TORSDOF 7
