REMARK  Name = ZINCrD000000D87w.0
REMARK                            x       y       z     vdW  Elec       q    Type
REMARK                         _______ _______ _______ _____ _____    ______ ____
ROOT
ATOM      1  N   LIG    1        1.703  -2.933  -1.518  0.00  0.00    -0.940 N 
ENDROOT
BRANCH   1   6
ATOM      2  O   LIG    1        3.336   0.073  -4.697  0.00  0.00    -0.930 OA
ATOM      3  S   LIG    1        2.542  -0.899  -4.030  0.00  0.00    +2.440 S 
ATOM      4  C   LIG    1        3.370  -2.451  -4.288  0.00  0.00    -0.450 C 
ATOM      5  C   LIG    1        3.507  -3.022  -3.124  0.00  0.00    +0.090 C 
ATOM      6  C   LIG    1        2.981  -2.330  -1.907  0.00  0.00    +0.300 C 
ATOM      7  O   LIG    1        1.183  -1.130  -4.379  0.00  0.00    -0.900 OA
ATOM      8  C   LIG    1        2.770  -0.825  -2.208  0.00  0.00    -0.290 C 
ENDBRANCH   1   6
BRANCH   1   9
ATOM      9  C   LIG    1        0.667  -3.033  -2.449  0.00  0.00    +0.110 A 
ATOM     10  C   LIG    1        0.804  -3.860  -3.557  0.00  0.00    +0.030 A 
ATOM     11  C   LIG    1       -0.225  -3.961  -4.473  0.00  0.00    +0.030 A 
ATOM     12  C   LIG    1       -1.386  -3.232  -4.294  0.00  0.00    +0.020 A 
ATOM     13  C   LIG    1       -1.524  -2.404  -3.195  0.00  0.00    +0.040 A 
ATOM     14  C   LIG    1       -0.501  -2.302  -2.272  0.00  0.00    +0.010 A 
ENDBRANCH   1   9
BRANCH   1  15
ATOM     15  S   LIG    1        1.488  -3.494   0.025  0.00  0.00    +2.690 S 
ATOM     16  O   LIG    1        0.588  -4.590  -0.069  0.00  0.00    -0.930 OA
ATOM     17  O   LIG    1        2.784  -3.600   0.598  0.00  0.00    -0.940 OA
BRANCH  15  18
ATOM     18  C   LIG    1        0.646  -2.235   0.925  0.00  0.00    -0.680 A 
ATOM     19  C   LIG    1       -0.629  -2.437   1.355  0.00  0.00    +0.170 A 
ATOM     20  C   LIG    1       -1.310  -1.452   2.068  0.00  0.00    -0.010 A 
ATOM     21  C   LIG    1       -0.721  -0.260   2.356  0.00  0.00    +0.100 A 
ATOM     22  C   LIG    1        0.596  -0.015   1.928  0.00  0.00    -0.070 A 
ATOM     23  C   LIG    1        1.237   1.204   2.205  0.00  0.00    +0.040 A 
ATOM     24  C   LIG    1        2.512   1.407   1.774  0.00  0.00    +0.010 A 
ATOM     25  C   LIG    1        3.194   0.423   1.061  0.00  0.00    +0.050 A 
ATOM     26  C   LIG    1        2.604  -0.770   0.774  0.00  0.00    -0.010 A 
ATOM     27  C   LIG    1        1.289  -1.016   1.203  0.00  0.00    +0.030 A 
ENDBRANCH  15  18
ENDBRANCH   1  15
TORSDOF 4
