REMARK  Name = ZINCrg000000rITX.1
REMARK                            x       y       z     vdW  Elec       q    Type
REMARK                         _______ _______ _______ _____ _____    ______ ____
ROOT
ATOM      1  N   LIG    1       -3.620   1.450   0.124  0.00  0.00    -0.720 N 
ATOM      2  H   LIG    1       -3.538   2.413   0.033  0.00  0.00    +0.400 HD
ATOM      3  C   LIG    1       -2.514   0.688   0.236  0.00  0.00    +0.560 C 
ATOM      4  O   LIG    1       -2.617  -0.518   0.351  0.00  0.00    -0.520 OA
ENDROOT
BRANCH   1   8
ATOM      5  N   LIG    1       -7.676   0.780  -0.799  0.00  0.00    -0.530 NA
ATOM      6  C   LIG    1       -7.374   1.206   0.574  0.00  0.00    +0.180 C 
ATOM      7  C   LIG    1       -5.984   1.845   0.617  0.00  0.00    +0.040 C 
ATOM      8  C   LIG    1       -4.945   0.827   0.140  0.00  0.00    +0.230 C 
ATOM      9  C   LIG    1       -5.309   0.363  -1.274  0.00  0.00    +0.020 C 
ATOM     10  C   LIG    1       -6.718  -0.233  -1.263  0.00  0.00    +0.170 C 
BRANCH   5  12
ATOM     11  C   LIG    1       -9.179  -1.049  -0.174  0.00  0.00    +0.000 C 
ATOM     12  C   LIG    1       -9.056   0.288  -0.907  0.00  0.00    +0.220 C 
BRANCH  12  13
ATOM     13  C   LIG    1       -9.410   0.100  -2.359  0.00  0.00    -0.040 A 
ATOM     14  C   LIG    1       -8.899   0.948  -3.330  0.00  0.00    -0.010 A 
ATOM     15  C   LIG    1       -9.242   0.742  -4.653  0.00  0.00    +0.240 A 
ATOM     16  N   LIG    1      -10.053  -0.240  -4.994  0.00  0.00    -0.490 NA
ATOM     17  C   LIG    1      -10.562  -1.063  -4.097  0.00  0.00    +0.250 A 
ATOM     18  C   LIG    1      -10.259  -0.921  -2.756  0.00  0.00    -0.030 A 
ENDBRANCH  12  13
ENDBRANCH   5  12
ENDBRANCH   1   8
BRANCH   3  19
ATOM     19  C   LIG    1       -1.177   1.317   0.221  0.00  0.00    -0.130 A 
ATOM     20  C   LIG    1       -0.021   0.536   0.337  0.00  0.00    +0.130 A 
ATOM     21  C   LIG    1        1.207   1.174   0.311  0.00  0.00    +0.080 A 
ATOM     22  C   LIG    1        1.253   2.550   0.177  0.00  0.00    -0.430 A 
ATOM     23  N   LIG    1        0.146   3.261   0.075  0.00  0.00    -0.390 NA
ATOM     24  C   LIG    1       -1.045   2.701   0.095  0.00  0.00    +0.280 A 
BRANCH  22  25
ATOM     25  S   LIG    1        2.814   3.366   0.144  0.00  0.00    +2.710 S 
ATOM     26  O   LIG    1        3.731   2.504   0.804  0.00  0.00    -0.950 OA
ATOM     27  O   LIG    1        2.575   4.705   0.553  0.00  0.00    -0.930 OA
BRANCH  25  28
ATOM     28  N   LIG    1        3.296   3.439  -1.438  0.00  0.00    -1.240 NA
ATOM     29  H   LIG    1        3.022   2.747  -2.061  0.00  0.00    +0.420 HD
ATOM     30  H   LIG    1        3.852   4.173  -1.743  0.00  0.00    +0.430 HD
ENDBRANCH  25  28
ENDBRANCH  22  25
ENDBRANCH   3  19
TORSDOF 6
