REMARK  Name = ZINCrD00000l5rfc.0
REMARK                            x       y       z     vdW  Elec       q    Type
REMARK                         _______ _______ _______ _____ _____    ______ ____
ROOT
ATOM      1  C   LIG    1       -3.190   2.406  -1.450  0.00  0.00    +0.500 C 
ATOM      2  N   LIG    1       -2.183   1.902  -0.710  0.00  0.00    -0.620 N 
ATOM      3  C   LIG    1       -2.264   1.534   0.716  0.00  0.00    +0.260 C 
ATOM      4  C   LIG    1       -0.802   1.617   1.234  0.00  0.00    +0.050 C 
ATOM      5  C   LIG    1       -0.013   1.086   0.008  0.00  0.00    +0.060 C 
ATOM      6  C   LIG    1       -0.821   1.627  -1.190  0.00  0.00    +0.320 C 
ATOM      7  O   LIG    1       -3.009   2.673  -2.619  0.00  0.00    -0.500 OA
ENDROOT
BRANCH   6   8
ATOM      8  C   LIG    1       -0.863   0.596  -2.288  0.00  0.00    +0.090 A 
ATOM      9  N   LIG    1       -0.198   0.678  -3.378  0.00  0.00    -0.450 NA
ATOM     10  C   LIG    1       -0.332  -0.319  -4.273  0.00  0.00    +0.080 A 
ATOM     11  C   LIG    1        0.274  -0.483  -5.535  0.00  0.00    +0.070 A 
ATOM     12  C   LIG    1       -0.001  -1.581  -6.294  0.00  0.00    +0.030 A 
ATOM     13  C   LIG    1       -0.878  -2.556  -5.842  0.00  0.00    +0.040 A 
ATOM     14  C   LIG    1       -1.484  -2.421  -4.613  0.00  0.00    +0.060 A 
ATOM     15  C   LIG    1       -1.216  -1.306  -3.823  0.00  0.00    -0.180 A 
ATOM     16  S   LIG    1       -1.798  -0.830  -2.231  0.00  0.00    +0.100 S 
ENDBRANCH   6   8
BRANCH   1  17
ATOM     17  C   LIG    1       -4.542   2.638  -0.825  0.00  0.00    +0.350 C 
BRANCH  17  19
ATOM     18  C   LIG    1       -6.183   2.286  -2.728  0.00  0.00    +0.320 C 
ATOM     19  N   LIG    1       -5.457   3.186  -1.829  0.00  0.00    -0.980 NA
BRANCH  19  20
ATOM     20  S   LIG    1       -5.670   4.824  -1.947  0.00  0.00    +2.720 S 
ATOM     21  O   LIG    1       -5.323   5.367  -0.681  0.00  0.00    -0.950 OA
ATOM     22  O   LIG    1       -6.939   5.021  -2.555  0.00  0.00    -0.940 OA
BRANCH  20  23
ATOM     23  C   LIG    1       -4.472   5.425  -3.091  0.00  0.00    -0.780 A 
ATOM     24  C   LIG    1       -4.652   5.531  -4.409  0.00  0.00    +0.160 A 
ATOM     25  C   LIG    1       -3.567   6.033  -5.107  0.00  0.00    -0.010 A 
ATOM     26  C   LIG    1       -2.504   6.327  -4.358  0.00  0.00    +0.000 A 
ATOM     27  S   LIG    1       -2.853   5.969  -2.672  0.00  0.00    +0.220 S 
ENDBRANCH  20  23
ENDBRANCH  19  20
ENDBRANCH  17  19
ENDBRANCH   1  17
TORSDOF 5
