REMARK  Name = ZINCpk00000e9Rza.0
REMARK                            x       y       z     vdW  Elec       q    Type
REMARK                         _______ _______ _______ _____ _____    ______ ____
ROOT
ATOM      1  C   LIG    1        0.689  -1.751   1.734  0.00  0.00    +0.570 C 
ATOM      2  N   LIG    1        1.610  -2.245   2.584  0.00  0.00    -0.570 N 
ATOM      3  C   LIG    1        2.811  -1.475   2.826  0.00  0.00    +0.290 C 
ATOM      4  C   LIG    1        3.909  -1.898   1.817  0.00  0.00    +0.040 C 
ATOM      5  C   LIG    1        4.370  -3.264   2.126  0.00  0.00    +0.170 C 
ATOM      6  N   LIG    1        3.335  -4.291   2.015  0.00  0.00    -0.530 NA
ATOM      7  C   LIG    1        2.614  -4.427   3.263  0.00  0.00    +0.170 C 
ATOM      8  C   LIG    1        1.346  -3.546   3.234  0.00  0.00    +0.280 C 
ATOM      9  O   LIG    1       -0.382  -2.313   1.604  0.00  0.00    -0.520 OA
ENDROOT
BRANCH   1  13
ATOM     10  C   LIG    1        3.879   1.461  -0.004  0.00  0.00    +0.340 C 
ATOM     11  N   LIG    1        2.480   1.136   0.283  0.00  0.00    -0.470 N 
ATOM     12  N   LIG    1        2.168  -0.022   1.002  0.00  0.00    -0.190 NA
ATOM     13  C   LIG    1        0.978  -0.536   0.964  0.00  0.00    +0.080 C 
ATOM     14  C   LIG    1       -0.111   0.097   0.139  0.00  0.00    +0.110 C 
ATOM     15  C   LIG    1        0.060   1.618   0.144  0.00  0.00    +0.090 C 
ATOM     16  C   LIG    1        1.500   1.956  -0.147  0.00  0.00    +0.490 C 
ATOM     17  O   LIG    1        1.776   2.961  -0.766  0.00  0.00    -0.510 OA
ENDBRANCH   1  13
BRANCH   6  18
ATOM     18  C   LIG    1        3.910  -5.577   1.597  0.00  0.00    +0.240 C 
BRANCH  18  19
ATOM     19  C   LIG    1        2.810  -6.487   1.117  0.00  0.00    -0.120 A 
ATOM     20  C   LIG    1        2.391  -7.541   1.906  0.00  0.00    +0.040 A 
ATOM     21  C   LIG    1        1.382  -8.377   1.466  0.00  0.00    +0.000 A 
ATOM     22  C   LIG    1        0.791  -8.160   0.235  0.00  0.00    +0.040 A 
ATOM     23  C   LIG    1        1.208  -7.107  -0.557  0.00  0.00    -0.030 A 
ATOM     24  C   LIG    1        2.215  -6.265  -0.114  0.00  0.00    +0.130 A 
ATOM     25  F   LIG    1        2.620  -5.232  -0.884  0.00  0.00    -0.130 F 
ENDBRANCH  18  19
ENDBRANCH   6  18
TORSDOF 3
