REMARK  Name = ZINCpk000000oN4f.0
REMARK                            x       y       z     vdW  Elec       q    Type
REMARK                         _______ _______ _______ _____ _____    ______ ____
ROOT
ATOM      1  C   LIG    1       -1.905   4.938   0.109  0.00  0.00    +0.260 C 
ENDROOT
BRANCH   1   2
ATOM      2  C   LIG    1       -1.734   3.418   0.070  0.00  0.00    +0.160 C 
ATOM      3  C   LIG    1       -1.056   3.013  -1.243  0.00  0.00    +0.300 C 
ATOM      4  N   LIG    1       -0.734   1.578  -1.176  0.00  0.00    -0.600 N 
ATOM      5  C   LIG    1       -0.013   1.086   0.008  0.00  0.00    +0.250 C 
ATOM      6  C   LIG    1       -0.741   1.585   1.261  0.00  0.00    +0.220 C 
ATOM      7  C   LIG    1       -1.091   0.740  -2.170  0.00  0.00    +0.660 C 
ATOM      8  O   LIG    1       -1.686   1.166  -3.139  0.00  0.00    -0.560 OA
ATOM      9  O   LIG    1       -0.919   3.001   1.169  0.00  0.00    -0.370 OA
BRANCH   7  10
ATOM     10  O   LIG    1       -0.787  -0.569  -2.087  0.00  0.00    -0.360 OA
BRANCH  10  11
ATOM     11  C   LIG    1       -1.202  -1.413  -3.194  0.00  0.00    +0.140 C 
ATOM     12  C   LIG    1       -2.724  -1.352  -3.339  0.00  0.00    +0.040 C 
ATOM     13  C   LIG    1       -0.773  -2.856  -2.924  0.00  0.00    +0.080 C 
ATOM     14  C   LIG    1       -0.547  -0.919  -4.485  0.00  0.00    +0.040 C 
ENDBRANCH  10  11
ENDBRANCH   7  10
ENDBRANCH   1   2
BRANCH   1  15
ATOM     15  O   LIG    1       -2.652   5.311   1.297  0.00  0.00    -0.350 OA
BRANCH  15  16
ATOM     16  C   LIG    1       -2.891   6.619   1.481  0.00  0.00    +0.460 C 
ATOM     17  O   LIG    1       -2.488   7.426   0.676  0.00  0.00    -0.500 OA
BRANCH  16  18
ATOM     18  C   LIG    1       -3.660   7.082   2.692  0.00  0.00    +0.110 C 
BRANCH  18  19
ATOM     19  C   LIG    1       -3.791   8.606   2.661  0.00  0.00    +0.060 C 
BRANCH  19  20
ATOM     20  C   LIG    1       -4.572   9.075   3.890  0.00  0.00    +0.060 C 
BRANCH  20  23
ATOM     21  N   LIG    1       -5.355  11.216   4.850  0.00  0.00    -0.730 N 
ATOM     22  H   LIG    1       -5.743  10.711   5.581  0.00  0.00    +0.400 HD
ATOM     23  C   LIG    1       -4.701  10.576   3.860  0.00  0.00    +0.510 C 
ATOM     24  O   LIG    1       -4.216  11.208   2.946  0.00  0.00    -0.530 OA
BRANCH  21  26
ATOM     25  C   LIG    1       -6.261  13.145   6.050  0.00  0.00    +0.020 C 
ATOM     26  C   LIG    1       -5.480  12.676   4.820  0.00  0.00    +0.250 C 
ENDBRANCH  21  26
ENDBRANCH  20  23
ENDBRANCH  19  20
ENDBRANCH  18  19
ENDBRANCH  16  18
ENDBRANCH  15  16
ENDBRANCH   1  15
TORSDOF 10
