REMARK  Name = ZINCrH000004qZNV.0
REMARK                            x       y       z     vdW  Elec       q    Type
REMARK                         _______ _______ _______ _____ _____    ______ ____
ROOT
ATOM      1  C   LIG    1        2.742  -5.433  -0.054  0.00  0.00    +0.130 C 
ATOM      2  C   LIG    1        2.307  -6.377  -1.199  0.00  0.00    +0.090 C 
ATOM      3  C   LIG    1        2.448  -7.763  -0.611  0.00  0.00    +0.520 C 
ATOM      4  N   LIG    1        2.537  -7.691   0.729  0.00  0.00    -0.620 N 
ATOM      5  O   LIG    1        2.476  -8.791  -1.254  0.00  0.00    -0.510 OA
ATOM      6  C   LIG    1        2.461  -6.300   1.193  0.00  0.00    +0.290 C 
ENDROOT
BRANCH   1  10
ATOM      7  C   LIG    1        1.246  -2.165  -0.022  0.00  0.00    +0.220 A 
ATOM      8  N   LIG    1        0.208  -2.960  -0.017  0.00  0.00    -0.370 NA
ATOM      9  O   LIG    1        0.570  -4.118  -0.027  0.00  0.00    +0.090 OA
ATOM     10  C   LIG    1        1.905  -4.180  -0.039  0.00  0.00    +0.190 A 
ATOM     11  N   LIG    1        2.349  -2.948  -0.042  0.00  0.00    -0.460 NA
BRANCH   7  16
ATOM     12  C   LIG    1        1.148   3.595   0.011  0.00  0.00    +0.110 C 
ATOM     13  C   LIG    1        1.173   2.088   0.002  0.00  0.00    -0.100 A 
ATOM     14  C   LIG    1        2.383   1.420  -0.013  0.00  0.00    +0.050 A 
ATOM     15  C   LIG    1        2.412   0.039  -0.021  0.00  0.00    +0.060 A 
ATOM     16  C   LIG    1        1.220  -0.681  -0.013  0.00  0.00    -0.010 A 
ATOM     17  C   LIG    1        0.002  -0.004   0.002  0.00  0.00    +0.030 A 
ATOM     18  C   LIG    1       -0.017   1.378   0.010  0.00  0.00    +0.100 A 
ATOM     19  F   LIG    1       -1.196   2.037   0.019  0.00  0.00    -0.130 F 
ENDBRANCH   7  16
ENDBRANCH   1  10
BRANCH   4  20
ATOM     20  C   LIG    1        2.691  -8.850   1.611  0.00  0.00    +0.300 C 
BRANCH  20  21
ATOM     21  C   LIG    1        1.310  -9.366   2.020  0.00  0.00    +0.060 C 
BRANCH  21  22
ATOM     22  C   LIG    1        1.468 -10.559   2.928  0.00  0.00    -0.090 A 
ATOM     23  C   LIG    1        1.525 -11.832   2.393  0.00  0.00    +0.010 A 
ATOM     24  C   LIG    1        1.675 -12.925   3.225  0.00  0.00    +0.000 A 
ATOM     25  C   LIG    1        1.758 -12.746   4.593  0.00  0.00    +0.000 A 
ATOM     26  C   LIG    1        1.697 -11.473   5.129  0.00  0.00    +0.000 A 
ATOM     27  C   LIG    1        1.552 -10.380   4.296  0.00  0.00    +0.000 A 
ENDBRANCH  21  22
ENDBRANCH  20  21
ENDBRANCH   4  20
TORSDOF 5
