REMARK  Name = ZINCvU0000000CKz.0
REMARK                            x       y       z     vdW  Elec       q    Type
REMARK                         _______ _______ _______ _____ _____    ______ ____
ROOT
ATOM      1  C   LIG    1        6.561   0.042  -0.061  0.00  0.00    +0.340 C 
ENDROOT
BRANCH   1   2
ATOM      2  C   LIG    1        5.126   0.500  -0.044  0.00  0.00    -0.100 A 
ATOM      3  C   LIG    1        4.835   1.853  -0.034  0.00  0.00    +0.040 A 
ATOM      4  C   LIG    1        3.523   2.279  -0.019  0.00  0.00    +0.070 A 
ATOM      5  C   LIG    1        2.488   1.343  -0.015  0.00  0.00    -0.020 A 
ATOM      6  C   LIG    1        2.788  -0.020  -0.019  0.00  0.00    +0.020 A 
ATOM      7  C   LIG    1        4.105  -0.433  -0.040  0.00  0.00    +0.030 A 
BRANCH   5   8
ATOM      8  C   LIG    1        1.079   1.793   0.001  0.00  0.00    +0.320 A 
ATOM      9  N   LIG    1        0.688   3.043   0.011  0.00  0.00    -0.470 NA
ATOM     10  C   LIG    1       -0.666   3.097   0.024  0.00  0.00    +0.050 A 
ATOM     11  C   LIG    1       -1.586   4.150   0.038  0.00  0.00    +0.070 A 
ATOM     12  C   LIG    1       -2.926   3.883   0.049  0.00  0.00    +0.000 A 
ATOM     13  C   LIG    1       -3.387   2.574   0.047  0.00  0.00    +0.030 A 
ATOM     14  C   LIG    1       -2.498   1.520   0.033  0.00  0.00    +0.010 A 
ATOM     15  C   LIG    1       -1.134   1.770   0.016  0.00  0.00    +0.050 A 
ATOM     16  N   LIG    1       -0.011   0.966   0.007  0.00  0.00    -0.590 N 
ATOM     17  H   LIG    1        0.002  -0.004   0.002  0.00  0.00    +0.420 HD
ENDBRANCH   5   8
ENDBRANCH   1   2
BRANCH   1  20
ATOM     18  O   LIG    1        9.049  -0.755   0.613  0.00  0.00    -0.510 OA
ATOM     19  C   LIG    1        8.305  -0.519   1.546  0.00  0.00    +0.590 C 
ATOM     20  N   LIG    1        7.040  -0.114   1.315  0.00  0.00    -0.720 N 
ATOM     21  H   LIG    1        6.447   0.073   2.059  0.00  0.00    +0.400 HD
BRANCH  19  22
ATOM     22  C   LIG    1        8.785  -0.675   2.927  0.00  0.00    -0.220 A 
ATOM     23  C   LIG    1       10.018  -1.070   3.263  0.00  0.00    +0.140 A 
ATOM     24  C   LIG    1       10.273  -1.154   4.641  0.00  0.00    -0.090 A 
ATOM     25  C   LIG    1       11.465  -1.536   5.302  0.00  0.00    +0.170 A 
ATOM     26  C   LIG    1       11.524  -1.556   6.660  0.00  0.00    -0.040 A 
ATOM     27  C   LIG    1       10.419  -1.204   7.424  0.00  0.00    +0.120 A 
ATOM     28  C   LIG    1        9.247  -0.829   6.811  0.00  0.00    +0.090 A 
ATOM     29  C   LIG    1        9.161  -0.800   5.416  0.00  0.00    -0.100 A 
ATOM     30  S   LIG    1        7.822  -0.363   4.360  0.00  0.00    +0.170 S 
BRANCH  26  31
ATOM     31  N   LIG    1       12.781  -1.957   7.332  0.00  0.00    +0.030 N 
ATOM     32  O   LIG    1       12.841  -1.978   8.548  0.00  0.00    -0.150 OA
ATOM     33  O   LIG    1       13.754  -2.267   6.668  0.00  0.00    -0.150 OA
ENDBRANCH  26  31
ENDBRANCH  19  22
ENDBRANCH   1  20
TORSDOF 5
