REMARK  Name = ZINCpe000000XuH5.0
REMARK                            x       y       z     vdW  Elec       q    Type
REMARK                         _______ _______ _______ _____ _____    ______ ____
ROOT
ATOM      1  C   LIG    1        5.128  -0.066   1.779  0.00  0.00    +0.500 C 
ATOM      2  N   LIG    1        6.229   0.496   2.314  0.00  0.00    -0.730 N 
ATOM      3  H   LIG    1        6.859   0.966   1.746  0.00  0.00    +0.410 HD
ATOM      4  O   LIG    1        4.340  -0.654   2.489  0.00  0.00    -0.520 OA
ENDROOT
BRANCH   1   5
ATOM      5  C   LIG    1        4.875   0.034   0.296  0.00  0.00    +0.340 C 
BRANCH   5  15
ATOM      6  C   LIG    1        2.413  -4.127  -0.362  0.00  0.00    +0.100 C 
ATOM      7  C   LIG    1        2.333  -2.644  -0.730  0.00  0.00    +0.190 C 
ATOM      8  O   LIG    1        1.248  -2.036  -0.024  0.00  0.00    -0.300 OA
ATOM      9  C   LIG    1        1.211  -0.677  -0.013  0.00  0.00    +0.090 A 
ATOM     10  C   LIG    1        0.002  -0.004   0.002  0.00  0.00    +0.030 A 
ATOM     11  C   LIG    1       -0.017   1.379   0.010  0.00  0.00    +0.030 A 
ATOM     12  C   LIG    1        1.168   2.092   0.002  0.00  0.00    +0.020 A 
ATOM     13  C   LIG    1        2.380   1.427  -0.013  0.00  0.00    +0.000 A 
ATOM     14  C   LIG    1        2.406   0.042  -0.020  0.00  0.00    +0.100 A 
ATOM     15  N   LIG    1        3.624  -0.652  -0.034  0.00  0.00    -0.540 N 
ATOM     16  C   LIG    1        3.626  -1.964  -0.356  0.00  0.00    +0.500 C 
ATOM     17  O   LIG    1        4.663  -2.592  -0.345  0.00  0.00    -0.500 OA
ENDBRANCH   5  15
ENDBRANCH   1   5
BRANCH   2  18
ATOM     18  C   LIG    1        6.474   0.398   3.755  0.00  0.00    +0.270 C 
BRANCH  18  19
ATOM     19  C   LIG    1        7.781   1.115   4.100  0.00  0.00    +0.290 C 
BRANCH  19  20
ATOM     20  N   LIG    1        8.027   1.017   5.541  0.00  0.00    -0.700 N 
ATOM     21  H   LIG    1        7.397   0.547   6.109  0.00  0.00    +0.420 HD
BRANCH  20  22
ATOM     22  C   LIG    1        9.158   1.595   6.091  0.00  0.00    +0.560 A 
ATOM     23  N   LIG    1       10.011   2.229   5.300  0.00  0.00    -0.570 NA
ATOM     24  C   LIG    1       11.098   2.797   5.794  0.00  0.00    +0.360 A 
ATOM     25  C   LIG    1       11.345   2.713   7.155  0.00  0.00    -0.140 A 
ATOM     26  C   LIG    1       10.435   2.038   7.954  0.00  0.00    +0.360 A 
ATOM     27  N   LIG    1        9.364   1.497   7.396  0.00  0.00    -0.570 NA
ENDBRANCH  20  22
ENDBRANCH  19  20
ENDBRANCH  18  19
ENDBRANCH   2  18
TORSDOF 6
