REMARK  Name = ZINCrH000004proW.0
REMARK                            x       y       z     vdW  Elec       q    Type
REMARK                         _______ _______ _______ _____ _____    ______ ____
ROOT
ATOM      1  N   LIG    1        2.279   3.793   1.267  0.00  0.00    -0.720 N 
ATOM      2  H   LIG    1        3.093   3.271   1.191  0.00  0.00    +0.400 HD
ATOM      3  C   LIG    1        2.333   5.064   1.714  0.00  0.00    +0.560 C 
ATOM      4  O   LIG    1        1.313   5.719   1.809  0.00  0.00    -0.510 OA
ENDROOT
BRANCH   3   5
ATOM      5  C   LIG    1        3.629   5.659   2.087  0.00  0.00    -0.130 A 
ATOM      6  C   LIG    1        4.803   4.911   1.979  0.00  0.00    +0.070 A 
ATOM      7  C   LIG    1        6.011   5.474   2.328  0.00  0.00    +0.000 A 
ATOM      8  C   LIG    1        6.069   6.780   2.787  0.00  0.00    +0.060 A 
ATOM      9  C   LIG    1        4.919   7.533   2.900  0.00  0.00    -0.020 A 
ATOM     10  C   LIG    1        3.691   6.985   2.547  0.00  0.00    -0.050 A 
BRANCH  10  11
ATOM     11  S   LIG    1        2.220   7.946   2.683  0.00  0.00    +0.050 S 
BRANCH  11  12
ATOM     12  C   LIG    1        2.799   9.467   3.484  0.00  0.00    -0.030 C 
ATOM     13  C   LIG    1        1.676  10.519   3.490  0.00  0.00    +0.110 C 
ATOM     14  C   LIG    1        2.066  11.653   4.459  0.00  0.00    -0.300 C 
ATOM     15  S   LIG    1        3.151  10.864   5.703  0.00  0.00    +2.390 S 
ATOM     16  O   LIG    1        2.482  10.829   6.956  0.00  0.00    -0.930 OA
ATOM     17  O   LIG    1        4.456  11.419   5.609  0.00  0.00    -0.930 OA
ATOM     18  C   LIG    1        3.151   9.185   4.967  0.00  0.00    -0.300 C 
ENDBRANCH  11  12
ENDBRANCH  10  11
ENDBRANCH   3   5
BRANCH   1  20
ATOM     19  C   LIG    1        0.680   3.529  -0.565  0.00  0.00    +0.040 C 
ATOM     20  C   LIG    1        0.991   3.201   0.897  0.00  0.00    +0.300 C 
BRANCH  20  21
ATOM     21  C   LIG    1        1.056   1.706   1.073  0.00  0.00    -0.140 A 
ATOM     22  C   LIG    1        2.265   1.048   0.950  0.00  0.00    +0.080 A 
ATOM     23  C   LIG    1        2.327  -0.323   1.111  0.00  0.00    -0.010 A 
ATOM     24  C   LIG    1        1.177  -1.040   1.396  0.00  0.00    +0.130 A 
ATOM     25  C   LIG    1       -0.035  -0.382   1.520  0.00  0.00    -0.040 A 
ATOM     26  F   LIG    1        1.237  -2.380   1.554  0.00  0.00    -0.130 F 
ATOM     27  C   LIG    1       -0.096   0.992   1.358  0.00  0.00    +0.140 A 
ATOM     28  F   LIG    1       -1.278   1.634   1.473  0.00  0.00    -0.120 F 
ENDBRANCH  20  21
ENDBRANCH   1  20
TORSDOF 5
