REMARK  Name = ZINCqH0000005NdY.0
REMARK                            x       y       z     vdW  Elec       q    Type
REMARK                         _______ _______ _______ _____ _____    ______ ____
ROOT
ATOM      1  N   LIG    1       -1.116   4.185   3.043  0.00  0.00    -0.710 N 
ATOM      2  H   LIG    1       -1.291   3.703   2.220  0.00  0.00    +0.410 HD
ATOM      3  C   LIG    1       -0.855   3.509   4.179  0.00  0.00    +0.520 C 
ATOM      4  O   LIG    1       -0.636   4.112   5.208  0.00  0.00    -0.530 OA
ENDROOT
BRANCH   1   5
ATOM      5  C   LIG    1       -1.136   5.650   3.051  0.00  0.00    +0.200 C 
ATOM      6  C   LIG    1       -1.335   6.165   1.624  0.00  0.00    +0.050 C 
ATOM      7  C   LIG    1       -2.661   5.640   1.073  0.00  0.00    +0.030 C 
ATOM      8  C   LIG    1       -3.811   6.130   1.956  0.00  0.00    +0.030 C 
ATOM      9  C   LIG    1       -3.612   5.615   3.383  0.00  0.00    -0.060 C 
ATOM     10  C   LIG    1       -4.761   6.104   4.266  0.00  0.00    +0.040 C 
ATOM     11  C   LIG    1       -3.591   4.085   3.374  0.00  0.00    +0.020 C 
ATOM     12  C   LIG    1       -2.285   6.140   3.935  0.00  0.00    +0.060 C 
BRANCH   5  13
ATOM     13  C   LIG    1        0.171   6.167   3.595  0.00  0.00    +0.470 C 
ATOM     14  O   LIG    1        0.191   7.173   4.263  0.00  0.00    -0.500 OA
BRANCH  13  16
ATOM     15  C   LIG    1        2.533   6.066   3.892  0.00  0.00    +0.260 C 
ATOM     16  O   LIG    1        1.312   5.510   3.336  0.00  0.00    -0.350 OA
ENDBRANCH  13  16
ENDBRANCH   5  13
ENDBRANCH   1   5
BRANCH   3  17
ATOM     17  C   LIG    1       -0.834   2.002   4.171  0.00  0.00    +0.060 C 
BRANCH  17  18
ATOM     18  C   LIG    1       -0.516   1.488   5.576  0.00  0.00    +0.060 C 
BRANCH  18  19
ATOM     19  C   LIG    1       -0.495  -0.041   5.568  0.00  0.00    +0.180 C 
BRANCH  19  20
ATOM     20  O   LIG    1       -0.198  -0.521   6.881  0.00  0.00    -0.310 OA
BRANCH  20  21
ATOM     21  C   LIG    1       -0.141  -1.869   7.047  0.00  0.00    +0.130 A 
ATOM     22  C   LIG    1       -0.367  -2.712   5.969  0.00  0.00    -0.080 A 
ATOM     23  C   LIG    1       -0.309  -4.082   6.141  0.00  0.00    +0.030 A 
ATOM     24  C   LIG    1       -0.026  -4.612   7.386  0.00  0.00    -0.030 A 
ATOM     25  C   LIG    1        0.200  -3.773   8.463  0.00  0.00    +0.050 A 
ATOM     26  C   LIG    1        0.149  -2.403   8.295  0.00  0.00    -0.120 A 
ATOM     27  C   LIG    1        0.401  -1.490   9.466  0.00  0.00    +0.100 C 
ENDBRANCH  20  21
ENDBRANCH  19  20
ENDBRANCH  18  19
ENDBRANCH  17  18
ENDBRANCH   3  17
TORSDOF 8
