REMARK  Name = ZINCpe00000FUlec.0
REMARK                            x       y       z     vdW  Elec       q    Type
REMARK                         _______ _______ _______ _____ _____    ______ ____
ROOT
ATOM      1  C   LIG    1       -1.226   3.999   3.846  0.00  0.00    +0.520 C 
ENDROOT
BRANCH   1   5
ATOM      2  N   LIG    1       -0.698   1.558   1.213  0.00  0.00    -0.570 N 
ATOM      3  C   LIG    1       -1.688   0.906   1.861  0.00  0.00    +0.510 C 
ATOM      4  C   LIG    1       -2.054   1.785   3.019  0.00  0.00    +0.510 C 
ATOM      5  N   LIG    1       -1.240   2.859   2.927  0.00  0.00    -0.580 N 
ATOM      6  O   LIG    1       -2.902   1.576   3.861  0.00  0.00    -0.390 OA
ATOM      7  O   LIG    1       -2.177  -0.165   1.568  0.00  0.00    -0.400 OA
ATOM      8  C   LIG    1       -0.442   2.708   1.858  0.00  0.00    +0.710 C 
ATOM      9  O   LIG    1        0.403   3.511   1.516  0.00  0.00    -0.450 OA
BRANCH   2  10
ATOM     10  C   LIG    1       -0.013   1.086   0.008  0.00  0.00    +0.360 C 
BRANCH  10  11
ATOM     11  C   LIG    1       -0.753   1.593  -1.232  0.00  0.00    +0.180 C 
BRANCH  11  13
ATOM     12  C   LIG    1       -1.335   3.596  -2.411  0.00  0.00    +0.200 C 
ATOM     13  O   LIG    1       -0.672   3.018  -1.285  0.00  0.00    -0.380 OA
ENDBRANCH  11  13
ENDBRANCH  10  11
ENDBRANCH   2  10
ENDBRANCH   1   5
BRANCH   1  14
ATOM     14  C   LIG    1       -0.257   3.729   4.968  0.00  0.00    +0.150 A 
ATOM     15  N   LIG    1        1.018   4.027   4.984  0.00  0.00    -0.440 NA
ATOM     16  C   LIG    1        1.476   3.603   6.183  0.00  0.00    +0.210 A 
ATOM     17  N   LIG    1        0.463   3.068   6.816  0.00  0.00    -0.360 NA
ATOM     18  O   LIG    1       -0.536   3.133   6.132  0.00  0.00    +0.100 OA
BRANCH  16  19
ATOM     19  C   LIG    1        2.867   3.716   6.685  0.00  0.00    -0.040 A 
ATOM     20  C   LIG    1        3.850   4.308   5.894  0.00  0.00    +0.110 A 
ATOM     21  C   LIG    1        5.141   4.415   6.366  0.00  0.00    -0.010 A 
ATOM     22  C   LIG    1        5.465   3.926   7.622  0.00  0.00    +0.120 A 
ATOM     23  C   LIG    1        4.492   3.332   8.410  0.00  0.00    -0.010 A 
ATOM     24  F   LIG    1        6.732   4.030   8.079  0.00  0.00    -0.130 F 
ATOM     25  C   LIG    1        3.197   3.225   7.947  0.00  0.00    +0.090 A 
ENDBRANCH  16  19
ENDBRANCH   1  14
TORSDOF 6
