REMARK  Name = ZINCpk00000e8XA9.0
REMARK                            x       y       z     vdW  Elec       q    Type
REMARK                         _______ _______ _______ _____ _____    ______ ____
ROOT
ATOM      1  C   LIG    1        7.426   2.061   7.186  0.00  0.00    -0.050 A 
ATOM      2  C   LIG    1        6.404   2.476   8.022  0.00  0.00    +0.010 A 
ATOM      3  C   LIG    1        5.109   2.542   7.553  0.00  0.00    +0.090 A 
ATOM      4  C   LIG    1        4.830   2.188   6.230  0.00  0.00    -0.170 A 
ATOM      5  C   LIG    1        5.867   1.764   5.393  0.00  0.00    +0.060 A 
ATOM      6  C   LIG    1        7.158   1.709   5.875  0.00  0.00    +0.010 A 
ENDROOT
BRANCH   4   7
ATOM      7  C   LIG    1        3.450   2.254   5.721  0.00  0.00    +0.400 C 
ATOM      8  O   LIG    1        2.552   2.617   6.451  0.00  0.00    -0.420 OA
BRANCH   7   9
ATOM      9  C   LIG    1        3.153   1.872   4.294  0.00  0.00    +0.240 C 
BRANCH   9  10
ATOM     10  O   LIG    1        1.732   2.022   4.039  0.00  0.00    -0.330 OA
BRANCH  10  11
ATOM     11  C   LIG    1        1.298   1.718   2.800  0.00  0.00    +0.550 C 
ATOM     12  O   LIG    1        2.086   1.338   1.956  0.00  0.00    -0.520 OA
BRANCH  11  13
ATOM     13  C   LIG    1       -0.132   1.846   2.468  0.00  0.00    -0.290 A 
ATOM     14  C   LIG    1       -0.718   1.572   1.248  0.00  0.00    +0.170 A 
ATOM     15  N   LIG    1       -2.031   1.824   1.368  0.00  0.00    -0.360 N 
ATOM     16  N   LIG    1       -2.284   2.252   2.676  0.00  0.00    -0.300 NA
ATOM     17  C   LIG    1       -3.032   1.673   0.309  0.00  0.00    +0.360 C 
ATOM     18  C   LIG    1       -0.013   1.086   0.008  0.00  0.00    +0.180 C 
ATOM     19  C   LIG    1       -1.160   2.272   3.339  0.00  0.00    +0.310 A 
ENDBRANCH  11  13
ENDBRANCH  10  11
ENDBRANCH   9  10
ENDBRANCH   7   9
ENDBRANCH   4   7
BRANCH   1  20
ATOM     20  C   LIG    1        8.838   1.991   7.707  0.00  0.00    +0.070 C 
BRANCH  20  21
ATOM     21  C   LIG    1        9.098   0.603   8.294  0.00  0.00    +0.260 C 
BRANCH  21  24
ATOM     22  C   LIG    1       12.338  -0.670   9.887  0.00  0.00    +0.110 C 
ATOM     23  C   LIG    1       10.926  -0.601   9.366  0.00  0.00    +0.510 C 
ATOM     24  N   LIG    1       10.471   0.535   8.801  0.00  0.00    -0.730 N 
ATOM     25  H   LIG    1       11.053   1.308   8.729  0.00  0.00    +0.400 HD
ATOM     26  O   LIG    1       10.198  -1.567   9.456  0.00  0.00    -0.540 OA
ENDBRANCH  21  24
ENDBRANCH  20  21
ENDBRANCH   1  20
TORSDOF 8
