REMARK  Name = ZINCvU0000000Cfm.0
REMARK                            x       y       z     vdW  Elec       q    Type
REMARK                         _______ _______ _______ _____ _____    ______ ____
ROOT
ATOM      1  N   LIG    1        3.636  -3.765  -2.868  0.00  0.00    -0.540 N 
ATOM      2  C   LIG    1        3.317  -5.077  -2.727  0.00  0.00    +0.600 A 
ATOM      3  N   LIG    1        2.546  -5.496  -1.769  0.00  0.00    -0.500 NA
ATOM      4  C   LIG    1        2.017  -4.648  -0.860  0.00  0.00    +0.070 A 
ATOM      5  C   LIG    1        2.302  -3.290  -0.944  0.00  0.00    -0.220 A 
ATOM      6  C   LIG    1        1.653  -2.525   0.112  0.00  0.00    +0.000 A 
ATOM      7  C   LIG    1        0.923  -3.258   0.953  0.00  0.00    -0.040 A 
ATOM      8  S   LIG    1        0.961  -4.954   0.512  0.00  0.00    +0.220 S 
ATOM      9  C   LIG    1        3.152  -2.851  -2.004  0.00  0.00    +0.550 A 
ATOM     10  O   LIG    1        3.434  -1.671  -2.125  0.00  0.00    -0.500 OA
ENDROOT
BRANCH   6  11
ATOM     11  C   LIG    1        1.798  -1.056   0.244  0.00  0.00    -0.030 A 
ATOM     12  C   LIG    1        0.668  -0.252   0.388  0.00  0.00    +0.040 A 
ATOM     13  C   LIG    1        0.808   1.115   0.511  0.00  0.00    +0.020 A 
ATOM     14  C   LIG    1        2.067   1.689   0.491  0.00  0.00    -0.030 A 
ATOM     15  C   LIG    1        3.193   0.895   0.347  0.00  0.00    +0.020 A 
ATOM     16 CL   LIG    1        2.237   3.410   0.645  0.00  0.00    -0.070 Cl
ATOM     17  C   LIG    1        3.064  -0.473   0.224  0.00  0.00    +0.080 A 
ENDBRANCH   6  11
BRANCH   1  18
ATOM     18  C   LIG    1        4.509  -3.340  -3.965  0.00  0.00    +0.330 C 
BRANCH  18  19
ATOM     19  C   LIG    1        3.660  -3.004  -5.192  0.00  0.00    +0.060 C 
BRANCH  19  22
ATOM     20  N   LIG    1        4.027  -2.219  -7.509  0.00  0.00    -0.670 N 
ATOM     21  H   LIG    1        3.075  -2.322  -7.663  0.00  0.00    +0.420 HD
ATOM     22  C   LIG    1        4.558  -2.567  -6.320  0.00  0.00    +0.520 C 
ATOM     23  O   LIG    1        5.760  -2.529  -6.159  0.00  0.00    -0.510 OA
BRANCH  20  27
ATOM     24  C   LIG    1        6.471  -0.703 -10.515  0.00  0.00    -0.190 A 
ATOM     25  C   LIG    1        6.755  -0.426  -9.172  0.00  0.00    +0.100 A 
ATOM     26  C   LIG    1        5.947  -0.927  -8.185  0.00  0.00    +0.010 A 
ATOM     27  C   LIG    1        4.845  -1.711  -8.516  0.00  0.00    +0.180 A 
ATOM     28  C   LIG    1        4.561  -1.993  -9.849  0.00  0.00    -0.030 A 
ATOM     29  C   LIG    1        5.361  -1.492 -10.843  0.00  0.00    +0.090 A 
BRANCH  24  31
ATOM     30  C   LIG    1        7.025  -0.468 -13.021  0.00  0.00    +0.070 C 
ATOM     31  C   LIG    1        7.334  -0.169 -11.577  0.00  0.00    +0.390 C 
ATOM     32  O   LIG    1        8.295   0.514 -11.291  0.00  0.00    -0.460 OA
ENDBRANCH  24  31
ENDBRANCH  20  27
ENDBRANCH  19  22
ENDBRANCH  18  19
ENDBRANCH   1  18
TORSDOF 6
