REMARK  Name = ZINCpe00000gMwgh.0
REMARK                            x       y       z     vdW  Elec       q    Type
REMARK                         _______ _______ _______ _____ _____    ______ ____
ROOT
ATOM      1  C   LIG    1        2.150  -2.242   1.405  0.00  0.00    +0.240 C 
ATOM      2  C   LIG    1        2.466  -3.742   1.404  0.00  0.00    +0.030 C 
ATOM      3  C   LIG    1        1.181  -4.502   1.065  0.00  0.00    +0.090 C 
ATOM      4  C   LIG    1        0.538  -3.900  -0.151  0.00  0.00    +0.520 C 
ATOM      5  N   LIG    1        0.829  -2.683  -0.612  0.00  0.00    -0.720 N 
ATOM      6  H   LIG    1        0.340  -2.361  -1.386  0.00  0.00    +0.400 HD
ATOM      7  O   LIG    1       -0.290  -4.556  -0.747  0.00  0.00    -0.540 OA
ATOM      8  C   LIG    1        1.834  -1.806  -0.026  0.00  0.00    +0.330 C 
ENDROOT
BRANCH   8   9
ATOM      9  C   LIG    1        1.315  -0.391  -0.013  0.00  0.00    -0.050 A 
ATOM     10  C   LIG    1        2.053   0.735  -0.014  0.00  0.00    +0.170 A 
ATOM     11  N   LIG    1        1.214   1.781   0.000  0.00  0.00    -0.490 NA
ATOM     12  C   LIG    1       -0.016   1.346   0.009  0.00  0.00    +0.400 A 
ATOM     13  N   LIG    1        0.002  -0.004   0.002  0.00  0.00    -0.450 N 
ATOM     14  C   LIG    1       -1.165  -0.889   0.008  0.00  0.00    +0.330 C 
ENDBRANCH   8   9
BRANCH   1  16
ATOM     15  C   LIG    1        3.481  -1.317   3.225  0.00  0.00    +0.580 C 
ATOM     16  N   LIG    1        3.312  -1.500   1.901  0.00  0.00    -0.710 N 
ATOM     17  H   LIG    1        3.960  -1.140   1.275  0.00  0.00    +0.410 HD
ATOM     18  O   LIG    1        2.669  -1.768   4.009  0.00  0.00    -0.510 OA
BRANCH  15  25
ATOM     19  C   LIG    1        4.824  -0.381   5.101  0.00  0.00    +0.150 A 
ATOM     20  C   LIG    1        5.936   0.327   5.552  0.00  0.00    -0.030 A 
ATOM     21  C   LIG    1        6.828   0.818   4.616  0.00  0.00    -0.070 A 
ATOM     22  C   LIG    1        6.594   0.594   3.267  0.00  0.00    +0.230 A 
ATOM     23  N   LIG    1        5.541  -0.082   2.865  0.00  0.00    -0.420 NA
ATOM     24  C   LIG    1        8.044   1.590   5.057  0.00  0.00    +0.110 C 
ATOM     25  C   LIG    1        4.653  -0.568   3.725  0.00  0.00    +0.030 A 
BRANCH  19  27
ATOM     26  C   LIG    1        4.170  -0.646   7.369  0.00  0.00    +0.250 C 
ATOM     27  O   LIG    1        3.922  -0.882   5.981  0.00  0.00    -0.270 OA
ENDBRANCH  19  27
ENDBRANCH  15  25
ENDBRANCH   1  16
TORSDOF 4
