REMARK  Name = ZINCrg00000SjSng.0
REMARK                            x       y       z     vdW  Elec       q    Type
REMARK                         _______ _______ _______ _____ _____    ______ ____
ROOT
ATOM      1  C   LIG    1       -0.718   1.572   1.248  0.00  0.00    -0.030 A 
ATOM      2  C   LIG    1       -0.360   2.779   1.819  0.00  0.00    -0.010 A 
ATOM      3  C   LIG    1       -1.010   3.227   2.953  0.00  0.00    +0.120 A 
ATOM      4  C   LIG    1       -2.012   2.463   3.523  0.00  0.00    -0.680 A 
ATOM      5  C   LIG    1       -2.366   1.254   2.955  0.00  0.00    +0.120 A 
ATOM      6  C   LIG    1       -1.719   0.808   1.818  0.00  0.00    -0.010 A 
ENDROOT
BRANCH   4   7
ATOM      7  S   LIG    1       -2.836   3.031   4.973  0.00  0.00    +2.690 S 
ATOM      8  O   LIG    1       -4.101   2.384   4.995  0.00  0.00    -0.950 OA
ATOM      9  O   LIG    1       -2.685   4.444   4.993  0.00  0.00    -0.950 OA
BRANCH   7  10
ATOM     10  N   LIG    1       -1.992   2.453   6.275  0.00  0.00    -1.000 NA
ATOM     11  C   LIG    1       -2.324   1.151   6.876  0.00  0.00    +0.280 C 
ATOM     12  C   LIG    1       -1.028   0.334   6.998  0.00  0.00    +0.220 C 
ATOM     13  O   LIG    1       -0.044   1.115   7.681  0.00  0.00    -0.370 OA
ATOM     14  C   LIG    1        0.332   2.312   6.995  0.00  0.00    +0.220 C 
ATOM     15  C   LIG    1       -0.891   3.228   6.870  0.00  0.00    +0.280 C 
ENDBRANCH   7  10
ENDBRANCH   4   7
BRANCH   1  16
ATOM     16  C   LIG    1       -0.013   1.086   0.008  0.00  0.00    +0.110 C 
BRANCH  16  17
ATOM     17  C   LIG    1       -0.753   1.593  -1.232  0.00  0.00    +0.060 C 
BRANCH  17  19
ATOM     18  O   LIG    1        0.949   0.422  -2.373  0.00  0.00    -0.540 OA
ATOM     19  C   LIG    1       -0.047   1.107  -2.471  0.00  0.00    +0.510 C 
ATOM     20  N   LIG    1       -0.524   1.433  -3.689  0.00  0.00    -0.730 N 
ATOM     21  H   LIG    1       -1.321   1.980  -3.768  0.00  0.00    +0.400 HD
BRANCH  20  22
ATOM     22  C   LIG    1        0.162   0.960  -4.895  0.00  0.00    +0.230 C 
ATOM     23  C   LIG    1        1.300   1.922  -5.244  0.00  0.00    +0.010 C 
ATOM     24  C   LIG    1        2.016   1.428  -6.503  0.00  0.00    -0.010 C 
ATOM     25  C   LIG    1        1.022   1.370  -7.665  0.00  0.00    +0.160 C 
ATOM     26  C   LIG    1       -0.115   0.408  -7.316  0.00  0.00    +0.040 C 
ATOM     27  C   LIG    1       -0.832   0.901  -6.057  0.00  0.00    +0.030 C 
BRANCH  25  28
ATOM     28  O   LIG    1        1.691   0.909  -8.841  0.00  0.00    -0.570 OA
ATOM     29  H   LIG    1        2.426   1.472  -9.121  0.00  0.00    +0.380 HD
ENDBRANCH  25  28
ENDBRANCH  20  22
ENDBRANCH  17  19
ENDBRANCH  16  17
ENDBRANCH   1  16
TORSDOF 7
