REMARK  Name = ZINCqH0000001OVH.0
REMARK                            x       y       z     vdW  Elec       q    Type
REMARK                         _______ _______ _______ _____ _____    ______ ____
ROOT
ATOM      1  C   LIG    1       -2.181  -4.213  -0.284  0.00  0.00    -0.100 A 
ATOM      2  C   LIG    1       -0.951  -4.844  -0.292  0.00  0.00    +0.010 A 
ATOM      3  C   LIG    1        0.212  -4.101  -0.200  0.00  0.00    +0.030 A 
ATOM      4  C   LIG    1        0.147  -2.724  -0.105  0.00  0.00    +0.030 A 
ATOM      5  C   LIG    1       -1.087  -2.088  -0.091  0.00  0.00    +0.170 A 
ATOM      6  C   LIG    1       -2.252  -2.837  -0.184  0.00  0.00    -0.010 A 
ENDROOT
BRANCH   5   7
ATOM      7  N   LIG    1       -1.156  -0.694   0.009  0.00  0.00    -0.690 N 
ATOM      8  H   LIG    1       -1.867  -0.210  -0.439  0.00  0.00    +0.410 HD
ATOM      9  C   LIG    1       -0.234  -0.024   0.729  0.00  0.00    +0.710 C 
ATOM     10  N   LIG    1       -0.236   1.324   0.739  0.00  0.00    -0.740 N 
ATOM     11  H   LIG    1       -0.899   1.812   0.225  0.00  0.00    +0.400 HD
ATOM     12  O   LIG    1        0.600  -0.635   1.369  0.00  0.00    -0.570 OA
BRANCH  10  13
ATOM     13  C   LIG    1        0.766   2.052   1.521  0.00  0.00    +0.350 C 
BRANCH  13  14
ATOM     14  C   LIG    1        0.546   3.535   1.363  0.00  0.00    -0.170 A 
ATOM     15  C   LIG    1        1.180   4.234   0.348  0.00  0.00    +0.090 A 
ATOM     16  C   LIG    1        0.943   5.596   0.238  0.00  0.00    -0.030 A 
ATOM     17  C   LIG    1        0.099   6.209   1.145  0.00  0.00    +0.270 A 
ATOM     18  N   LIG    1       -0.483   5.512   2.102  0.00  0.00    -0.480 NA
ATOM     19  C   LIG    1       -0.286   4.215   2.233  0.00  0.00    +0.280 A 
ENDBRANCH  13  14
ENDBRANCH  10  13
ENDBRANCH   5   7
BRANCH   1  20
ATOM     20  C   LIG    1       -3.445  -5.027  -0.384  0.00  0.00    +0.350 C 
BRANCH  20  25
ATOM     21  C   LIG    1       -3.344  -6.131  -2.640  0.00  0.00    +0.220 A 
ATOM     22  N   LIG    1       -3.901  -5.959  -3.807  0.00  0.00    -0.490 NA
ATOM     23  C   LIG    1       -4.729  -4.905  -3.751  0.00  0.00    +0.140 A 
ATOM     24  C   LIG    1       -4.688  -4.409  -2.499  0.00  0.00    +0.110 A 
ATOM     25  N   LIG    1       -3.812  -5.189  -1.793  0.00  0.00    -0.450 N 
BRANCH  21  27
ATOM     26  C   LIG    1       -2.977  -8.581  -2.521  0.00  0.00    +0.040 C 
ATOM     27  C   LIG    1       -2.346  -7.206  -2.293  0.00  0.00    +0.070 C 
ATOM     28  C   LIG    1       -1.109  -7.059  -3.182  0.00  0.00    +0.050 C 
ENDBRANCH  21  27
ENDBRANCH  20  25
ENDBRANCH   1  20
TORSDOF 6
