REMARK  Name = ZINCvU0000000Gio.0
REMARK                            x       y       z     vdW  Elec       q    Type
REMARK                         _______ _______ _______ _____ _____    ______ ____
ROOT
ATOM      1  C   LIG    1        4.627   3.314  -4.476  0.00  0.00    +0.170 C 
ATOM      2  C   LIG    1        3.823   3.899  -3.342  0.00  0.00    +0.140 A 
ATOM      3  N   LIG    1        3.670   3.366  -2.168  0.00  0.00    -0.260 NA
ATOM      4  N   LIG    1        2.858   4.192  -1.385  0.00  0.00    -0.340 N 
ATOM      5  C   LIG    1        2.516   5.284  -2.134  0.00  0.00    +0.040 A 
ATOM      6  S   LIG    1        1.606   6.788  -2.082  0.00  0.00    +0.180 S 
ATOM      7  C   LIG    1        2.051   7.167  -3.738  0.00  0.00    -0.270 A 
ATOM      8  C   LIG    1        2.829   6.199  -4.246  0.00  0.00    +0.190 A 
ATOM      9  C   LIG    1        3.106   5.135  -3.378  0.00  0.00    -0.230 A 
ENDROOT
BRANCH   7  10
ATOM     10  C   LIG    1        1.633   8.371  -4.462  0.00  0.00    +0.600 C 
ATOM     11  N   LIG    1        0.849   9.283  -3.856  0.00  0.00    -0.730 N 
ATOM     12  H   LIG    1        0.561   9.144  -2.940  0.00  0.00    +0.400 HD
ATOM     13  O   LIG    1        1.994   8.546  -5.611  0.00  0.00    -0.520 OA
BRANCH  11  14
ATOM     14  C   LIG    1        0.431  10.487  -4.579  0.00  0.00    +0.290 C 
BRANCH  14  15
ATOM     15  C   LIG    1       -0.446  11.350  -3.670  0.00  0.00    +0.150 C 
BRANCH  15  16
ATOM     16  C   LIG    1       -0.876  12.588  -4.415  0.00  0.00    +0.090 A 
ATOM     17  N   LIG    1       -1.939  12.669  -5.123  0.00  0.00    -0.460 NA
ATOM     18  C   LIG    1       -2.201  13.842  -5.731  0.00  0.00    +0.080 A 
ATOM     19  C   LIG    1       -3.285  14.206  -6.553  0.00  0.00    +0.080 A 
ATOM     20  C   LIG    1       -3.360  15.460  -7.081  0.00  0.00    +0.030 A 
ATOM     21  C   LIG    1       -2.374  16.400  -6.820  0.00  0.00    +0.040 A 
ATOM     22  C   LIG    1       -1.303  16.072  -6.018  0.00  0.00    +0.060 A 
ATOM     23  C   LIG    1       -1.210  14.795  -5.471  0.00  0.00    -0.180 A 
ATOM     24  S   LIG    1       -0.003  14.053  -4.425  0.00  0.00    +0.110 S 
ENDBRANCH  15  16
ENDBRANCH  14  15
ENDBRANCH  11  14
ENDBRANCH   7  10
BRANCH   4  25
ATOM     25  C   LIG    1        2.451   3.936  -0.001  0.00  0.00    +0.390 C 
BRANCH  25  26
ATOM     26  C   LIG    1        1.156   3.166   0.007  0.00  0.00    -0.140 A 
ATOM     27  C   LIG    1        1.175   1.783   0.000  0.00  0.00    +0.080 A 
ATOM     28  C   LIG    1       -0.013   1.076   0.008  0.00  0.00    -0.020 A 
ATOM     29  C   LIG    1       -1.221   1.752   0.017  0.00  0.00    +0.110 A 
ATOM     30  C   LIG    1       -1.238   3.136   0.030  0.00  0.00    -0.010 A 
ATOM     31  F   LIG    1       -2.382   1.062   0.019  0.00  0.00    -0.130 F 
ATOM     32  C   LIG    1       -0.050   3.842   0.022  0.00  0.00    +0.060 A 
ENDBRANCH  25  26
ENDBRANCH   4  25
TORSDOF 6
