REMARK  Name = ZINCrD00000F5LHK.0
REMARK                            x       y       z     vdW  Elec       q    Type
REMARK                         _______ _______ _______ _____ _____    ______ ____
ROOT
ATOM      1  C   LIG    1       -1.312   2.115   0.027  0.00  0.00    +0.080 A 
ATOM      2  N   LIG    1       -2.500   1.581   0.219  0.00  0.00    -0.250 NA
ATOM      3  N   LIG    1       -3.416   2.480   0.173  0.00  0.00    -0.380 N 
ATOM      4  H   LIG    1       -4.365   2.315   0.290  0.00  0.00    +0.440 HD
ATOM      5  C   LIG    1       -2.856   3.703  -0.071  0.00  0.00    -0.040 A 
ATOM      6  C   LIG    1       -1.493   3.496  -0.170  0.00  0.00    +0.040 A 
ENDROOT
BRANCH   1  10
ATOM      7  C   LIG    1        2.399   0.035  -0.019  0.00  0.00    +0.140 A 
ATOM      8  C   LIG    1        1.219  -0.660   0.209  0.00  0.00    -0.080 A 
ATOM      9  C   LIG    1        0.014   0.013   0.226  0.00  0.00    +0.080 A 
ATOM     10  C   LIG    1       -0.017   1.389   0.015  0.00  0.00    -0.050 A 
ATOM     11  C   LIG    1        1.170   2.084  -0.213  0.00  0.00    +0.080 A 
ATOM     12  C   LIG    1        2.371   1.406  -0.230  0.00  0.00    -0.010 A 
BRANCH   7  13
ATOM     13  O   LIG    1        3.584  -0.630  -0.036  0.00  0.00    -0.310 OA
BRANCH  13  15
ATOM     14  C   LIG    1        4.784  -2.660  -0.568  0.00  0.00    +0.070 C 
ATOM     15  C   LIG    1        3.531  -2.054   0.067  0.00  0.00    +0.150 C 
ATOM     16  C   LIG    1        3.462  -2.456   1.542  0.00  0.00    +0.020 C 
ENDBRANCH  13  15
ENDBRANCH   7  13
ENDBRANCH   1  10
BRANCH   5  17
ATOM     17  C   LIG    1       -3.564   4.986  -0.202  0.00  0.00    +0.610 C 
ATOM     18  N   LIG    1       -4.906   5.030  -0.080  0.00  0.00    -0.590 N 
ATOM     19  H   LIG    1       -5.404   4.217   0.095  0.00  0.00    +0.380 HD
ATOM     20  O   LIG    1       -2.939   6.006  -0.421  0.00  0.00    -0.470 OA
BRANCH  18  21
ATOM     21  N   LIG    1       -5.580   6.252  -0.204  0.00  0.00    -0.200 NA
ATOM     22  C   LIG    1       -6.872   6.295  -0.087  0.00  0.00    +0.230 C 
BRANCH  22  23
ATOM     23  C   LIG    1       -7.581   7.580  -0.218  0.00  0.00    -0.090 A 
ATOM     24  C   LIG    1       -8.971   7.631  -0.092  0.00  0.00    +0.060 A 
ATOM     25  C   LIG    1       -9.629   8.837  -0.216  0.00  0.00    -0.010 A 
ATOM     26  C   LIG    1       -8.917   9.998  -0.466  0.00  0.00    +0.050 A 
ATOM     27  C   LIG    1       -7.541   9.961  -0.593  0.00  0.00    -0.020 A 
ATOM     28  C   LIG    1       -6.864   8.759  -0.465  0.00  0.00    +0.150 A 
BRANCH  28  29
ATOM     29  O   LIG    1       -5.512   8.723  -0.583  0.00  0.00    -0.470 OA
ATOM     30  H   LIG    1       -5.200   8.579  -1.487  0.00  0.00    +0.390 HD
ENDBRANCH  28  29
ENDBRANCH  22  23
ENDBRANCH  18  21
ENDBRANCH   5  17
TORSDOF 7
