REMARK  Name = ZINCrD00000rR4Yk.0
REMARK                            x       y       z     vdW  Elec       q    Type
REMARK                         _______ _______ _______ _____ _____    ______ ____
ROOT
ATOM      1  C   LIG    1       -3.747  -1.078   0.014  0.00  0.00    +0.550 C 
ATOM      2  N   LIG    1       -3.735  -2.425   0.006  0.00  0.00    -0.610 N 
ATOM      3  C   LIG    1       -2.460  -3.147  -0.004  0.00  0.00    +0.290 C 
ATOM      4  O   LIG    1       -4.806  -0.478   0.022  0.00  0.00    -0.540 OA
ENDROOT
BRANCH   1   6
ATOM      5  C   LIG    1       -2.498   1.015   0.019  0.00  0.00    +0.140 C 
ATOM      6  C   LIG    1       -2.486  -0.335   0.012  0.00  0.00    -0.090 C 
BRANCH   5  11
ATOM      7  C   LIG    1        1.174   1.785   0.000  0.00  0.00    +0.090 A 
ATOM      8  C   LIG    1        1.158   3.174   0.008  0.00  0.00    -0.020 A 
ATOM      9  C   LIG    1       -0.042   3.859   0.022  0.00  0.00    -0.030 A 
ATOM     10  C   LIG    1       -1.240   3.164   0.029  0.00  0.00    +0.120 A 
ATOM     11  C   LIG    1       -1.232   1.761   0.017  0.00  0.00    -0.070 A 
ATOM     12  C   LIG    1       -0.013   1.076   0.008  0.00  0.00    +0.040 A 
BRANCH   7  14
ATOM     13  C   LIG    1        3.549   1.915  -0.021  0.00  0.00    +0.250 C 
ATOM     14  O   LIG    1        2.361   1.121  -0.014  0.00  0.00    -0.320 OA
ENDBRANCH   7  14
BRANCH  10  15
ATOM     15  O   LIG    1       -2.418   3.839   0.042  0.00  0.00    -0.310 OA
ATOM     16  C   LIG    1       -2.349   5.266   0.048  0.00  0.00    +0.250 C 
ENDBRANCH  10  15
ENDBRANCH   5  11
ENDBRANCH   1   6
BRANCH   2  17
ATOM     17  C   LIG    1       -4.997  -3.169   0.008  0.00  0.00    +0.350 C 
BRANCH  17  18
ATOM     18  C   LIG    1       -5.436  -3.416  -1.412  0.00  0.00    -0.110 A 
ATOM     19  C   LIG    1       -6.250  -2.500  -2.051  0.00  0.00    +0.040 A 
ATOM     20  C   LIG    1       -6.652  -2.720  -3.356  0.00  0.00    -0.040 A 
ATOM     21  C   LIG    1       -6.248  -3.866  -4.021  0.00  0.00    +0.100 A 
ATOM     22  C   LIG    1       -5.433  -4.791  -3.376  0.00  0.00    +0.090 A 
ATOM     23  C   LIG    1       -5.029  -4.562  -2.070  0.00  0.00    -0.030 A 
BRANCH  22  24
ATOM     24  O   LIG    1       -5.033  -5.917  -4.025  0.00  0.00    -0.310 OA
ATOM     25  C   LIG    1       -4.197  -6.821  -3.300  0.00  0.00    +0.230 C 
ENDBRANCH  22  24
BRANCH  21  26
ATOM     26  O   LIG    1       -6.647  -4.086  -5.303  0.00  0.00    -0.310 OA
ATOM     27  C   LIG    1       -7.483  -3.094  -5.902  0.00  0.00    +0.250 C 
ENDBRANCH  21  26
ENDBRANCH  17  18
ENDBRANCH   2  17
TORSDOF 8
