REMARK  Name = ZINCrH000004r3eq.0
REMARK                            x       y       z     vdW  Elec       q    Type
REMARK                         _______ _______ _______ _____ _____    ______ ____
ROOT
ATOM      1  C   LIG    1        0.056   3.985   1.681  0.00  0.00    +0.510 C 
ATOM      2  N   LIG    1       -0.565   3.096   0.881  0.00  0.00    -0.610 N 
ATOM      3  C   LIG    1       -1.118   3.507  -0.418  0.00  0.00    +0.280 C 
ATOM      4  C   LIG    1       -0.598   2.547  -1.494  0.00  0.00    +0.170 C 
ATOM      5  N   LIG    1       -0.901   1.165  -1.100  0.00  0.00    -0.540 NA
ATOM      6  C   LIG    1       -0.206   0.801   0.142  0.00  0.00    +0.180 C 
ATOM      7  C   LIG    1       -0.574   0.226  -2.181  0.00  0.00    +0.190 C 
ATOM      8  C   LIG    1       -0.709   1.689   1.285  0.00  0.00    +0.280 C 
ATOM      9  O   LIG    1        0.411   3.656   2.793  0.00  0.00    -0.510 OA
ENDROOT
BRANCH   8  10
ATOM     10  C   LIG    1        0.110   1.431   2.524  0.00  0.00    -0.050 A 
ATOM     11  C   LIG    1        1.489   1.497   2.467  0.00  0.00    +0.010 A 
ATOM     12  C   LIG    1        2.240   1.265   3.605  0.00  0.00    +0.000 A 
ATOM     13  C   LIG    1        1.611   0.959   4.797  0.00  0.00    +0.000 A 
ATOM     14  C   LIG    1        0.231   0.887   4.853  0.00  0.00    +0.010 A 
ATOM     15  C   LIG    1       -0.519   1.124   3.716  0.00  0.00    +0.000 A 
ENDBRANCH   8  10
BRANCH   1  16
ATOM     16  C   LIG    1        0.310   5.388   1.194  0.00  0.00    +0.070 C 
BRANCH  16  17
ATOM     17  C   LIG    1        1.024   6.186   2.287  0.00  0.00    +0.070 C 
BRANCH  17  18
ATOM     18  C   LIG    1        1.278   7.590   1.800  0.00  0.00    +0.400 C 
ATOM     19  O   LIG    1        0.924   7.919   0.688  0.00  0.00    -0.460 OA
BRANCH  18  24
ATOM     20  C   LIG    1        3.927  11.382   5.213  0.00  0.00    +0.090 C 
ATOM     21  C   LIG    1        3.233  10.388   4.318  0.00  0.00    -0.050 A 
ATOM     22  C   LIG    1        3.001   9.100   4.769  0.00  0.00    +0.000 A 
ATOM     23  C   LIG    1        2.366   8.185   3.957  0.00  0.00    +0.060 A 
ATOM     24  C   LIG    1        1.956   8.560   2.674  0.00  0.00    -0.180 A 
ATOM     25  C   LIG    1        2.199   9.862   2.223  0.00  0.00    +0.070 A 
ATOM     26  C   LIG    1        2.830  10.767   3.049  0.00  0.00    -0.100 A 
ATOM     27  C   LIG    1        3.088  12.172   2.568  0.00  0.00    +0.090 C 
ENDBRANCH  18  24
ENDBRANCH  17  18
ENDBRANCH  16  17
ENDBRANCH   1  16
TORSDOF 5
