REMARK  Name = ZINCvU0000000C92.0
REMARK                            x       y       z     vdW  Elec       q    Type
REMARK                         _______ _______ _______ _____ _____    ______ ____
ROOT
ATOM      1  C   LIG    1        0.127  -4.102   7.099  0.00  0.00    +0.140 A 
ATOM      2  N   LIG    1        0.142  -5.372   6.758  0.00  0.00    -0.290 NA
ATOM      3  N   LIG    1        0.162  -6.112   7.809  0.00  0.00    -0.260 NA
ATOM      4  C   LIG    1        0.162  -5.362   8.887  0.00  0.00    +0.240 A 
ATOM      5  N   LIG    1        0.145  -4.050   8.466  0.00  0.00    -0.410 N 
ENDROOT
BRANCH   4   6
ATOM      6  C   LIG    1        0.182  -5.835  10.287  0.00  0.00    -0.030 A 
ATOM      7  C   LIG    1       -0.127  -4.958  11.328  0.00  0.00    +0.030 A 
ATOM      8  C   LIG    1       -0.112  -5.408  12.632  0.00  0.00    +0.010 A 
ATOM      9  C   LIG    1        0.220  -6.722  12.910  0.00  0.00    +0.030 A 
ATOM     10  C   LIG    1        0.533  -7.595  11.883  0.00  0.00    +0.010 A 
ATOM     11  C   LIG    1        0.516  -7.160  10.574  0.00  0.00    +0.070 A 
ENDBRANCH   4   6
BRANCH   5  12
ATOM     12  C   LIG    1        0.145  -2.901   9.270  0.00  0.00    +0.100 A 
ATOM     13  C   LIG    1        1.240  -2.615  10.074  0.00  0.00    +0.030 A 
ATOM     14  C   LIG    1        1.239  -1.480  10.861  0.00  0.00    +0.040 A 
ATOM     15  C   LIG    1        0.144  -0.636  10.858  0.00  0.00    +0.040 A 
ATOM     16  C   LIG    1       -0.951  -0.921  10.062  0.00  0.00    +0.040 A 
ATOM     17  C   LIG    1       -0.953  -2.052   9.268  0.00  0.00    +0.030 A 
ENDBRANCH   5  12
BRANCH   1  18
ATOM     18  S   LIG    1        0.098  -2.725   6.000  0.00  0.00    +0.140 S 
BRANCH  18  19
ATOM     19  C   LIG    1        0.094  -3.592   4.411  0.00  0.00    +0.180 C 
BRANCH  19  27
ATOM     20  C   LIG    1       -0.033  -0.115  -2.498  0.00  0.00    +0.160 C 
ATOM     21  C   LIG    1       -0.004  -0.710  -1.114  0.00  0.00    -0.200 A 
ATOM     22  C   LIG    1        0.002  -0.004   0.002  0.00  0.00    -0.030 A 
ATOM     23  C   LIG    1        0.024  -0.792   1.218  0.00  0.00    -0.220 A 
ATOM     24  C   LIG    1        0.041  -2.153   0.961  0.00  0.00    +0.050 A 
ATOM     25  N   LIG    1        0.062  -3.030   2.024  0.00  0.00    -0.580 N 
ATOM     26  H   LIG    1        0.074  -3.985   1.854  0.00  0.00    +0.430 HD
ATOM     27  C   LIG    1        0.069  -2.585   3.289  0.00  0.00    +0.460 A 
ATOM     28  N   LIG    1        0.054  -1.316   3.588  0.00  0.00    -0.570 NA
ATOM     29  C   LIG    1        0.032  -0.371   2.634  0.00  0.00    +0.550 A 
ATOM     30  O   LIG    1        0.019   0.812   2.931  0.00  0.00    -0.480 OA
ATOM     31  C   LIG    1       -0.018   1.503   0.010  0.00  0.00    +0.130 C 
ATOM     32  S   LIG    1        0.028  -2.430  -0.774  0.00  0.00    +0.180 S 
ENDBRANCH  19  27
ENDBRANCH  18  19
ENDBRANCH   1  18
TORSDOF 5
