REMARK  Name = ZINCpe000000ZxHA.0
REMARK                            x       y       z     vdW  Elec       q    Type
REMARK                         _______ _______ _______ _____ _____    ______ ____
ROOT
ATOM      1  S   LIG    1       -1.323   4.681  -4.678  0.00  0.00    +2.630 S 
ATOM      2  O   LIG    1       -1.972   5.904  -4.356  0.00  0.00    -0.920 OA
ATOM      3  O   LIG    1       -1.494   4.074  -5.952  0.00  0.00    -0.940 OA
ENDROOT
BRANCH   1   7
ATOM      4  C   LIG    1       -3.027   2.578  -1.679  0.00  0.00    +0.260 C 
ATOM      5  C   LIG    1       -3.235   1.670  -2.921  0.00  0.00    +0.050 C 
ATOM      6  C   LIG    1       -2.067   2.132  -3.837  0.00  0.00    +0.260 C 
ATOM      7  N   LIG    1       -1.965   3.586  -3.615  0.00  0.00    -1.010 NA
ATOM      8  C   LIG    1       -2.528   3.902  -2.294  0.00  0.00    +0.270 C 
BRANCH   4  14
ATOM      9  O   LIG    1       -3.151   2.218   1.169  0.00  0.00    -0.530 OA
ATOM     10  C   LIG    1       -2.168   1.877   0.545  0.00  0.00    +0.520 C 
ATOM     11  C   LIG    1       -0.934   1.243   1.149  0.00  0.00    +0.050 C 
ATOM     12  C   LIG    1       -0.189   0.631  -0.059  0.00  0.00    +0.040 C 
ATOM     13  C   LIG    1       -0.708   1.509  -1.224  0.00  0.00    +0.250 C 
ATOM     14  N   LIG    1       -2.016   2.009  -0.784  0.00  0.00    -0.610 N 
ENDBRANCH   4  14
ENDBRANCH   1   7
BRANCH   1  15
ATOM     15  C   LIG    1        0.436   4.759  -4.241  0.00  0.00    -0.320 C 
BRANCH  15  16
ATOM     16  C   LIG    1        1.147   5.750  -5.164  0.00  0.00    +0.160 C 
ATOM     17  C   LIG    1        2.654   5.739  -4.873  0.00  0.00    +0.250 C 
ATOM     18  O   LIG    1        3.286   6.685  -5.742  0.00  0.00    -0.300 OA
ATOM     19  C   LIG    1        2.697   7.907  -5.849  0.00  0.00    +0.050 A 
ATOM     20  C   LIG    1        3.421   8.969  -6.369  0.00  0.00    +0.030 A 
ATOM     21  C   LIG    1        2.834  10.215  -6.487  0.00  0.00    +0.030 A 
ATOM     22  C   LIG    1        1.525  10.406  -6.088  0.00  0.00    +0.030 A 
ATOM     23  C   LIG    1        0.798   9.352  -5.567  0.00  0.00    +0.030 A 
ATOM     24  C   LIG    1        1.381   8.100  -5.445  0.00  0.00    +0.050 A 
ATOM     25  O   LIG    1        0.654   7.073  -4.925  0.00  0.00    -0.300 OA
ENDBRANCH  15  16
ENDBRANCH   1  15
TORSDOF 4
