REMARK  Name = ZINCvU0000000A1Z.0
REMARK                            x       y       z     vdW  Elec       q    Type
REMARK                         _______ _______ _______ _____ _____    ______ ____
ROOT
ATOM      1  C   LIG    1        8.377  -1.601  -0.127  0.00  0.00    +0.120 A 
ATOM      2  C   LIG    1        8.445  -2.988  -0.093  0.00  0.00    +0.060 A 
ATOM      3  C   LIG    1        9.673  -3.619  -0.123  0.00  0.00    +0.020 A 
ATOM      4  C   LIG    1       10.834  -2.871  -0.187  0.00  0.00    +0.010 A 
ATOM      5  C   LIG    1       10.770  -1.490  -0.222  0.00  0.00    -0.660 A 
ATOM      6  C   LIG    1       12.173  -3.563  -0.220  0.00  0.00    +0.120 C 
ATOM      7  C   LIG    1        9.545  -0.853  -0.197  0.00  0.00    +0.150 A 
ENDROOT
BRANCH   1   9
ATOM      8  C   LIG    1        7.006   0.234   0.517  0.00  0.00    +0.510 C 
ATOM      9  N   LIG    1        7.134  -0.959  -0.098  0.00  0.00    -0.670 N 
ATOM     10  H   LIG    1        6.364  -1.372  -0.519  0.00  0.00    +0.420 HD
ATOM     11  O   LIG    1        7.944   0.706   1.125  0.00  0.00    -0.480 OA
BRANCH   8  12
ATOM     12  C   LIG    1        5.699   0.980   0.449  0.00  0.00    +0.240 C 
BRANCH  12  13
ATOM     13  O   LIG    1        5.813   2.208   1.172  0.00  0.00    -0.280 OA
BRANCH  13  17
ATOM     14  C   LIG    1        3.681   6.333   2.675  0.00  0.00    +0.120 C 
ATOM     15  C   LIG    1        3.637   5.023   1.931  0.00  0.00    -0.030 A 
ATOM     16  C   LIG    1        4.755   4.213   1.894  0.00  0.00    +0.000 A 
ATOM     17  C   LIG    1        4.714   3.006   1.210  0.00  0.00    +0.140 A 
ATOM     18  C   LIG    1        3.550   2.616   0.564  0.00  0.00    -0.070 A 
ATOM     19  C   LIG    1        2.434   3.429   0.604  0.00  0.00    +0.080 A 
ATOM     20  C   LIG    1        2.476   4.632   1.287  0.00  0.00    -0.070 A 
ATOM     21 CL   LIG    1        1.070   5.648   1.341  0.00  0.00    -0.060 Cl
ENDBRANCH  13  17
ENDBRANCH  12  13
ENDBRANCH   8  12
ENDBRANCH   1   9
BRANCH   5  22
ATOM     22  S   LIG    1       12.253  -0.542  -0.305  0.00  0.00    +2.690 S 
ATOM     23  O   LIG    1       11.858   0.823  -0.299  0.00  0.00    -0.940 OA
ATOM     24  O   LIG    1       13.040  -1.118  -1.338  0.00  0.00    -0.940 OA
BRANCH  22  25
ATOM     25  N   LIG    1       13.078  -0.796   1.109  0.00  0.00    -1.060 N 
ATOM     26  H   LIG    1       13.957  -1.204   1.090  0.00  0.00    +0.430 HD
BRANCH  25  27
ATOM     27  C   LIG    1       12.506  -0.423   2.328  0.00  0.00    +0.140 A 
ATOM     28  C   LIG    1       11.907   0.823   2.463  0.00  0.00    +0.030 A 
ATOM     29  C   LIG    1       11.338   1.187   3.667  0.00  0.00    +0.060 A 
ATOM     30  C   LIG    1       11.373   0.316   4.742  0.00  0.00    -0.040 A 
ATOM     31  C   LIG    1       11.973  -0.924   4.612  0.00  0.00    +0.050 A 
ATOM     32 CL   LIG    1       10.662   0.780   6.257  0.00  0.00    -0.070 Cl
ATOM     33  C   LIG    1       12.540  -1.295   3.408  0.00  0.00    +0.020 A 
ENDBRANCH  25  27
ENDBRANCH  22  25
ENDBRANCH   5  22
TORSDOF 7
