REMARK  Name = ZINCnE00000k6aw9.0
REMARK                            x       y       z     vdW  Elec       q    Type
REMARK                         _______ _______ _______ _____ _____    ______ ____
ROOT
ATOM      1  C   LIG    1        4.633  -2.671   0.974  0.00  0.00    -0.100 A 
ATOM      2  C   LIG    1        5.319  -1.943   0.017  0.00  0.00    -0.060 A 
ATOM      3  C   LIG    1        4.726  -0.846  -0.584  0.00  0.00    +0.010 A 
ATOM      4  C   LIG    1        3.446  -0.471  -0.233  0.00  0.00    -0.050 A 
ATOM      5  C   LIG    1        2.748  -1.201   0.732  0.00  0.00    +0.220 A 
ATOM      6  C   LIG    1        3.354  -2.304   1.339  0.00  0.00    -0.030 A 
ENDROOT
BRANCH   5   7
ATOM      7  N   LIG    1        1.478  -0.835   1.085  0.00  0.00    -0.660 NA
ATOM      8  C   LIG    1        1.196   0.432   1.309  0.00  0.00    +0.450 A 
ATOM      9  N   LIG    1        2.064   1.485   1.229  0.00  0.00    -0.490 NA
ATOM     10  N   LIG    1        1.326   2.634   1.550  0.00  0.00    -0.300 NA
ATOM     11  C   LIG    1        0.112   2.273   1.799  0.00  0.00    +0.140 A 
ATOM     12  O   LIG    1       -0.002   0.938   1.662  0.00  0.00    -0.280 OA
BRANCH  11  13
ATOM     13  C   LIG    1       -1.009   3.205   2.180  0.00  0.00    -0.030 C 
ATOM     14  C   LIG    1       -1.515   4.177   1.111  0.00  0.00    +0.040 C 
ATOM     15  C   LIG    1       -2.037   2.635   3.160  0.00  0.00    +0.080 C 
ATOM     16  C   LIG    1       -0.684   4.697   2.286  0.00  0.00    +0.060 C 
ENDBRANCH  11  13
ENDBRANCH   5   7
BRANCH   1  17
ATOM     17  C   LIG    1        5.287  -3.863   1.623  0.00  0.00    +0.330 C 
BRANCH  17  23
ATOM     18  C   LIG    1        8.109  -2.628   1.950  0.00  0.00    +0.160 C 
ATOM     19  C   LIG    1        7.124  -2.917   3.053  0.00  0.00    +0.210 A 
ATOM     20  N   LIG    1        7.314  -2.684   4.323  0.00  0.00    -0.500 NA
ATOM     21  C   LIG    1        6.229  -3.071   5.011  0.00  0.00    +0.130 A 
ATOM     22  C   LIG    1        5.331  -3.557   4.133  0.00  0.00    +0.120 A 
ATOM     23  N   LIG    1        5.896  -3.456   2.891  0.00  0.00    -0.440 N 
ENDBRANCH  17  23
ENDBRANCH   1  17
TORSDOF 4
