REMARK  Name = ZINCvU0000000Jux.0
REMARK                            x       y       z     vdW  Elec       q    Type
REMARK                         _______ _______ _______ _____ _____    ______ ____
ROOT
ATOM      1  C   LIG    1        7.278  -2.571   4.440  0.00  0.00    +0.510 C 
ATOM      2  N   LIG    1        8.422  -2.658   5.147  0.00  0.00    -0.670 N 
ATOM      3  H   LIG    1        9.142  -2.030   4.983  0.00  0.00    +0.420 HD
ATOM      4  O   LIG    1        6.346  -3.302   4.702  0.00  0.00    -0.510 OA
ENDROOT
BRANCH   2   5
ATOM      5  C   LIG    1        8.571  -3.657   6.118  0.00  0.00    +0.140 A 
ATOM      6  C   LIG    1        7.485  -4.038   6.894  0.00  0.00    +0.040 A 
ATOM      7  C   LIG    1        7.631  -5.027   7.847  0.00  0.00    +0.010 A 
ATOM      8  C   LIG    1        8.866  -5.631   8.037  0.00  0.00    +0.070 A 
ATOM      9  C   LIG    1        9.953  -5.246   7.265  0.00  0.00    +0.040 A 
ATOM     10  C   LIG    1        9.806  -4.262   6.308  0.00  0.00    +0.020 A 
BRANCH   8  11
ATOM     11  O   LIG    1        9.010  -6.600   8.979  0.00  0.00    -0.260 OA
BRANCH  11  12
ATOM     12  C   LIG    1        8.420  -7.803   8.753  0.00  0.00    +0.120 A 
ATOM     13  C   LIG    1        7.787  -8.050   7.543  0.00  0.00    -0.060 A 
ATOM     14  C   LIG    1        7.191  -9.275   7.314  0.00  0.00    +0.050 A 
ATOM     15  C   LIG    1        7.216 -10.251   8.293  0.00  0.00    -0.020 A 
ATOM     16  C   LIG    1        7.842 -10.006   9.502  0.00  0.00    +0.050 A 
ATOM     17  C   LIG    1        8.444  -8.784   9.734  0.00  0.00    -0.020 A 
ENDBRANCH  11  12
ENDBRANCH   8  11
ENDBRANCH   2   5
BRANCH   1  19
ATOM     18  C   LIG    1        8.225  -1.849   2.265  0.00  0.00    +0.050 C 
ATOM     19  C   LIG    1        7.157  -1.566   3.323  0.00  0.00    +0.250 C 
BRANCH  19  20
ATOM     20  N   LIG    1        5.828  -1.670   2.715  0.00  0.00    -0.730 N 
ATOM     21  H   LIG    1        5.332  -2.502   2.771  0.00  0.00    +0.410 HD
BRANCH  20  22
ATOM     22  C   LIG    1        5.274  -0.570   2.056  0.00  0.00    +0.240 A 
ATOM     23  C   LIG    1        5.983   0.623   1.976  0.00  0.00    -0.100 A 
ATOM     24  C   LIG    1        5.436   1.711   1.324  0.00  0.00    +0.090 A 
ATOM     25  C   LIG    1        4.183   1.617   0.750  0.00  0.00    -0.060 A 
ATOM     26  C   LIG    1        3.469   0.428   0.826  0.00  0.00    +0.210 A 
ATOM     27  C   LIG    1        4.012  -0.665   1.485  0.00  0.00    -0.110 A 
BRANCH  26  28
ATOM     28  N   LIG    1        2.199   0.335   0.245  0.00  0.00    -0.560 N 
ATOM     29  C   LIG    1        1.413  -0.902   0.166  0.00  0.00    +0.260 C 
ATOM     30  C   LIG    1        0.333  -0.637  -0.906  0.00  0.00    +0.060 C 
ATOM     31  C   LIG    1        0.207   0.903  -0.852  0.00  0.00    +0.070 C 
ATOM     32  C   LIG    1        1.543   1.366  -0.314  0.00  0.00    +0.520 C 
ATOM     33  O   LIG    1        1.962   2.503  -0.378  0.00  0.00    -0.510 OA
ENDBRANCH  26  28
ENDBRANCH  20  22
ENDBRANCH  19  20
ENDBRANCH   1  19
TORSDOF 7
