REMARK  Name = ZINCrD0000075DSx.1
REMARK                            x       y       z     vdW  Elec       q    Type
REMARK                         _______ _______ _______ _____ _____    ______ ____
ROOT
ATOM      1  O   LIG    1        4.746   5.166  -0.706  0.00  0.00    -0.580 OA
ATOM      2  C   LIG    1        4.140   4.630  -1.614  0.00  0.00    +0.730 C 
ATOM      3  N   LIG    1        4.627   4.677  -2.870  0.00  0.00    -0.640 N 
ATOM      4  C   LIG    1        3.999   4.075  -4.055  0.00  0.00    +0.240 C 
ATOM      5  C   LIG    1        4.896   4.407  -5.266  0.00  0.00    +0.060 C 
ATOM      6  C   LIG    1        5.681   5.656  -4.786  0.00  0.00    +0.100 C 
ATOM      7  C   LIG    1        5.875   5.345  -3.283  0.00  0.00    +0.310 C 
ATOM      8  N   LIG    1        2.981   3.990  -1.364  0.00  0.00    -0.740 N 
ATOM      9  H   LIG    1        2.497   3.562  -2.088  0.00  0.00    +0.400 HD
ENDROOT
BRANCH   6  10
ATOM     10  C   LIG    1        7.008   5.765  -5.493  0.00  0.00    +0.240 A 
ATOM     11  N   LIG    1        7.965   4.876  -5.454  0.00  0.00    -0.310 NA
ATOM     12  N   LIG    1        9.012   5.371  -6.249  0.00  0.00    -0.480 N 
ATOM     13  H   LIG    1        9.863   4.941  -6.423  0.00  0.00    +0.440 HD
ATOM     14  C   LIG    1        8.601   6.563  -6.716  0.00  0.00    +0.500 A 
ATOM     15  N   LIG    1        7.397   6.787  -6.255  0.00  0.00    -0.540 NA
ENDBRANCH   6  10
BRANCH   8  16
ATOM     16  C   LIG    1        2.451   3.939   0.001  0.00  0.00    +0.340 C 
BRANCH  16  17
ATOM     17  C   LIG    1        1.155   3.170   0.009  0.00  0.00    -0.150 A 
ATOM     18  C   LIG    1       -0.049   3.850   0.024  0.00  0.00    +0.080 A 
ATOM     19  C   LIG    1       -1.239   3.151   0.032  0.00  0.00    +0.020 A 
ATOM     20  C   LIG    1       -1.228   1.758   0.017  0.00  0.00    -0.000 A 
ATOM     21  C   LIG    1       -0.013   1.076   0.008  0.00  0.00    -0.010 A 
ATOM     22  C   LIG    1        1.174   1.785   0.000  0.00  0.00    +0.120 A 
ATOM     23  F   LIG    1        2.353   1.126  -0.014  0.00  0.00    -0.130 F 
BRANCH  20  24
ATOM     24  C   LIG    1       -2.505   1.002   0.019  0.00  0.00    -0.060 A 
ATOM     25  C   LIG    1       -2.493  -0.391   0.006  0.00  0.00    +0.020 A 
ATOM     26  C   LIG    1       -3.684  -1.089   0.012  0.00  0.00    +0.010 A 
ATOM     27  C   LIG    1       -4.888  -0.407   0.022  0.00  0.00    +0.020 A 
ATOM     28  C   LIG    1       -4.905   0.976   0.030  0.00  0.00    +0.010 A 
ATOM     29  C   LIG    1       -3.720   1.684   0.029  0.00  0.00    +0.030 A 
ENDBRANCH  20  24
ENDBRANCH  16  17
ENDBRANCH   8  16
TORSDOF 4
