REMARK  Name = ZINCrD0000075DSx.0
REMARK                            x       y       z     vdW  Elec       q    Type
REMARK                         _______ _______ _______ _____ _____    ______ ____
ROOT
ATOM      1  O   LIG    1       -1.204   2.840   0.023  0.00  0.00    -0.580 OA
ATOM      2  C   LIG    1       -1.187   1.624   0.017  0.00  0.00    +0.730 C 
ATOM      3  N   LIG    1       -2.345   0.934   0.018  0.00  0.00    -0.640 N 
ATOM      4  C   LIG    1       -2.470  -0.531   0.004  0.00  0.00    +0.240 C 
ATOM      5  C   LIG    1       -3.977  -0.862   0.042  0.00  0.00    +0.060 C 
ATOM      6  C   LIG    1       -4.604   0.426   0.637  0.00  0.00    +0.110 C 
ATOM      7  C   LIG    1       -3.696   1.524   0.028  0.00  0.00    +0.280 C 
ATOM      8  N   LIG    1       -0.011   0.966   0.007  0.00  0.00    -0.740 N 
ATOM      9  H   LIG    1        0.002  -0.004   0.002  0.00  0.00    +0.400 HD
ENDROOT
BRANCH   6  10
ATOM     10  C   LIG    1       -6.031   0.592   0.184  0.00  0.00    +0.190 A 
ATOM     11  N   LIG    1       -7.101   0.311   0.877  0.00  0.00    -0.280 NA
ATOM     12  N   LIG    1       -8.149   0.578   0.183  0.00  0.00    -0.290 NA
ATOM     13  C   LIG    1       -7.797   1.033  -0.989  0.00  0.00    +0.380 A 
ATOM     14  N   LIG    1       -6.442   1.054  -1.022  0.00  0.00    -0.580 N 
ATOM     15  H   LIG    1       -5.881   1.342  -1.758  0.00  0.00    +0.430 HD
ENDBRANCH   6  10
BRANCH   8  16
ATOM     16  C   LIG    1        1.248   1.716  -0.001  0.00  0.00    +0.340 C 
BRANCH  16  17
ATOM     17  C   LIG    1        2.406   0.752  -0.017  0.00  0.00    -0.150 A 
ATOM     18  C   LIG    1        3.123   0.556  -1.183  0.00  0.00    +0.080 A 
ATOM     19  C   LIG    1        4.186  -0.325  -1.203  0.00  0.00    +0.020 A 
ATOM     20  C   LIG    1        4.536  -1.018  -0.047  0.00  0.00    -0.000 A 
ATOM     21  C   LIG    1        3.812  -0.819   1.126  0.00  0.00    -0.010 A 
ATOM     22  C   LIG    1        2.753   0.069   1.138  0.00  0.00    +0.120 A 
ATOM     23  F   LIG    1        2.052   0.269   2.276  0.00  0.00    -0.130 F 
BRANCH  20  24
ATOM     24  C   LIG    1        5.678  -1.967  -0.065  0.00  0.00    -0.060 A 
ATOM     25  C   LIG    1        6.398  -2.171  -1.240  0.00  0.00    +0.030 A 
ATOM     26  C   LIG    1        7.463  -3.050  -1.249  0.00  0.00    +0.010 A 
ATOM     27  C   LIG    1        7.806  -3.736  -0.098  0.00  0.00    +0.020 A 
ATOM     28  C   LIG    1        7.091  -3.542   1.069  0.00  0.00    +0.010 A 
ATOM     29  C   LIG    1        6.028  -2.661   1.091  0.00  0.00    +0.020 A 
ENDBRANCH  20  24
ENDBRANCH  16  17
ENDBRANCH   8  16
TORSDOF 4
