REMARK  Name = ZINCvU0000000A5j.0
REMARK                            x       y       z     vdW  Elec       q    Type
REMARK                         _______ _______ _______ _____ _____    ______ ____
ROOT
ATOM      1  C   LIG    1       -0.015   1.195   0.204  0.00  0.00    +0.520 C 
ATOM      2  N   LIG    1       -1.193   1.849   0.246  0.00  0.00    -0.730 N 
ATOM      3  H   LIG    1       -1.216   2.813   0.142  0.00  0.00    +0.400 HD
ATOM      4  O   LIG    1        0.014  -0.010   0.334  0.00  0.00    -0.520 OA
ENDROOT
BRANCH   1   5
ATOM      5  C   LIG    1        1.265   1.961  -0.011  0.00  0.00    +0.120 C 
BRANCH   5   9
ATOM      6  C   LIG    1        4.563  -0.757  -0.048  0.00  0.00    +0.160 A 
ATOM      7  C   LIG    1        3.905  -0.445  -1.231  0.00  0.00    +0.020 A 
ATOM      8  C   LIG    1        2.839   0.433  -1.215  0.00  0.00    +0.040 A 
ATOM      9  C   LIG    1        2.427   1.002  -0.024  0.00  0.00    -0.080 A 
ATOM     10  C   LIG    1        3.084   0.699   1.154  0.00  0.00    +0.050 A 
ATOM     11  C   LIG    1        4.147  -0.183   1.146  0.00  0.00    -0.010 A 
BRANCH   6  13
ATOM     12  C   LIG    1        6.467  -1.691  -1.127  0.00  0.00    +0.650 C 
ATOM     13  N   LIG    1        5.644  -1.646  -0.061  0.00  0.00    -0.650 N 
ATOM     14  H   LIG    1        5.800  -2.230   0.698  0.00  0.00    +0.420 HD
ATOM     15  O   LIG    1        6.330  -0.894  -2.034  0.00  0.00    -0.550 OA
BRANCH  12  16
ATOM     16  O   LIG    1        7.442  -2.618  -1.186  0.00  0.00    -0.360 OA
BRANCH  16  18
ATOM     17  C   LIG    1        9.002  -1.257  -2.467  0.00  0.00    +0.040 C 
ATOM     18  C   LIG    1        8.291  -2.607  -2.364  0.00  0.00    +0.140 C 
ATOM     19  C   LIG    1        7.435  -2.830  -3.612  0.00  0.00    +0.040 C 
ATOM     20  C   LIG    1        9.331  -3.724  -2.252  0.00  0.00    +0.080 C 
ENDBRANCH  16  18
ENDBRANCH  12  16
ENDBRANCH   6  13
ENDBRANCH   5   9
ENDBRANCH   1   5
BRANCH   2  21
ATOM     21  C   LIG    1       -2.438   1.104   0.450  0.00  0.00    +0.390 C 
BRANCH  21  22
ATOM     22  C   LIG    1       -3.474   2.014   1.057  0.00  0.00    -0.100 A 
ATOM     23  C   LIG    1       -3.578   3.325   0.631  0.00  0.00    +0.050 A 
ATOM     24  C   LIG    1       -4.531   4.159   1.184  0.00  0.00    -0.010 A 
ATOM     25  C   LIG    1       -5.376   3.684   2.172  0.00  0.00    +0.110 A 
ATOM     26  C   LIG    1       -5.268   2.372   2.602  0.00  0.00    -0.010 A 
ATOM     27  F   LIG    1       -6.305   4.499   2.717  0.00  0.00    -0.140 F 
ATOM     28  C   LIG    1       -4.317   1.538   2.044  0.00  0.00    +0.070 A 
ENDBRANCH  21  22
BRANCH  21  29
ATOM     29  C   LIG    1       -2.937   0.589  -0.876  0.00  0.00    -0.190 A 
ATOM     30  C   LIG    1       -3.478  -0.613  -1.079  0.00  0.00    +0.020 A 
ATOM     31  C   LIG    1       -3.865  -0.866  -2.384  0.00  0.00    +0.010 A 
ATOM     32  C   LIG    1       -3.636   0.130  -3.241  0.00  0.00    -0.050 A 
ATOM     33  S   LIG    1       -2.901   1.483  -2.390  0.00  0.00    +0.100 S 
ENDBRANCH  21  29
ENDBRANCH   2  21
TORSDOF 8
