REMARK  Name = ZINCrD00000751VF.0
REMARK                            x       y       z     vdW  Elec       q    Type
REMARK                         _______ _______ _______ _____ _____    ______ ____
ROOT
ATOM      1  C   LIG    1        4.821  -4.477  -3.286  0.00  0.00    +0.080 A 
ATOM      2  C   LIG    1        5.042  -4.137  -1.991  0.00  0.00    +0.130 A 
ATOM      3  N   LIG    1        3.837  -3.840  -1.434  0.00  0.00    -0.380 N 
ATOM      4  N   LIG    1        2.855  -4.009  -2.418  0.00  0.00    -0.250 NA
ATOM      5  C   LIG    1        3.442  -4.385  -3.526  0.00  0.00    +0.190 A 
ENDROOT
BRANCH   1   6
ATOM      6  N   LIG    1        5.801  -4.857  -4.222  0.00  0.00    -0.730 N 
ATOM      7  H   LIG    1        6.735  -4.892  -3.960  0.00  0.00    +0.400 HD
BRANCH   6   8
ATOM      8  C   LIG    1        5.412  -5.199  -5.593  0.00  0.00    +0.330 C 
ATOM      9  C   LIG    1        5.317  -3.921  -6.430  0.00  0.00    +0.020 C 
BRANCH   8  13
ATOM     10  C   LIG    1        9.846  -7.138  -6.894  0.00  0.00    +0.170 C 
ATOM     11  C   LIG    1        8.358  -6.946  -6.750  0.00  0.00    +0.200 A 
ATOM     12  N   LIG    1        7.776  -5.965  -6.116  0.00  0.00    -0.480 NA
ATOM     13  C   LIG    1        6.445  -6.117  -6.194  0.00  0.00    -0.000 A 
ATOM     14  C   LIG    1        6.194  -7.237  -6.898  0.00  0.00    -0.020 A 
ATOM     15  C   LIG    1        4.838  -7.804  -7.230  0.00  0.00    +0.140 C 
ATOM     16  N   LIG    1        7.407  -7.760  -7.256  0.00  0.00    -0.460 N 
ATOM     17  C   LIG    1        7.632  -8.979  -8.036  0.00  0.00    +0.330 C 
ENDBRANCH   8  13
ENDBRANCH   6   8
ENDBRANCH   1   6
BRANCH   3  18
ATOM     18  C   LIG    1        3.607  -3.423  -0.049  0.00  0.00    +0.460 C 
BRANCH  18  19
ATOM     19  C   LIG    1        2.858  -2.115  -0.036  0.00  0.00    +0.260 A 
ATOM     20  N   LIG    1        1.562  -1.998  -0.023  0.00  0.00    -0.460 NA
ATOM     21  C   LIG    1        1.223  -0.684  -0.013  0.00  0.00    +0.040 A 
ATOM     22  C   LIG    1        0.002  -0.004   0.002  0.00  0.00    +0.070 A 
ATOM     23  C   LIG    1       -0.017   1.362   0.009  0.00  0.00    +0.000 A 
ATOM     24  C   LIG    1        1.167   2.086   0.002  0.00  0.00    +0.030 A 
ATOM     25  C   LIG    1        2.383   1.437  -0.014  0.00  0.00    +0.010 A 
ATOM     26  C   LIG    1        2.422   0.049  -0.021  0.00  0.00    +0.050 A 
ATOM     27  N   LIG    1        3.439  -0.884  -0.035  0.00  0.00    -0.490 N 
ATOM     28  C   LIG    1        4.876  -0.603  -0.048  0.00  0.00    +0.340 C 
ENDBRANCH  18  19
ENDBRANCH   3  18
TORSDOF 5
