REMARK  Name = ZINCpk00000ebjA8.0
REMARK                            x       y       z     vdW  Elec       q    Type
REMARK                         _______ _______ _______ _____ _____    ______ ____
ROOT
ATOM      1  C   LIG    1        1.733  -1.700   0.648  0.00  0.00    +0.590 C 
ATOM      2  N   LIG    1        1.260  -0.438   0.681  0.00  0.00    -0.610 N 
ATOM      3  C   LIG    1        1.986   0.739   1.190  0.00  0.00    +0.230 C 
ATOM      4  C   LIG    1        1.337   1.948   0.470  0.00  0.00    +0.170 C 
ATOM      5  C   LIG    1       -0.153   1.519   0.423  0.00  0.00    +0.070 C 
ATOM      6  C   LIG    1       -0.067  -0.008   0.214  0.00  0.00    +0.290 C 
ATOM      7  O   LIG    1        1.020  -2.607   0.264  0.00  0.00    -0.510 OA
ENDROOT
BRANCH   1  14
ATOM      8  C   LIG    1        7.976  -3.639   2.076  0.00  0.00    +0.390 C 
ATOM      9  N   LIG    1        6.943  -2.637   2.352  0.00  0.00    -0.380 N 
ATOM     10  N   LIG    1        7.052  -1.543   3.222  0.00  0.00    +0.020 NA
ATOM     11  N   LIG    1        5.951  -0.877   3.214  0.00  0.00    -0.200 NA
ATOM     12  C   LIG    1        5.065  -1.456   2.370  0.00  0.00    -0.070 A 
ATOM     13  C   LIG    1        3.755  -1.143   1.993  0.00  0.00    +0.210 A 
ATOM     14  C   LIG    1        3.118  -1.980   1.077  0.00  0.00    -0.200 A 
ATOM     15  C   LIG    1        3.807  -3.087   0.565  0.00  0.00    +0.420 A 
ATOM     16  N   LIG    1        5.039  -3.351   0.936  0.00  0.00    -0.480 NA
ATOM     17  C   LIG    1        5.686  -2.588   1.807  0.00  0.00    +0.290 A 
ENDBRANCH   1  14
BRANCH   6  18
ATOM     18  C   LIG    1       -1.143  -0.696   1.014  0.00  0.00    -0.100 A 
ATOM     19  C   LIG    1       -0.964  -0.916   2.367  0.00  0.00    +0.060 A 
ATOM     20  C   LIG    1       -1.952  -1.543   3.102  0.00  0.00    -0.020 A 
ATOM     21  C   LIG    1       -3.117  -1.960   2.481  0.00  0.00    +0.100 A 
ATOM     22  C   LIG    1       -3.293  -1.744   1.125  0.00  0.00    -0.010 A 
ATOM     23  F   LIG    1       -4.082  -2.577   3.198  0.00  0.00    -0.140 F 
ATOM     24  C   LIG    1       -2.306  -1.112   0.393  0.00  0.00    +0.060 A 
ENDBRANCH   6  18
BRANCH   4  25
ATOM     25  O   LIG    1        1.502   3.146   1.232  0.00  0.00    -0.550 OA
ATOM     26  H   LIG    1        2.417   3.453   1.290  0.00  0.00    +0.390 HD
ENDBRANCH   4  25
TORSDOF 3
