REMARK  Name = ZINCrD000000fAMq.0
REMARK                            x       y       z     vdW  Elec       q    Type
REMARK                         _______ _______ _______ _____ _____    ______ ____
ROOT
ATOM      1  C   LIG    1       -0.165   1.430  -4.931  0.00  0.00    +0.480 A 
ATOM      2  N   LIG    1        0.887   0.641  -5.089  0.00  0.00    -0.590 NA
ATOM      3  C   LIG    1        1.367   0.359  -6.298  0.00  0.00    +0.420 A 
ATOM      4  N   LIG    1        0.844   0.849  -7.407  0.00  0.00    -0.540 NA
ATOM      5  C   LIG    1       -0.220   1.662  -7.353  0.00  0.00    +0.190 A 
ATOM      6  C   LIG    1       -0.801   2.199  -8.510  0.00  0.00    +0.030 A 
ATOM      7  C   LIG    1       -1.883   3.021  -8.400  0.00  0.00    +0.060 A 
ATOM      8  C   LIG    1       -2.420   3.337  -7.156  0.00  0.00    +0.000 A 
ATOM      9  C   LIG    1       -1.879   2.831  -6.010  0.00  0.00    +0.060 A 
ATOM     10  C   LIG    1       -0.769   1.985  -6.087  0.00  0.00    -0.200 A 
ENDROOT
BRANCH   3  11
ATOM     11  C   LIG    1        2.544  -0.537  -6.404  0.00  0.00    -0.100 A 
ATOM     12  C   LIG    1        3.084  -0.856  -7.653  0.00  0.00    +0.120 A 
ATOM     13  C   LIG    1        4.183  -1.697  -7.698  0.00  0.00    -0.040 A 
ATOM     14  C   LIG    1        4.706  -2.191  -6.517  0.00  0.00    +0.270 A 
ATOM     15  N   LIG    1        4.174  -1.872  -5.352  0.00  0.00    -0.490 NA
ATOM     16  C   LIG    1        3.132  -1.072  -5.259  0.00  0.00    +0.320 A 
ENDBRANCH   3  11
BRANCH   1  17
ATOM     17  N   LIG    1       -0.656   1.710  -3.673  0.00  0.00    -0.700 N 
ATOM     18  H   LIG    1       -1.425   2.293  -3.571  0.00  0.00    +0.410 HD
BRANCH  17  19
ATOM     19  C   LIG    1       -0.018   1.126  -2.491  0.00  0.00    +0.290 C 
BRANCH  19  26
ATOM     20  C   LIG    1       -4.664   2.367   1.365  0.00  0.00    +0.090 C 
ATOM     21  C   LIG    1       -4.013   2.018   0.052  0.00  0.00    +0.510 C 
ATOM     22  N   LIG    1       -2.826   1.380   0.037  0.00  0.00    -0.620 N 
ATOM     23  C   LIG    1       -2.154   1.019   1.293  0.00  0.00    +0.260 C 
ATOM     24  C   LIG    1       -0.729   1.579   1.268  0.00  0.00    +0.010 C 
ATOM     25  C   LIG    1       -0.013   1.086   0.008  0.00  0.00    +0.030 C 
ATOM     26  C   LIG    1       -0.752   1.593  -1.232  0.00  0.00    -0.040 C 
ATOM     27  C   LIG    1       -2.178   1.033  -1.236  0.00  0.00    +0.270 C 
ATOM     28  O   LIG    1       -4.557   2.311  -0.992  0.00  0.00    -0.550 OA
ENDBRANCH  19  26
ENDBRANCH  17  19
ENDBRANCH   1  17
TORSDOF 4
