REMARK  Name = ZINCrD00000hQ4jp.0
REMARK                            x       y       z     vdW  Elec       q    Type
REMARK                         _______ _______ _______ _____ _____    ______ ____
ROOT
ATOM      1  C   LIG    1        0.708  -1.360  -1.966  0.00  0.00    +0.370 A 
ATOM      2  N   LIG    1        1.510  -1.828  -2.869  0.00  0.00    -0.340 NA
ATOM      3  N   LIG    1        1.022  -2.731  -3.805  0.00  0.00    -0.300 N 
ATOM      4  C   LIG    1        1.478  -3.459  -4.892  0.00  0.00    +0.210 A 
ATOM      5  C   LIG    1        0.425  -4.166  -5.376  0.00  0.00    +0.070 A 
ATOM      6  N   LIG    1       -0.649  -3.886  -4.613  0.00  0.00    -0.420 NA
ATOM      7  C   LIG    1       -0.297  -3.035  -3.680  0.00  0.00    +0.120 A 
ATOM      8  S   LIG    1       -0.870  -2.100  -2.290  0.00  0.00    +0.140 S 
ENDROOT
BRANCH   1  12
ATOM      9  C   LIG    1        3.652   2.140  -0.266  0.00  0.00    +0.080 C 
ATOM     10  C   LIG    1        2.313   1.602  -0.810  0.00  0.00    +0.110 C 
ATOM     11  C   LIG    1        2.378   0.072  -0.796  0.00  0.00    +0.300 C 
ATOM     12  N   LIG    1        1.018  -0.461  -0.959  0.00  0.00    -0.560 N 
ATOM     13  C   LIG    1        0.002  -0.004   0.002  0.00  0.00    +0.300 C 
ATOM     14  C   LIG    1       -0.019   1.523   0.010  0.00  0.00    +0.090 C 
ATOM     15  C   LIG    1       -0.885   2.042  -1.153  0.00  0.00    -0.010 C 
ATOM     16  C   LIG    1       -2.123   2.650  -0.451  0.00  0.00    +0.210 C 
ATOM     17  O   LIG    1       -1.622   3.071   0.838  0.00  0.00    -0.360 OA
ATOM     18  C   LIG    1       -0.776   1.988   1.280  0.00  0.00    +0.250 C 
ATOM     19  C   LIG    1        2.166   2.090  -2.255  0.00  0.00    +0.020 C 
ATOM     20  O   LIG    1        1.266   2.095   0.001  0.00  0.00    -0.350 OA
ENDBRANCH   1  12
BRANCH   5  21
ATOM     21  C   LIG    1        0.453  -5.085  -6.540  0.00  0.00    -0.010 A 
ATOM     22  C   LIG    1        1.637  -5.280  -7.248  0.00  0.00    +0.060 A 
ATOM     23  C   LIG    1        1.660  -6.139  -8.328  0.00  0.00    -0.010 A 
ATOM     24  C   LIG    1        0.505  -6.800  -8.713  0.00  0.00    +0.100 A 
ATOM     25  C   LIG    1       -0.676  -6.606  -8.015  0.00  0.00    -0.010 A 
ATOM     26  F   LIG    1        0.530  -7.636  -9.774  0.00  0.00    -0.140 F 
ATOM     27  C   LIG    1       -0.706  -5.752  -6.932  0.00  0.00    +0.080 A 
ENDBRANCH   5  21
TORSDOF 2
