REMARK  Name = ZINCvU0000000FTu.0
REMARK                            x       y       z     vdW  Elec       q    Type
REMARK                         _______ _______ _______ _____ _____    ______ ____
ROOT
ATOM      1  N   LIG    1        1.642   4.531  -1.878  0.00  0.00    -0.410 N 
ATOM      2  C   LIG    1        1.254   5.784  -1.489  0.00  0.00    +0.150 A 
ATOM      3  N   LIG    1       -0.021   5.717  -1.176  0.00  0.00    -0.290 NA
ATOM      4  N   LIG    1       -0.456   4.520  -1.347  0.00  0.00    -0.260 NA
ATOM      5  C   LIG    1        0.513   3.747  -1.779  0.00  0.00    +0.230 A 
ENDROOT
BRANCH   1  12
ATOM      6  C   LIG    1        3.469   3.600   0.096  0.00  0.00    +0.110 C 
ATOM      7  C   LIG    1        3.841   3.670  -1.363  0.00  0.00    -0.060 A 
ATOM      8  C   LIG    1        5.096   3.270  -1.776  0.00  0.00    +0.030 A 
ATOM      9  C   LIG    1        5.440   3.340  -3.114  0.00  0.00    +0.050 A 
ATOM     10  C   LIG    1        4.527   3.803  -4.042  0.00  0.00    +0.030 A 
ATOM     11  C   LIG    1        3.267   4.199  -3.636  0.00  0.00    +0.040 A 
ATOM     12  C   LIG    1        2.919   4.130  -2.294  0.00  0.00    +0.090 A 
ENDBRANCH   1  12
BRANCH   5  13
ATOM     13  C   LIG    1        0.415   2.306  -2.093  0.00  0.00    -0.020 A 
ATOM     14  C   LIG    1       -0.837   1.706  -2.244  0.00  0.00    +0.090 A 
ATOM     15  C   LIG    1       -0.923   0.361  -2.538  0.00  0.00    +0.030 A 
ATOM     16  C   LIG    1        0.229  -0.394  -2.684  0.00  0.00    -0.020 A 
ATOM     17  C   LIG    1        1.474   0.196  -2.535  0.00  0.00    +0.030 A 
ATOM     18 CL   LIG    1        0.113  -2.086  -3.054  0.00  0.00    -0.060 Cl
ATOM     19  C   LIG    1        1.572   1.540  -2.241  0.00  0.00    +0.050 A 
ENDBRANCH   5  13
BRANCH   2  20
ATOM     20  S   LIG    1        2.274   7.219  -1.413  0.00  0.00    +0.100 S 
BRANCH  20  21
ATOM     21  C   LIG    1        1.069   8.430  -0.816  0.00  0.00    +0.100 C 
BRANCH  21  22
ATOM     22  C   LIG    1        1.738   9.773  -0.671  0.00  0.00    +0.540 C 
ATOM     23  N   LIG    1        1.008  10.857  -0.338  0.00  0.00    -0.600 N 
ATOM     24  C   LIG    1        1.621  12.191  -0.306  0.00  0.00    +0.220 C 
ATOM     25  C   LIG    1        0.786  13.134  -1.186  0.00  0.00    +0.020 C 
ATOM     26  C   LIG    1       -0.671  13.101  -0.719  0.00  0.00    +0.020 C 
ATOM     27  C   LIG    1       -1.225  11.682  -0.872  0.00  0.00    +0.020 C 
ATOM     28  C   LIG    1        3.050  12.112  -0.848  0.00  0.00    +0.060 C 
ATOM     29  C   LIG    1       -0.414  10.724   0.006  0.00  0.00    +0.230 C 
ATOM     30  C   LIG    1       -0.621  11.080   1.480  0.00  0.00    +0.020 C 
ATOM     31  O   LIG    1        2.932   9.880  -0.854  0.00  0.00    -0.520 OA
ENDBRANCH  21  22
ENDBRANCH  20  21
ENDBRANCH   2  20
TORSDOF 5
