REMARK  Name = ZINCAx0000000ay6.0
REMARK                            x       y       z     vdW  Elec       q    Type
REMARK                         _______ _______ _______ _____ _____    ______ ____
ROOT
ATOM      1  N   LIG    1        2.138  -2.384   6.681  0.00  0.00    -0.560 N 
ATOM      2  C   LIG    1        2.700  -3.593   6.789  0.00  0.00    +0.710 C 
ATOM      3  N   LIG    1        3.674  -3.626   7.717  0.00  0.00    -0.720 N 
ATOM      4  H   LIG    1        4.215  -4.393   7.962  0.00  0.00    +0.440 HD
ATOM      5  C   LIG    1        3.753  -2.273   8.294  0.00  0.00    +0.170 C 
ATOM      6  C   LIG    1        5.133  -1.660   8.050  0.00  0.00    +0.100 C 
ATOM      7  O   LIG    1        2.371  -4.553   6.121  0.00  0.00    -0.530 OA
ATOM      8  C   LIG    1        2.687  -1.502   7.540  0.00  0.00    +0.540 C 
ATOM      9  O   LIG    1        2.389  -0.336   7.682  0.00  0.00    -0.450 OA
ENDROOT
BRANCH   5  10
ATOM     10  C   LIG    1        3.441  -2.305   9.768  0.00  0.00    -0.070 A 
ATOM     11  C   LIG    1        2.750  -1.259  10.351  0.00  0.00    +0.050 A 
ATOM     12  C   LIG    1        2.463  -1.286  11.703  0.00  0.00    +0.070 A 
ATOM     13  C   LIG    1        2.866  -2.357  12.476  0.00  0.00    +0.030 A 
ATOM     14  C   LIG    1        3.559  -3.409  11.893  0.00  0.00    +0.130 A 
ATOM     15  C   LIG    1        3.842  -3.383  10.534  0.00  0.00    +0.060 A 
BRANCH  14  16
ATOM     16  N   LIG    1        3.970  -4.499  12.675  0.00  0.00    -0.330 N 
ATOM     17  C   LIG    1        3.698  -4.722  13.979  0.00  0.00    +0.470 A 
ATOM     18  N   LIG    1        4.269  -5.851  14.307  0.00  0.00    -0.330 NA
ATOM     19  N   LIG    1        4.892  -6.353  13.302  0.00  0.00    -0.030 NA
ATOM     20  N   LIG    1        4.759  -5.591  12.270  0.00  0.00    -0.080 NA
ENDBRANCH  14  16
ENDBRANCH   5  10
BRANCH   1  21
ATOM     21  C   LIG    1        1.056  -2.060   5.748  0.00  0.00    +0.340 C 
BRANCH  21  22
ATOM     22  C   LIG    1        1.643  -1.585   4.444  0.00  0.00    +0.420 C 
ATOM     23  O   LIG    1        2.847  -1.523   4.307  0.00  0.00    -0.460 OA
BRANCH  22  27
ATOM     24  C   LIG    1       -2.513  -0.626   1.656  0.00  0.00    +0.130 C 
ATOM     25  C   LIG    1       -1.089  -0.779   2.123  0.00  0.00    +0.020 A 
ATOM     26  C   LIG    1       -0.710  -1.212   3.338  0.00  0.00    +0.000 A 
ATOM     27  C   LIG    1        0.759  -1.198   3.342  0.00  0.00    -0.270 A 
ATOM     28  C   LIG    1        1.137  -0.749   2.090  0.00  0.00    +0.120 A 
ATOM     29  C   LIG    1        2.552  -0.568   1.605  0.00  0.00    +0.150 C 
ATOM     30  N   LIG    1        0.022  -0.500   1.381  0.00  0.00    -0.430 N 
BRANCH  30  31
ATOM     31  C   LIG    1        0.002  -0.004   0.002  0.00  0.00    +0.340 C 
BRANCH  31  32
ATOM     32  C   LIG    1       -0.018   1.503   0.010  0.00  0.00    -0.120 A 
ATOM     33  C   LIG    1       -1.225   2.178   0.020  0.00  0.00    +0.020 A 
ATOM     34  C   LIG    1       -1.244   3.560   0.032  0.00  0.00    +0.010 A 
ATOM     35  C   LIG    1       -0.056   4.267   0.025  0.00  0.00    +0.020 A 
ATOM     36  C   LIG    1        1.151   3.592   0.010  0.00  0.00    +0.010 A 
ATOM     37  C   LIG    1        1.169   2.210   0.003  0.00  0.00    +0.020 A 
ENDBRANCH  31  32
ENDBRANCH  30  31
ENDBRANCH  22  27
ENDBRANCH  21  22
ENDBRANCH   1  21
TORSDOF 7
