REMARK  Name = ZINCpe000000YTAM.0
REMARK                            x       y       z     vdW  Elec       q    Type
REMARK                         _______ _______ _______ _____ _____    ______ ____
ROOT
ATOM      1  N   LIG    1       -0.941   1.210   2.254  0.00  0.00    -0.550 NA
ATOM      2  C   LIG    1       -1.710   2.439   2.060  0.00  0.00    +0.190 C 
ATOM      3  C   LIG    1       -2.720   2.573   3.179  0.00  0.00    +0.040 C 
ATOM      4  C   LIG    1       -2.114   3.401   4.325  0.00  0.00    +0.250 C 
ATOM      5  N   LIG    1       -0.697   3.054   4.547  0.00  0.00    -0.600 N 
ATOM      6  C   LIG    1       -0.217   1.687   4.521  0.00  0.00    +0.300 C 
ATOM      7  C   LIG    1        0.184   4.045   4.784  0.00  0.00    +0.490 C 
ATOM      8  O   LIG    1        1.337   3.781   5.051  0.00  0.00    -0.530 OA
ATOM      9  C   LIG    1        0.202   1.309   3.080  0.00  0.00    +0.180 C 
ENDROOT
BRANCH   1  10
ATOM     10  C   LIG    1       -0.607   0.590   0.965  0.00  0.00    +0.210 C 
BRANCH  10  12
ATOM     11  O   LIG    1       -0.191  -1.304   2.310  0.00  0.00    -0.520 OA
ATOM     12  C   LIG    1       -0.202  -0.844   1.188  0.00  0.00    +0.530 C 
ATOM     13  N   LIG    1        0.150  -1.616   0.141  0.00  0.00    -0.620 N 
ATOM     14  C   LIG    1        0.176  -1.191  -1.267  0.00  0.00    +0.240 C 
ATOM     15  C   LIG    1        0.615  -2.409  -2.106  0.00  0.00    +0.030 C 
ATOM     16  C   LIG    1        0.257  -3.608  -1.188  0.00  0.00    +0.040 C 
ATOM     17  C   LIG    1        0.566  -3.028   0.215  0.00  0.00    +0.250 C 
ENDBRANCH  10  12
ENDBRANCH   1  10
BRANCH   7  18
ATOM     18  C   LIG    1       -0.263   5.483   4.718  0.00  0.00    +0.260 C 
BRANCH  18  19
ATOM     19  C   LIG    1       -1.042   5.824   5.963  0.00  0.00    -0.120 A 
ATOM     20  C   LIG    1       -0.383   5.997   7.165  0.00  0.00    +0.020 A 
ATOM     21  C   LIG    1       -1.096   6.314   8.306  0.00  0.00    +0.020 A 
ATOM     22  C   LIG    1       -2.471   6.450   8.245  0.00  0.00    +0.020 A 
ATOM     23  C   LIG    1       -3.131   6.272   7.044  0.00  0.00    +0.010 A 
ATOM     24  C   LIG    1       -2.417   5.959   5.902  0.00  0.00    +0.020 A 
ENDBRANCH  18  19
BRANCH  18  25
ATOM     25  O   LIG    1        0.880   6.334   4.624  0.00  0.00    -0.530 OA
ATOM     26  H   LIG    1        1.490   6.259   5.371  0.00  0.00    +0.390 HD
ENDBRANCH  18  25
ENDBRANCH   7  18
TORSDOF 5
