REMARK  Name = ZINCpk000000pUpi.0
REMARK                            x       y       z     vdW  Elec       q    Type
REMARK                         _______ _______ _______ _____ _____    ______ ____
ROOT
ATOM      1  N   LIG    1       -1.415   4.152  -0.250  0.00  0.00    -0.500 N 
ATOM      2  H   LIG    1       -1.421   4.709   0.544  0.00  0.00    +0.430 HD
ATOM      3  C   LIG    1       -2.268   4.410  -1.261  0.00  0.00    +0.520 C 
ATOM      4  O   LIG    1       -2.260   3.714  -2.254  0.00  0.00    -0.480 OA
ENDROOT
BRANCH   1   9
ATOM      5  C   LIG    1        1.359   1.805  -0.605  0.00  0.00    +0.130 C 
ATOM      6  N   LIG    1        0.179   0.961  -0.347  0.00  0.00    -0.710 N 
ATOM      7  H   LIG    1        0.160  -0.007  -0.289  0.00  0.00    +0.450 HD
ATOM      8  C   LIG    1       -0.869   1.794  -0.215  0.00  0.00    +0.710 C 
ATOM      9  N   LIG    1       -0.519   3.079  -0.346  0.00  0.00    -0.380 N 
ATOM     10  O   LIG    1       -2.005   1.422   0.001  0.00  0.00    -0.520 OA
ATOM     11  C   LIG    1        2.402   1.622   0.499  0.00  0.00    +0.100 C 
ATOM     12  C   LIG    1        0.800   3.214  -0.587  0.00  0.00    +0.530 C 
ATOM     13  O   LIG    1        1.412   4.247  -0.754  0.00  0.00    -0.450 OA
BRANCH   5  15
ATOM     14  C   LIG    1        2.306  -0.007  -2.041  0.00  0.00    +0.050 C 
ATOM     15  C   LIG    1        1.963   1.483  -1.973  0.00  0.00    +0.050 C 
ENDBRANCH   5  15
ENDBRANCH   1   9
BRANCH   3  16
ATOM     16  C   LIG    1       -3.232   5.564  -1.158  0.00  0.00    +0.190 C 
ATOM     17  C   LIG    1       -4.224   5.300  -0.024  0.00  0.00    +0.060 C 
BRANCH  16  18
ATOM     18  O   LIG    1       -3.942   5.703  -2.390  0.00  0.00    -0.280 OA
BRANCH  18  19
ATOM     19  C   LIG    1       -4.436   6.936  -2.682  0.00  0.00    +0.120 A 
ATOM     20  C   LIG    1       -4.344   7.959  -1.748  0.00  0.00    -0.040 A 
ATOM     21  C   LIG    1       -4.839   9.217  -2.040  0.00  0.00    +0.050 A 
ATOM     22  C   LIG    1       -5.439   9.462  -3.257  0.00  0.00    +0.030 A 
ATOM     23  C   LIG    1       -5.542   8.436  -4.203  0.00  0.00    -0.130 A 
ATOM     24  C   LIG    1       -5.036   7.168  -3.908  0.00  0.00    +0.050 A 
BRANCH  23  25
ATOM     25  C   LIG    1       -6.182   8.692  -5.504  0.00  0.00    +0.390 C 
ATOM     26  O   LIG    1       -6.270   7.801  -6.322  0.00  0.00    -0.450 OA
ATOM     27  C   LIG    1       -6.727  10.061  -5.819  0.00  0.00    +0.090 C 
ENDBRANCH  23  25
ENDBRANCH  18  19
ENDBRANCH  16  18
ENDBRANCH   3  16
TORSDOF 6
