REMARK  Name = ZINCvU0000000BgB.1
REMARK                            x       y       z     vdW  Elec       q    Type
REMARK                         _______ _______ _______ _____ _____    ______ ____
ROOT
ATOM      1  N   LIG    1        0.082  -0.181  -2.718  0.00  0.00    -0.460 N 
ATOM      2  C   LIG    1       -0.268   1.118  -2.635  0.00  0.00    +0.530 C 
ATOM      3  O   LIG    1        0.170   1.916  -3.436  0.00  0.00    -0.460 OA
ENDROOT
BRANCH   2   4
ATOM      4  C   LIG    1       -1.202   1.578  -1.546  0.00  0.00    +0.170 C 
ATOM      5  C   LIG    1       -0.446   1.654  -0.212  0.00  0.00    +0.260 C 
ATOM      6  O   LIG    1       -1.357   2.106   0.795  0.00  0.00    -0.290 OA
ATOM      7  C   LIG    1       -2.139   3.174   0.479  0.00  0.00    +0.040 A 
ATOM      8  C   LIG    1       -2.769   3.880   1.492  0.00  0.00    +0.030 A 
ATOM      9  C   LIG    1       -3.571   4.964   1.185  0.00  0.00    +0.030 A 
ATOM     10  C   LIG    1       -3.746   5.347  -0.131  0.00  0.00    +0.030 A 
ATOM     11  C   LIG    1       -3.119   4.648  -1.146  0.00  0.00    +0.030 A 
ATOM     12  C   LIG    1       -2.312   3.561  -0.845  0.00  0.00    +0.050 A 
ATOM     13  O   LIG    1       -1.699   2.885  -1.855  0.00  0.00    -0.280 OA
ENDBRANCH   2   4
BRANCH   1  14
ATOM     14  C   LIG    1        1.020  -0.588  -3.655  0.00  0.00    +0.320 A 
ATOM     15  N   LIG    1        1.426  -1.800  -3.811  0.00  0.00    -0.490 NA
ATOM     16  C   LIG    1        2.342  -2.040  -4.768  0.00  0.00    +0.110 A 
ATOM     17  C   LIG    1        2.936  -3.267  -5.135  0.00  0.00    +0.060 A 
ATOM     18  C   LIG    1        3.865  -3.315  -6.143  0.00  0.00    +0.040 A 
ATOM     19  C   LIG    1        4.236  -2.161  -6.818  0.00  0.00    +0.030 A 
ATOM     20  C   LIG    1        3.670  -0.953  -6.478  0.00  0.00    +0.060 A 
ATOM     21  C   LIG    1        2.725  -0.885  -5.457  0.00  0.00    -0.210 A 
ATOM     22  S   LIG    1        1.831   0.480  -4.792  0.00  0.00    +0.170 S 
ENDBRANCH   1  14
BRANCH   1  29
ATOM     23  C   LIG    1        0.164  -1.520  -0.701  0.00  0.00    +0.140 A 
ATOM     24  C   LIG    1       -0.419  -2.449   0.145  0.00  0.00    -0.050 A 
ATOM     25  C   LIG    1       -1.660  -2.978  -0.158  0.00  0.00    +0.080 A 
ATOM     26  C   LIG    1       -2.322  -2.583  -1.305  0.00  0.00    -0.110 A 
ATOM     27  C   LIG    1       -1.750  -1.653  -2.152  0.00  0.00    +0.070 A 
ATOM     28  C   LIG    1       -3.675  -3.163  -1.630  0.00  0.00    +0.100 C 
ATOM     29  C   LIG    1       -0.503  -1.121  -1.857  0.00  0.00    +0.070 A 
BRANCH  23  31
ATOM     30  C   LIG    1        2.009  -1.454   0.797  0.00  0.00    +0.240 C 
ATOM     31  O   LIG    1        1.384  -0.999  -0.404  0.00  0.00    -0.310 OA
ENDBRANCH  23  31
ENDBRANCH   1  29
TORSDOF 4
