REMARK  Name = ZINCvU0000000BgB.0
REMARK                            x       y       z     vdW  Elec       q    Type
REMARK                         _______ _______ _______ _____ _____    ______ ____
ROOT
ATOM      1  N   LIG    1        7.175   1.750  -0.289  0.00  0.00    -0.460 N 
ATOM      2  C   LIG    1        5.976   2.365  -0.253  0.00  0.00    +0.530 C 
ATOM      3  O   LIG    1        5.866   3.448   0.281  0.00  0.00    -0.460 OA
ENDROOT
BRANCH   2   4
ATOM      4  C   LIG    1        4.773   1.706  -0.876  0.00  0.00    +0.170 C 
ATOM      5  C   LIG    1        4.273   0.575   0.033  0.00  0.00    +0.260 C 
ATOM      6  O   LIG    1        3.124  -0.019  -0.582  0.00  0.00    -0.290 OA
ATOM      7  C   LIG    1        2.181   0.833  -1.067  0.00  0.00    +0.050 A 
ATOM      8  C   LIG    1        0.909   0.354  -1.344  0.00  0.00    +0.030 A 
ATOM      9  C   LIG    1       -0.059   1.206  -1.842  0.00  0.00    +0.030 A 
ATOM     10  C   LIG    1        0.238   2.537  -2.065  0.00  0.00    +0.030 A 
ATOM     11  C   LIG    1        1.503   3.021  -1.791  0.00  0.00    +0.030 A 
ATOM     12  C   LIG    1        2.478   2.172  -1.290  0.00  0.00    +0.050 A 
ATOM     13  O   LIG    1        3.719   2.664  -1.021  0.00  0.00    -0.280 OA
ENDBRANCH   2   4
BRANCH   1  14
ATOM     14  C   LIG    1        8.260   2.307   0.373  0.00  0.00    +0.320 A 
ATOM     15  N   LIG    1        9.442   1.797   0.405  0.00  0.00    -0.490 NA
ATOM     16  C   LIG    1       10.396   2.459   1.088  0.00  0.00    +0.110 A 
ATOM     17  C   LIG    1       11.753   2.116   1.268  0.00  0.00    +0.060 A 
ATOM     18  C   LIG    1       12.581   2.920   2.010  0.00  0.00    +0.040 A 
ATOM     19  C   LIG    1       12.098   4.081   2.595  0.00  0.00    +0.030 A 
ATOM     20  C   LIG    1       10.778   4.436   2.434  0.00  0.00    +0.060 A 
ATOM     21  C   LIG    1        9.923   3.632   1.684  0.00  0.00    -0.210 A 
ATOM     22  S   LIG    1        8.213   3.803   1.294  0.00  0.00    +0.170 S 
ENDBRANCH   1  14
BRANCH   1  29
ATOM     23  C   LIG    1        7.278  -0.670  -0.321  0.00  0.00    +0.140 A 
ATOM     24  C   LIG    1        7.422  -1.854  -1.025  0.00  0.00    -0.050 A 
ATOM     25  C   LIG    1        7.625  -1.825  -2.392  0.00  0.00    +0.080 A 
ATOM     26  C   LIG    1        7.679  -0.617  -3.061  0.00  0.00    -0.110 A 
ATOM     27  C   LIG    1        7.531   0.569  -2.367  0.00  0.00    +0.080 A 
ATOM     28  C   LIG    1        7.902  -0.593  -4.552  0.00  0.00    +0.100 C 
ATOM     29  C   LIG    1        7.327   0.548  -0.996  0.00  0.00    +0.070 A 
BRANCH  23  31
ATOM     30  C   LIG    1        7.044  -1.980   1.650  0.00  0.00    +0.240 C 
ATOM     31  O   LIG    1        7.083  -0.696   1.025  0.00  0.00    -0.310 OA
ENDBRANCH  23  31
ENDBRANCH   1  29
TORSDOF 4
