REMARK  Name = ZINCpk00000xIcob.0
REMARK                            x       y       z     vdW  Elec       q    Type
REMARK                         _______ _______ _______ _____ _____    ______ ____
ROOT
ATOM      1  C   LIG    1        3.659   0.855   4.143  0.00  0.00    +0.280 C 
ATOM      2  N   LIG    1        3.214   2.146   3.613  0.00  0.00    -0.620 N 
ATOM      3  C   LIG    1        2.885   2.263   2.311  0.00  0.00    +0.530 C 
ATOM      4  O   LIG    1        2.517   3.331   1.871  0.00  0.00    -0.530 OA
ENDROOT
BRANCH   3   5
ATOM      5  C   LIG    1        2.974   1.064   1.401  0.00  0.00    -0.020 C 
ATOM      6  C   LIG    1        4.418   0.554   1.367  0.00  0.00    +0.020 C 
ATOM      7  C   LIG    1        4.511  -0.614   0.380  0.00  0.00    +0.010 C 
ATOM      8  C   LIG    1        4.026  -0.150  -0.996  0.00  0.00    +0.210 C 
ATOM      9  O   LIG    1        2.688   0.341  -0.887  0.00  0.00    -0.370 OA
ATOM     10  C   LIG    1        2.548   1.464  -0.014  0.00  0.00    +0.270 C 
BRANCH  10  11
ATOM     11  C   LIG    1        1.109   1.911   0.002  0.00  0.00    -0.240 A 
ATOM     12  C   LIG    1        0.674   3.192   0.013  0.00  0.00    +0.290 A 
ATOM     13  N   LIG    1       -0.675   3.169   0.025  0.00  0.00    -0.480 N 
ATOM     14  H   LIG    1       -1.260   3.943   0.035  0.00  0.00    +0.440 HD
ATOM     15  N   LIG    1       -1.083   1.829   0.017  0.00  0.00    -0.300 NA
ATOM     16  C   LIG    1       -0.013   1.076   0.008  0.00  0.00    +0.250 A 
ENDBRANCH  10  11
ENDBRANCH   3   5
BRANCH   2  17
ATOM     17  C   LIG    1        3.128   3.311   4.497  0.00  0.00    +0.290 C 
BRANCH  17  18
ATOM     18  C   LIG    1        1.732   3.376   5.120  0.00  0.00    +0.160 C 
BRANCH  18  19
ATOM     19  N   LIG    1        1.645   4.544   6.006  0.00  0.00    -0.530 NA
ATOM     20  C   LIG    1        2.197   5.742   5.356  0.00  0.00    +0.150 C 
ATOM     21  C   LIG    1        2.142   6.918   6.334  0.00  0.00    +0.220 C 
ATOM     22  O   LIG    1        0.792   7.110   6.765  0.00  0.00    -0.380 OA
ATOM     23  C   LIG    1        0.223   5.963   7.404  0.00  0.00    +0.110 C 
ATOM     24  C   LIG    1        1.031   5.625   8.659  0.00  0.00    +0.020 C 
ATOM     25  C   LIG    1       -1.226   6.262   7.793  0.00  0.00    +0.060 C 
ATOM     26  C   LIG    1        0.259   4.777   6.437  0.00  0.00    +0.150 C 
ENDBRANCH  18  19
ENDBRANCH  17  18
ENDBRANCH   2  17
TORSDOF 5
