REMARK  Name = ZINCpe000000SyzA.1
REMARK                            x       y       z     vdW  Elec       q    Type
REMARK                         _______ _______ _______ _____ _____    ______ ____
ROOT
ATOM      1  C   LIG    1       -1.465   3.713   4.807  0.00  0.00    +0.210 A 
ATOM      2  C   LIG    1       -0.853   3.202   3.669  0.00  0.00    -0.020 A 
ATOM      3  C   LIG    1       -1.367   3.538   2.418  0.00  0.00    +0.160 A 
ATOM      4  C   LIG    1       -2.477   4.381   2.362  0.00  0.00    -0.060 A 
ATOM      5  C   LIG    1       -3.032   4.844   3.538  0.00  0.00    +0.300 A 
ATOM      6  N   LIG    1       -2.523   4.508   4.706  0.00  0.00    -0.470 NA
ENDROOT
BRANCH   3   7
ATOM      7  N   LIG    1       -0.783   3.048   1.252  0.00  0.00    -0.490 N 
ATOM      8  C   LIG    1       -0.730   1.580   1.267  0.00  0.00    +0.210 C 
ATOM      9  C   LIG    1       -0.013   1.086   0.008  0.00  0.00    +0.190 C 
ATOM     10  N   LIG    1       -0.724   1.573  -1.182  0.00  0.00    -0.550 NA
ATOM     11  C   LIG    1       -0.777   3.042  -1.196  0.00  0.00    +0.190 C 
ATOM     12  C   LIG    1       -0.109   1.057  -2.412  0.00  0.00    +0.190 C 
ATOM     13  C   LIG    1       -1.495   3.536   0.062  0.00  0.00    +0.200 C 
ENDBRANCH   3   7
BRANCH   1  16
ATOM     14  C   LIG    1       -0.644   3.238   8.245  0.00  0.00    +0.180 A 
ATOM     15  N   LIG    1       -1.416   3.783   7.338  0.00  0.00    -0.440 NA
ATOM     16  C   LIG    1       -0.930   3.365   6.148  0.00  0.00    +0.220 A 
ATOM     17  N   LIG    1        0.095   2.594   6.398  0.00  0.00    -0.360 NA
ATOM     18  O   LIG    1        0.275   2.516   7.595  0.00  0.00    +0.090 OA
BRANCH  14  23
ATOM     19  C   LIG    1        1.296   3.063  13.508  0.00  0.00    +0.110 C 
ATOM     20  C   LIG    1        0.192   2.335  12.786  0.00  0.00    +0.540 C 
ATOM     21  N   LIG    1       -0.033   2.577  11.479  0.00  0.00    -0.650 N 
ATOM     22  C   LIG    1       -0.995   2.066  10.483  0.00  0.00    +0.320 C 
ATOM     23  C   LIG    1       -0.768   3.394   9.738  0.00  0.00    +0.120 C 
ATOM     24  C   LIG    1        0.585   3.458  10.470  0.00  0.00    +0.310 C 
ATOM     25  O   LIG    1       -0.495   1.532  13.381  0.00  0.00    -0.540 OA
ENDBRANCH  14  23
ENDBRANCH   1  16
TORSDOF 3
