REMARK  Name = ZINCqH0000006VTu.0
REMARK                            x       y       z     vdW  Elec       q    Type
REMARK                         _______ _______ _______ _____ _____    ______ ____
ROOT
ATOM      1  C   LIG    1        3.710  -0.716  -0.036  0.00  0.00    +0.550 C 
ATOM      2  N   LIG    1        4.731   0.090   0.645  0.00  0.00    -0.750 N 
ATOM      3  H   LIG    1        5.404   0.570   0.137  0.00  0.00    +0.410 HD
ATOM      4  C   LIG    1        4.715   0.157   2.030  0.00  0.00    +0.240 A 
ATOM      5  C   LIG    1        5.168   1.268   2.718  0.00  0.00    -0.050 A 
ATOM      6  C   LIG    1        5.121   1.284   4.099  0.00  0.00    +0.080 A 
ATOM      7  C   LIG    1        4.625   0.196   4.799  0.00  0.00    -0.040 A 
ATOM      8  C   LIG    1        4.171  -0.921   4.129  0.00  0.00    +0.120 A 
ATOM      9  C   LIG    1        4.215  -0.951   2.738  0.00  0.00    -0.200 A 
ATOM     10  C   LIG    1        3.748  -2.121   1.972  0.00  0.00    +0.580 C 
ATOM     11  O   LIG    1        3.545  -3.181   2.531  0.00  0.00    -0.520 OA
ATOM     12  N   LIG    1        3.549  -2.002   0.642  0.00  0.00    -0.620 N 
ENDROOT
BRANCH   1  15
ATOM     13  C   LIG    1        1.181   2.090   0.002  0.00  0.00    +0.100 A 
ATOM     14  C   LIG    1        2.386   1.408  -0.013  0.00  0.00    -0.040 A 
ATOM     15  C   LIG    1        2.398   0.025  -0.020  0.00  0.00    -0.100 A 
ATOM     16  C   LIG    1        1.209  -0.679  -0.013  0.00  0.00    +0.010 A 
ATOM     17  C   LIG    1        0.002  -0.004   0.002  0.00  0.00    +0.030 A 
ATOM     18  C   LIG    1       -0.017   1.381   0.010  0.00  0.00    +0.080 A 
BRANCH  13  20
ATOM     19  C   LIG    1        2.434   4.111   0.001  0.00  0.00    +0.240 C 
ATOM     20  O   LIG    1        1.168   3.450   0.009  0.00  0.00    -0.310 OA
ENDBRANCH  13  20
BRANCH  18  21
ATOM     21  O   LIG    1       -1.203   2.046   0.019  0.00  0.00    -0.490 OA
ATOM     22  H   LIG    1       -1.542   2.234   0.905  0.00  0.00    +0.390 HD
ENDBRANCH  18  21
ENDBRANCH   1  15
BRANCH  12  23
ATOM     23  C   LIG    1        3.164  -3.182  -0.136  0.00  0.00    +0.410 C 
BRANCH  23  24
ATOM     24  C   LIG    1        4.403  -3.881  -0.634  0.00  0.00    -0.050 A 
ATOM     25  C   LIG    1        5.072  -4.851   0.013  0.00  0.00    -0.030 A 
ATOM     26  C   LIG    1        6.162  -5.216  -0.811  0.00  0.00    -0.070 A 
ATOM     27  C   LIG    1        6.093  -4.447  -1.912  0.00  0.00    +0.170 A 
ATOM     28  O   LIG    1        5.022  -3.644  -1.802  0.00  0.00    -0.180 OA
ENDBRANCH  23  24
ENDBRANCH  12  23
TORSDOF 5
