REMARK  Name = ZINCpe00000bcSwX.0
REMARK                            x       y       z     vdW  Elec       q    Type
REMARK                         _______ _______ _______ _____ _____    ______ ____
ROOT
ATOM      1  C   LIG    1       -1.312   2.808   1.341  0.00  0.00    +0.260 C 
ATOM      2  C   LIG    1       -0.668   1.431   1.157  0.00  0.00    +0.050 C 
ATOM      3  C   LIG    1        0.497   1.568   0.169  0.00  0.00    +0.030 C 
ATOM      4  C   LIG    1       -0.065   1.905  -1.212  0.00  0.00    +0.260 C 
ATOM      5  N   LIG    1       -0.986   3.032  -1.127  0.00  0.00    -0.570 N 
ATOM      6  C   LIG    1       -1.570   3.437   0.002  0.00  0.00    +0.500 C 
ATOM      7  O   LIG    1       -2.352   4.362  -0.057  0.00  0.00    -0.500 OA
ENDROOT
BRANCH   5   8
ATOM      8  C   LIG    1       -1.276   3.730  -2.300  0.00  0.00    +0.160 A 
ATOM      9  C   LIG    1       -0.505   4.831  -2.660  0.00  0.00    +0.020 A 
ATOM     10  C   LIG    1       -0.784   5.519  -3.819  0.00  0.00    +0.080 A 
ATOM     11  C   LIG    1       -1.850   5.118  -4.629  0.00  0.00    -0.020 A 
ATOM     12  C   LIG    1       -2.626   4.014  -4.261  0.00  0.00    +0.080 A 
ATOM     13  C   LIG    1       -2.337   3.328  -3.103  0.00  0.00    +0.030 A 
BRANCH  11  14
ATOM     14  C   LIG    1       -2.148   5.835  -5.832  0.00  0.00    +0.250 C 
ATOM     15  N   LIG    1       -2.384   6.404  -6.787  0.00  0.00    -0.410 NA
ENDBRANCH  11  14
ENDBRANCH   5   8
BRANCH   1  17
ATOM     16  C   LIG    1       -0.905   4.689   2.835  0.00  0.00    +0.500 C 
ATOM     17  N   LIG    1       -0.409   3.664   2.114  0.00  0.00    -0.720 N 
ATOM     18  H   LIG    1        0.546   3.493   2.107  0.00  0.00    +0.400 HD
ATOM     19  O   LIG    1       -2.098   4.903   2.843  0.00  0.00    -0.500 OA
BRANCH  16  20
ATOM     20  C   LIG    1        0.024   5.569   3.630  0.00  0.00    +0.320 C 
BRANCH  20  22
ATOM     21  C   LIG    1       -0.991   7.783   3.716  0.00  0.00    +0.550 C 
ATOM     22  N   LIG    1       -0.753   6.602   4.320  0.00  0.00    -0.600 N 
ATOM     23  C   LIG    1       -1.272   6.351   5.667  0.00  0.00    +0.290 C 
ATOM     24  O   LIG    1       -0.560   7.991   2.598  0.00  0.00    -0.540 OA
BRANCH  21  26
ATOM     25  C   LIG    1       -2.006   9.985   3.812  0.00  0.00    +0.140 C 
ATOM     26  C   LIG    1       -1.771   8.820   4.408  0.00  0.00    -0.090 C 
ENDBRANCH  21  26
ENDBRANCH  20  22
ENDBRANCH  16  20
ENDBRANCH   1  17
TORSDOF 6
