REMARK  Name = ZINCb80000002EOh.0
REMARK                            x       y       z     vdW  Elec       q    Type
REMARK                         _______ _______ _______ _____ _____    ______ ____
ROOT
ATOM      1  CA  LIG    1        4.086   0.836  -1.476  0.00  0.00    +0.090 C 
ENDROOT
BRANCH   1   2
ATOM      2  N   LIG    1        3.645   2.079  -2.121  0.00  0.00    -0.610 N 
ATOM      3  H1  LIG    1        2.637   2.125  -2.110  0.00  0.00    +0.410 HD
ATOM      4  H2  LIG    1        3.972   2.097  -3.076  0.00  0.00    +0.430 HD
ATOM      5  H3  LIG    1        4.023   2.870  -1.621  0.00  0.00    +0.430 HD
ENDBRANCH   1   2
BRANCH   1   6
ATOM      6  C   LIG    1        5.591   0.767  -1.493  0.00  0.00    +0.490 C 
ATOM      7  OXT LIG    1        6.248   1.793  -1.464  0.00  0.00    -0.670 OA
ATOM      8  O   LIG    1        6.151  -0.315  -1.536  0.00  0.00    -0.630 OA
ENDBRANCH   1   6
BRANCH   1   9
ATOM      9  C   LIG    1        3.590   0.809  -0.028  0.00  0.00    +0.150 C 
BRANCH   9  10
ATOM     10  C   LIG    1        2.084   0.754  -0.014  0.00  0.00    -0.200 A 
ATOM     11  C   LIG    1        1.244   1.804  -0.000  0.00  0.00    +0.140 A 
ATOM     12  O   LIG    1       -0.016   1.339   0.009  0.00  0.00    -0.170 OA
ATOM     13  C   LIG    1        0.002  -0.004   0.002  0.00  0.00    +0.180 A 
ATOM     14  C   LIG    1        1.284  -0.412  -0.012  0.00  0.00    -0.050 A 
ENDBRANCH   9  10
ENDBRANCH   1   9
TORSDOF 4
