REMARK  Name = ZINCrH000004otCe.0
REMARK                            x       y       z     vdW  Elec       q    Type
REMARK                         _______ _______ _______ _____ _____    ______ ____
ROOT
ATOM      1  N   LIG    1       -7.484   0.341   1.237  0.00  0.00    -0.510 NA
ATOM      2  C   LIG    1       -7.516   1.259   0.091  0.00  0.00    +0.210 C 
ENDROOT
BRANCH   1   4
ATOM      3  C   LIG    1       -5.215  -0.308   0.582  0.00  0.00    +0.070 C 
ATOM      4  C   LIG    1       -6.609  -0.808   0.967  0.00  0.00    +0.170 C 
BRANCH   4   5
ATOM      5  C   LIG    1       -6.512  -1.666   2.202  0.00  0.00    -0.030 A 
ATOM      6  C   LIG    1       -6.629  -3.040   2.100  0.00  0.00    -0.010 A 
ATOM      7  C   LIG    1       -6.540  -3.827   3.233  0.00  0.00    +0.120 A 
ATOM      8  C   LIG    1       -6.334  -3.241   4.468  0.00  0.00    -0.660 A 
ATOM      9  C   LIG    1       -6.222  -1.867   4.570  0.00  0.00    +0.110 A 
ATOM     10  C   LIG    1       -6.306  -1.080   3.437  0.00  0.00    +0.030 A 
BRANCH   8  11
ATOM     11  S   LIG    1       -6.221  -4.244   5.912  0.00  0.00    +2.500 S 
ATOM     12  O   LIG    1       -6.629  -3.386   6.968  0.00  0.00    -0.940 OA
ATOM     13  O   LIG    1       -6.964  -5.411   5.587  0.00  0.00    -0.940 OA
ATOM     14  C   LIG    1       -4.455  -4.634   6.055  0.00  0.00    -0.260 C 
ENDBRANCH   8  11
ENDBRANCH   4   5
ENDBRANCH   1   4
BRANCH   1  15
ATOM     15  C   LIG    1       -8.839  -0.102   1.594  0.00  0.00    +0.210 C 
BRANCH  15  16
ATOM     16  C   LIG    1       -9.634   1.074   2.099  0.00  0.00    +0.520 C 
ATOM     17  N   LIG    1      -10.914   0.905   2.488  0.00  0.00    -0.730 N 
ATOM     18  H   LIG    1      -11.322   0.027   2.442  0.00  0.00    +0.400 HD
ATOM     19  O   LIG    1       -9.124   2.173   2.156  0.00  0.00    -0.520 OA
BRANCH  17  20
ATOM     20  C   LIG    1      -11.688   2.048   2.978  0.00  0.00    +0.290 C 
ATOM     21  C   LIG    1      -11.414   2.246   4.471  0.00  0.00    +0.040 C 
BRANCH  20  22
ATOM     22  C   LIG    1      -13.157   1.789   2.767  0.00  0.00    -0.080 A 
ATOM     23  C   LIG    1      -13.674   0.526   2.988  0.00  0.00    +0.020 A 
ATOM     24  C   LIG    1      -15.023   0.289   2.800  0.00  0.00    +0.050 A 
ATOM     25  C   LIG    1      -15.853   1.312   2.378  0.00  0.00    -0.090 A 
ATOM     26  C   LIG    1      -15.333   2.574   2.151  0.00  0.00    +0.050 A 
ATOM     27 BR   LIG    1      -17.696   0.986   2.112  0.00  0.00    -0.050 Br
ATOM     28  C   LIG    1      -13.986   2.812   2.346  0.00  0.00    +0.040 A 
ENDBRANCH  20  22
ENDBRANCH  17  20
ENDBRANCH  15  16
ENDBRANCH   1  15
TORSDOF 7
