REMARK  Name = ZINCkj00000xwsbh.0
REMARK                            x       y       z     vdW  Elec       q    Type
REMARK                         _______ _______ _______ _____ _____    ______ ____
ROOT
ATOM      1  C   LIG    1       -0.659   1.696   1.257  0.00  0.00    +0.160 C 
ATOM      2  C   LIG    1       -0.114   1.006   2.525  0.00  0.00    +0.080 C 
ATOM      3  C   LIG    1       -1.374   0.873   3.420  0.00  0.00    +0.080 C 
ATOM      4  C   LIG    1       -2.477   0.597   2.369  0.00  0.00    +0.250 C 
ATOM      5  N   LIG    1       -2.110   1.433   1.207  0.00  0.00    -0.380 N 
ATOM      6  H   LIG    1       -2.337   0.947   0.352  0.00  0.00    +0.420 HD
ENDROOT
BRANCH   1  13
ATOM      7  C   LIG    1        3.688   2.318   0.279  0.00  0.00    +0.110 C 
ATOM      8  C   LIG    1        2.181   2.357   0.263  0.00  0.00    +0.530 C 
ATOM      9  N   LIG    1        1.479   1.212   0.145  0.00  0.00    -0.610 N 
ATOM     10  C   LIG    1        2.049  -0.147   0.125  0.00  0.00    +0.260 C 
ATOM     11  C   LIG    1        1.000  -1.006  -0.624  0.00  0.00    +0.060 C 
ATOM     12  C   LIG    1       -0.329  -0.385  -0.118  0.00  0.00    +0.030 C 
ATOM     13  C   LIG    1        0.018   1.113   0.015  0.00  0.00    +0.230 C 
ATOM     14  O   LIG    1        1.601   3.417   0.357  0.00  0.00    -0.540 OA
ENDBRANCH   1  13
BRANCH   5  15
ATOM     15  C   LIG    1       -2.844   2.704   1.264  0.00  0.00    +0.360 C 
BRANCH  15  16
ATOM     16  C   LIG    1       -4.317   2.442   1.089  0.00  0.00    -0.320 A 
ATOM     17  C   LIG    1       -5.205   2.191   2.080  0.00  0.00    +0.280 A 
ATOM     18  N   LIG    1       -6.415   2.010   1.512  0.00  0.00    -0.350 N 
ATOM     19  N   LIG    1       -6.268   2.155   0.127  0.00  0.00    -0.270 NA
ATOM     20  C   LIG    1       -7.664   1.716   2.220  0.00  0.00    +0.380 C 
ATOM     21  C   LIG    1       -5.011   2.420  -0.125  0.00  0.00    +0.260 A 
ENDBRANCH  15  16
ENDBRANCH   5  15
TORSDOF 3
