REMARK  Name = ZINCkj00000xwsbh.1
REMARK                            x       y       z     vdW  Elec       q    Type
REMARK                         _______ _______ _______ _____ _____    ______ ____
ROOT
ATOM      1  C   LIG    1       -1.650   2.722  -0.950  0.00  0.00    +0.160 C 
ATOM      2  C   LIG    1       -1.212   3.052   0.492  0.00  0.00    +0.080 C 
ATOM      3  C   LIG    1       -0.523   1.742   0.960  0.00  0.00    +0.080 C 
ATOM      4  C   LIG    1        0.155   1.263  -0.348  0.00  0.00    +0.250 C 
ATOM      5  N   LIG    1       -0.799   1.613  -1.422  0.00  0.00    -0.380 N 
ATOM      6  H   LIG    1       -1.376   0.814  -1.638  0.00  0.00    +0.430 HD
ENDROOT
BRANCH   1  13
ATOM      7  C   LIG    1       -4.567   6.058  -0.930  0.00  0.00    +0.120 C 
ATOM      8  C   LIG    1       -3.733   4.928  -1.475  0.00  0.00    +0.530 C 
ATOM      9  N   LIG    1       -2.388   5.010  -1.451  0.00  0.00    -0.610 N 
ATOM     10  C   LIG    1       -1.607   6.185  -1.021  0.00  0.00    +0.260 C 
ATOM     11  C   LIG    1       -0.241   6.035  -1.736  0.00  0.00    +0.060 C 
ATOM     12  C   LIG    1       -0.026   4.500  -1.681  0.00  0.00    +0.040 C 
ATOM     13  C   LIG    1       -1.457   3.945  -1.849  0.00  0.00    +0.220 C 
ATOM     14  O   LIG    1       -4.272   3.943  -1.935  0.00  0.00    -0.540 OA
ENDBRANCH   1  13
BRANCH   5  15
ATOM     15  C   LIG    1       -0.062   2.032  -2.621  0.00  0.00    +0.350 C 
BRANCH  15  16
ATOM     16  C   LIG    1        0.534   0.821  -3.292  0.00  0.00    -0.320 A 
ATOM     17  C   LIG    1       -0.019   0.119  -4.308  0.00  0.00    +0.290 A 
ATOM     18  N   LIG    1        0.824  -0.886  -4.621  0.00  0.00    -0.350 N 
ATOM     19  N   LIG    1        1.934  -0.799  -3.770  0.00  0.00    -0.270 NA
ATOM     20  C   LIG    1        0.617  -1.890  -5.668  0.00  0.00    +0.380 C 
ATOM     21  C   LIG    1        1.762   0.228  -2.978  0.00  0.00    +0.260 A 
ENDBRANCH  15  16
ENDBRANCH   5  15
TORSDOF 3
