REMARK  Name = ZINCrD000000D9Df.0
REMARK                            x       y       z     vdW  Elec       q    Type
REMARK                         _______ _______ _______ _____ _____    ______ ____
ROOT
ATOM      1  C   UNK A  0       -0.789   4.882  -5.665  0.00  0.00    -0.150 A 
ATOM      2  C   UNK A  0       -1.047   6.079  -5.016  0.00  0.00    +0.190 A 
ATOM      3  C   UNK A  0       -2.108   6.136  -4.129  0.00  0.00    -0.090 A 
ATOM      4  C   UNK A  0       -2.880   4.998  -3.916  0.00  0.00    +0.450 A 
ATOM      5  N   UNK A  0       -2.607   3.868  -4.547  0.00  0.00    -0.520 NA
ATOM      6  C   UNK A  0       -1.600   3.780  -5.408  0.00  0.00    +0.300 A 
ENDROOT
BRANCH   6   7
ATOM      7  C   UNK A  0       -1.333   2.494  -6.098  0.00  0.00    -0.070 A 
ATOM      8  C   UNK A  0       -2.386   1.759  -6.639  0.00  0.00    +0.060 A 
ATOM      9  C   UNK A  0       -2.131   0.566  -7.284  0.00  0.00    +0.010 A 
ATOM     10  C   UNK A  0       -0.835   0.094  -7.384  0.00  0.00    +0.040 A 
ATOM     11  C   UNK A  0        0.213   0.817  -6.844  0.00  0.00    +0.020 A 
ATOM     12  C   UNK A  0       -0.029   2.014  -6.202  0.00  0.00    +0.030 A 
ENDBRANCH   6   7
BRANCH   1  14
ATOM     13  O   UNK A  0        1.390   5.340  -6.387  0.00  0.00    -0.170 OA
ATOM     14  N   UNK A  0        0.336   4.776  -6.622  0.00  0.00    +0.040 N 
ATOM     15  O   UNK A  0        0.208   4.125  -7.643  0.00  0.00    -0.140 OA
ENDBRANCH   1  14
BRANCH   4  16
ATOM     16  N   TYR A  1       -3.947   5.048  -3.026  0.00  0.00    -0.690 N 
ATOM     17  H   TYR A  1       -4.489   4.258  -2.874  0.00  0.00    +0.410 HD
BRANCH  16  18
ATOM     18  CA  TYR A  1       -4.253   6.293  -2.319  0.00  0.00    +0.260 C 
BRANCH  18  19
ATOM     19  CB  TYR A  1       -5.732   6.306  -1.925  0.00  0.00    +0.100 C 
BRANCH  19  20
ATOM     20  CG  TYR A  1       -6.583   6.334  -3.168  0.00  0.00    -0.100 A 
ATOM     21  CD2 TYR A  1       -6.952   7.545  -3.724  0.00  0.00    +0.030 A 
ATOM     22  CE2 TYR A  1       -7.737   7.574  -4.861  0.00  0.00    -0.010 A 
ATOM     23  CZ  TYR A  1       -8.145   6.386  -5.451  0.00  0.00    +0.110 A 
ATOM     24  CE1 TYR A  1       -7.768   5.173  -4.895  0.00  0.00    -0.010 A 
ATOM     25  CD1 TYR A  1       -6.987   5.149  -3.755  0.00  0.00    +0.030 A 
BRANCH  23  26
ATOM     26  OH  TYR A  1       -8.912   6.412  -6.572  0.00  0.00    -0.500 OA
ATOM     27  HH  TYR A  1       -8.405   6.417  -7.396  0.00  0.00    +0.390 HD
ENDBRANCH  23  26
ENDBRANCH  19  20
ENDBRANCH  18  19
BRANCH  18  28
ATOM     28  C   TYR A  1       -3.390   6.390  -1.060  0.00  0.00    +0.170 C 
BRANCH  28  29
ATOM     29  O   TYR A  1       -3.747   5.344  -0.155  0.00  0.00    -0.570 OA
ATOM     30  H   TYR A  1       -3.238   5.344   0.667  0.00  0.00    +0.380 HD
ENDBRANCH  28  29
ENDBRANCH  18  28
ENDBRANCH  16  18
ENDBRANCH   4  16
TORSDOF 9
