REMARK  Name = ZINCkj00000MENg6.0
REMARK                            x       y       z     vdW  Elec       q    Type
REMARK                         _______ _______ _______ _____ _____    ______ ____
ROOT
ATOM      1  C   LIG    1       -3.995   2.032   2.585  0.00  0.00    +0.620 C 
ATOM      2  N   LIG    1       -2.792   1.425   2.555  0.00  0.00    -0.630 N 
ATOM      3  C   LIG    1       -2.166   1.048   1.278  0.00  0.00    +0.310 C 
ATOM      4  C   LIG    1       -0.729   1.579   1.267  0.00  0.00    +0.150 C 
ATOM      5  N   LIG    1       -0.019   1.093   2.457  0.00  0.00    -0.500 N 
ATOM      6  C   LIG    1       -0.635   1.647   3.668  0.00  0.00    +0.150 C 
ATOM      7  C   LIG    1        0.178   1.225   4.894  0.00  0.00    +0.110 C 
ATOM      8  H   LIG    1        0.948   1.380   2.411  0.00  0.00    +0.430 HD
ATOM      9  H   LIG    1       -0.067   0.086   2.487  0.00  0.00    +0.430 HD
ATOM     10  C   LIG    1       -0.013   1.086   0.008  0.00  0.00    +0.110 C 
ATOM     11  C   LIG    1       -2.068   1.120   3.799  0.00  0.00    +0.330 C 
ATOM     12  O   LIG    1       -4.497   2.336   3.650  0.00  0.00    -0.490 OA
ENDROOT
BRANCH   1  17
ATOM     13  C   LIG    1       -4.625   3.541   0.492  0.00  0.00    +0.240 A 
ATOM     14  N   LIG    1       -5.432   3.318  -0.509  0.00  0.00    -0.380 NA
ATOM     15  O   LIG    1       -5.962   2.237  -0.436  0.00  0.00    +0.110 OA
ATOM     16  C   LIG    1       -5.591   1.539   0.639  0.00  0.00    +0.090 A 
ATOM     17  C   LIG    1       -4.702   2.327   1.327  0.00  0.00    -0.270 A 
BRANCH  16  18
ATOM     18  C   LIG    1       -6.058   0.159   1.024  0.00  0.00    +0.030 C 
ATOM     19  C   LIG    1       -6.895  -0.614   0.003  0.00  0.00    +0.070 C 
ATOM     20  C   LIG    1       -7.557  -0.040   1.258  0.00  0.00    +0.080 C 
ENDBRANCH  16  18
BRANCH  13  22
ATOM     21  C   LIG    1       -3.972   5.702  -0.246  0.00  0.00    +0.280 C 
ATOM     22  O   LIG    1       -3.876   4.649   0.716  0.00  0.00    -0.280 OA
ENDBRANCH  13  22
ENDBRANCH   1  17
TORSDOF 3
