REMARK  Name = ZINCrD000000C6V0.0
REMARK                            x       y       z     vdW  Elec       q    Type
REMARK                         _______ _______ _______ _____ _____    ______ ____
ROOT
ATOM      1  C   LIG    1        2.943  -0.750   8.463  0.00  0.00    +0.010 C 
ATOM      2  C   LIG    1        2.272  -1.810   7.586  0.00  0.00    +0.060 C 
ATOM      3  C   LIG    1        1.376  -1.120   6.553  0.00  0.00    +0.290 C 
ATOM      4  N   LIG    1        2.180  -0.142   5.808  0.00  0.00    -1.000 NA
ATOM      5  C   LIG    1        2.944   0.863   6.559  0.00  0.00    +0.290 C 
ATOM      6  C   LIG    1        3.818   0.154   7.592  0.00  0.00    +0.030 C 
ENDROOT
BRANCH   1   8
ATOM      7  O   LIG    1        3.866  -2.637   9.539  0.00  0.00    -0.510 OA
ATOM      8  C   LIG    1        3.799  -1.426   9.502  0.00  0.00    +0.520 C 
ATOM      9  N   LIG    1        4.490  -0.686  10.392  0.00  0.00    -0.670 N 
ATOM     10  H   LIG    1        4.490   0.281  10.321  0.00  0.00    +0.410 HD
BRANCH   9  11
ATOM     11  C   LIG    1        5.207  -1.313  11.416  0.00  0.00    +0.170 A 
ATOM     12  C   LIG    1        5.303  -0.714  12.665  0.00  0.00    -0.030 A 
ATOM     13  C   LIG    1        6.007  -1.337  13.678  0.00  0.00    +0.070 A 
ATOM     14  C   LIG    1        6.626  -2.551  13.446  0.00  0.00    -0.030 A 
ATOM     15  C   LIG    1        6.538  -3.150  12.199  0.00  0.00    +0.120 A 
ATOM     16  F   LIG    1        7.143  -4.337  11.976  0.00  0.00    -0.140 F 
ATOM     17  C   LIG    1        5.830  -2.533  11.184  0.00  0.00    -0.010 A 
ENDBRANCH   9  11
ENDBRANCH   1   8
BRANCH   4  18
ATOM     18  S   LIG    1        2.231  -0.177   4.153  0.00  0.00    +2.600 S 
ATOM     19  O   LIG    1        3.481   0.414   3.827  0.00  0.00    -0.950 OA
ATOM     20  O   LIG    1        1.952  -1.531   3.822  0.00  0.00    -0.950 OA
BRANCH  18  21
ATOM     21  C   LIG    1        0.865   0.899   3.636  0.00  0.00    -0.340 C 
BRANCH  21  22
ATOM     22  C   LIG    1        0.805   0.949   2.108  0.00  0.00    -0.070 C 
ATOM     23  C   LIG    1        0.554  -0.412   1.390  0.00  0.00    +0.010 C 
ATOM     24  C   LIG    1        0.037  -0.023  -0.014  0.00  0.00    +0.020 C 
ATOM     25  C   LIG    1        0.025   1.536  -0.013  0.00  0.00    -0.010 C 
ATOM     26  C   LIG    1        1.531   1.938  -0.022  0.00  0.00    +0.020 C 
ATOM     27  C   LIG    1       -0.342   1.821   1.486  0.00  0.00    +0.040 C 
ATOM     28  C   LIG    1        2.061   1.540   1.396  0.00  0.00    +0.010 C 
ENDBRANCH  21  22
ENDBRANCH  18  21
ENDBRANCH   4  18
TORSDOF 5
