REMARK  Name = ZINCvU00000005gQ.0
REMARK                            x       y       z     vdW  Elec       q    Type
REMARK                         _______ _______ _______ _____ _____    ______ ____
ROOT
ATOM      1  C   LIG    1        8.680   3.373  -0.058  0.00  0.00    +0.520 C 
ATOM      2  N   LIG    1        9.873   4.001  -0.067  0.00  0.00    -0.670 N 
ATOM      3  H   LIG    1        9.911   4.967  -0.136  0.00  0.00    +0.420 HD
ATOM      4  O   LIG    1        8.633   2.161  -0.056  0.00  0.00    -0.520 OA
ENDROOT
BRANCH   2   5
ATOM      5  C   LIG    1       11.056   3.257   0.023  0.00  0.00    +0.150 A 
ATOM      6  C   LIG    1       12.149   3.772   0.708  0.00  0.00    +0.010 A 
ATOM      7  C   LIG    1       13.314   3.037   0.802  0.00  0.00    +0.030 A 
ATOM      8  C   LIG    1       13.396   1.788   0.202  0.00  0.00    +0.110 A 
ATOM      9  C   LIG    1       12.306   1.275  -0.488  0.00  0.00    +0.040 A 
ATOM     10  C   LIG    1       11.139   2.008  -0.577  0.00  0.00    +0.050 A 
BRANCH   8  11
ATOM     11  N   LIG    1       14.581   1.043   0.293  0.00  0.00    -0.450 N 
ATOM     12  C   LIG    1       14.689  -0.260   0.674  0.00  0.00    +0.490 A 
ATOM     13  N   LIG    1       15.936  -0.633   0.645  0.00  0.00    -0.490 NA
ATOM     14  C   LIG    1       16.714   0.406   0.244  0.00  0.00    +0.050 A 
ATOM     15  C   LIG    1       18.088   0.557   0.042  0.00  0.00    +0.070 A 
ATOM     16  C   LIG    1       18.587   1.764  -0.392  0.00  0.00    +0.000 A 
ATOM     17  C   LIG    1       17.736   2.836  -0.621  0.00  0.00    +0.030 A 
ATOM     18  C   LIG    1       16.378   2.705  -0.423  0.00  0.00    +0.010 A 
ATOM     19  C   LIG    1       15.857   1.494   0.008  0.00  0.00    +0.050 A 
ENDBRANCH   8  11
ENDBRANCH   2   5
BRANCH   1  20
ATOM     20  C   LIG    1        7.405   4.176  -0.051  0.00  0.00    +0.090 C 
BRANCH  20  21
ATOM     21  C   LIG    1        6.205   3.228  -0.041  0.00  0.00    +0.070 C 
BRANCH  21  22
ATOM     22  C   LIG    1        4.930   4.032  -0.033  0.00  0.00    +0.400 C 
ATOM     23  O   LIG    1        4.977   5.244  -0.035  0.00  0.00    -0.460 OA
BRANCH  22  27
ATOM     24  C   LIG    1        1.183   2.058  -0.003  0.00  0.00    +0.170 A 
ATOM     25  C   LIG    1        2.358   1.314  -0.005  0.00  0.00    -0.080 A 
ATOM     26  C   LIG    1        3.573   1.948  -0.021  0.00  0.00    +0.110 A 
ATOM     27  C   LIG    1        3.631   3.347  -0.023  0.00  0.00    -0.220 A 
ATOM     28  C   LIG    1        2.445   4.092  -0.016  0.00  0.00    +0.120 A 
ATOM     29  C   LIG    1        1.234   3.448  -0.006  0.00  0.00    -0.030 A 
BRANCH  24  30
ATOM     30  O   LIG    1       -0.018   1.426   0.007  0.00  0.00    -0.310 OA
BRANCH  30  32
ATOM     31  C   LIG    1       -1.434  -0.532   0.021  0.00  0.00    +0.070 C 
ATOM     32  C   LIG    1        0.002  -0.003   0.009  0.00  0.00    +0.190 C 
ENDBRANCH  30  32
ENDBRANCH  24  30
ENDBRANCH  22  27
ENDBRANCH  21  22
ENDBRANCH  20  21
ENDBRANCH   1  20
TORSDOF 8
