REMARK  Name = ZINCrD0000071Vy3.0
REMARK                            x       y       z     vdW  Elec       q    Type
REMARK                         _______ _______ _______ _____ _____    ______ ____
ROOT
ATOM      1  C   LIG    1       -0.017   1.411   0.010  0.00  0.00    +0.420 C 
ATOM      2  O   LIG    1       -1.077   2.004   0.018  0.00  0.00    -0.420 OA
ENDROOT
BRANCH   1   7
ATOM      3  C   LIG    1       -0.621  -2.156  -0.004  0.00  0.00    -0.220 A 
ATOM      4  C   LIG    1        0.762  -2.089  -0.016  0.00  0.00    +0.140 A 
ATOM      5  N   LIG    1        1.130  -0.800  -0.013  0.00  0.00    -0.520 N 
ATOM      6  H   LIG    1        2.045  -0.477  -0.019  0.00  0.00    +0.430 HD
ATOM      7  C   LIG    1        0.002  -0.004   0.002  0.00  0.00    -0.100 A 
ATOM      8  C   LIG    1        1.698  -3.270  -0.032  0.00  0.00    +0.160 C 
ATOM      9  C   LIG    1       -1.102  -0.829   0.014  0.00  0.00    +0.000 A 
ATOM     10  C   LIG    1       -2.546  -0.397   0.037  0.00  0.00    +0.140 C 
BRANCH   3  11
ATOM     11  C   LIG    1       -1.437  -3.381  -0.003  0.00  0.00    +0.550 C 
ATOM     12  O   LIG    1       -1.764  -3.893   1.050  0.00  0.00    -0.490 OA
BRANCH  11  13
ATOM     13  O   LIG    1       -1.821  -3.936  -1.169  0.00  0.00    -0.350 OA
BRANCH  13  15
ATOM     14  C   LIG    1       -2.962  -5.623  -2.505  0.00  0.00    +0.070 C 
ATOM     15  C   LIG    1       -2.624  -5.144  -1.092  0.00  0.00    +0.200 C 
ENDBRANCH  13  15
ENDBRANCH  11  13
ENDBRANCH   3  11
ENDBRANCH   1   7
BRANCH   1  16
ATOM     16  C   LIG    1        1.278   2.183   0.002  0.00  0.00    +0.140 C 
ATOM     17  C   LIG    1        1.830   2.236  -1.424  0.00  0.00    +0.070 C 
BRANCH  16  18
ATOM     18  O   LIG    1        1.040   3.533   0.479  0.00  0.00    -0.330 OA
BRANCH  18  19
ATOM     19  C   LIG    1        2.054   4.143   1.113  0.00  0.00    +0.460 C 
ATOM     20  O   LIG    1        3.105   3.567   1.264  0.00  0.00    -0.500 OA
BRANCH  19  21
ATOM     21  C   LIG    1        1.881   5.545   1.637  0.00  0.00    +0.170 C 
BRANCH  21  22
ATOM     22  C   LIG    1        3.156   5.994   2.301  0.00  0.00    -0.090 A 
ATOM     23  C   LIG    1        3.349   5.767   3.651  0.00  0.00    +0.060 A 
ATOM     24  C   LIG    1        4.521   6.173   4.261  0.00  0.00    -0.010 A 
ATOM     25  C   LIG    1        5.497   6.819   3.521  0.00  0.00    +0.100 A 
ATOM     26  C   LIG    1        5.301   7.051   2.170  0.00  0.00    -0.010 A 
ATOM     27  F   LIG    1        6.641   7.222   4.117  0.00  0.00    -0.140 F 
ATOM     28  C   LIG    1        4.131   6.638   1.562  0.00  0.00    +0.060 A 
ENDBRANCH  21  22
ENDBRANCH  19  21
ENDBRANCH  18  19
ENDBRANCH  16  18
ENDBRANCH   1  16
TORSDOF 9
