REMARK  Name = ZINCrg00001JduVY.0
REMARK                            x       y       z     vdW  Elec       q    Type
REMARK                         _______ _______ _______ _____ _____    ______ ____
ROOT
ATOM      1  N   LIG    1        1.042   1.129  -2.713  0.00  0.00    -0.610 N 
ATOM      2  C   LIG    1       -0.297   1.068  -2.570  0.00  0.00    +0.520 C 
ATOM      3  O   LIG    1       -0.836   1.653  -1.654  0.00  0.00    -0.490 OA
ENDROOT
BRANCH   2   4
ATOM      4  C   LIG    1       -1.124   0.274  -3.547  0.00  0.00    -0.020 C 
ATOM      5  C   LIG    1       -2.520   0.043  -2.963  0.00  0.00    +0.070 C 
ATOM      6  C   LIG    1       -3.275  -0.969  -3.837  0.00  0.00    +0.120 C 
ATOM      7  C   LIG    1       -3.139  -0.537  -5.275  0.00  0.00    -0.030 A 
ATOM      8  C   LIG    1       -3.849  -0.933  -6.338  0.00  0.00    +0.150 A 
ATOM      9  N   LIG    1       -3.376  -0.281  -7.414  0.00  0.00    -0.490 NA
ATOM     10  C   LIG    1       -2.397   0.505  -7.048  0.00  0.00    +0.390 A 
ATOM     11  N   LIG    1       -2.214   0.375  -5.726  0.00  0.00    -0.460 N 
ATOM     12  C   LIG    1       -1.237   1.047  -4.866  0.00  0.00    +0.290 C 
ENDBRANCH   2   4
BRANCH   1  16
ATOM     13  N   LIG    1        4.096  -0.210  -5.289  0.00  0.00    -0.430 N 
ATOM     14  C   LIG    1        3.266   0.901  -5.773  0.00  0.00    +0.210 C 
ATOM     15  C   LIG    1        2.553   1.560  -4.590  0.00  0.00    +0.050 C 
ATOM     16  C   LIG    1        1.682   0.519  -3.881  0.00  0.00    +0.220 C 
ATOM     17  C   LIG    1        2.561  -0.651  -3.430  0.00  0.00    +0.050 C 
ATOM     18  C   LIG    1        3.275  -1.244  -4.646  0.00  0.00    +0.230 C 
BRANCH  13  23
ATOM     19  C   LIG    1        7.313  -3.215  -7.381  0.00  0.00    +0.200 C 
ATOM     20  C   LIG    1        6.319  -2.083  -7.354  0.00  0.00    +0.290 A 
ATOM     21  N   LIG    1        6.039  -1.409  -8.431  0.00  0.00    -0.480 NA
ATOM     22  S   LIG    1        4.886  -0.250  -7.964  0.00  0.00    +0.190 S 
ATOM     23  C   LIG    1        4.855  -0.745  -6.314  0.00  0.00    +0.270 A 
ATOM     24  N   LIG    1        5.707  -1.746  -6.242  0.00  0.00    -0.530 NA
ENDBRANCH  13  23
ENDBRANCH   1  16
BRANCH   1  25
ATOM     25  C   LIG    1        1.857   1.806  -1.702  0.00  0.00    +0.300 C 
BRANCH  25  26
ATOM     26  C   LIG    1        1.917   3.303  -2.013  0.00  0.00    +0.150 C 
BRANCH  26  27
ATOM     27  O   LIG    1        0.616   3.873  -1.862  0.00  0.00    -0.550 OA
ATOM     28  H   LIG    1        0.579   4.822  -2.044  0.00  0.00    +0.370 HD
ENDBRANCH  26  27
ENDBRANCH  25  26
ENDBRANCH   1  25
TORSDOF 6
