REMARK  Name = ZINCrD000000CO9G.1
REMARK                            x       y       z     vdW  Elec       q    Type
REMARK                         _______ _______ _______ _____ _____    ______ ____
ROOT
ATOM      1  S   LIG    1        0.026   1.333   0.070  0.00  0.00    +2.690 S 
ATOM      2  O   LIG    1        1.201   2.133   0.045  0.00  0.00    -0.940 OA
ATOM      3  O   LIG    1        0.052  -0.085   0.158  0.00  0.00    -0.950 OA
ENDROOT
BRANCH   1  10
ATOM      4  O   LIG    1       -4.713   2.235  -6.190  0.00  0.00    -0.510 OA
ATOM      5  C   LIG    1       -4.115   1.967  -5.170  0.00  0.00    +0.520 C 
ATOM      6  C   LIG    1       -4.633   0.880  -4.267  0.00  0.00    +0.090 C 
ATOM      7  C   LIG    1       -3.463   0.129  -3.631  0.00  0.00    +0.110 C 
ATOM      8  C   LIG    1       -2.479   1.118  -3.062  0.00  0.00    -0.150 A 
ATOM      9  C   LIG    1       -1.771   0.812  -1.918  0.00  0.00    +0.170 A 
ATOM     10  C   LIG    1       -0.872   1.724  -1.395  0.00  0.00    -0.700 A 
ATOM     11  C   LIG    1       -0.673   2.940  -2.022  0.00  0.00    +0.170 A 
ATOM     12  C   LIG    1       -1.375   3.250  -3.171  0.00  0.00    -0.030 A 
ATOM     13  C   LIG    1       -2.282   2.338  -3.695  0.00  0.00    +0.220 A 
ATOM     14  N   LIG    1       -2.995   2.645  -4.858  0.00  0.00    -0.670 N 
ATOM     15  H   LIG    1       -2.681   3.351  -5.443  0.00  0.00    +0.420 HD
ENDBRANCH   1  10
BRANCH   1  16
ATOM     16  N   LIG    1       -0.875   1.865   1.354  0.00  0.00    -1.050 N 
ATOM     17  H   LIG    1       -0.512   2.532   1.958  0.00  0.00    +0.430 HD
BRANCH  16  18
ATOM     18  C   LIG    1       -2.160   1.353   1.567  0.00  0.00    +0.140 A 
ATOM     19  C   LIG    1       -2.435   0.024   1.283  0.00  0.00    +0.030 A 
ATOM     20  C   LIG    1       -3.705  -0.479   1.495  0.00  0.00    +0.020 A 
ATOM     21  C   LIG    1       -4.702   0.339   1.990  0.00  0.00    +0.040 A 
ATOM     22  C   LIG    1       -4.436   1.666   2.275  0.00  0.00    -0.050 A 
ATOM     23  C   LIG    1       -3.165   2.176   2.071  0.00  0.00    +0.110 A 
BRANCH  23  24
ATOM     24  O   LIG    1       -2.900   3.479   2.357  0.00  0.00    -0.300 OA
BRANCH  24  25
ATOM     25  C   LIG    1       -3.979   4.264   2.870  0.00  0.00    +0.230 C 
BRANCH  25  26
ATOM     26  C   LIG    1       -3.493   5.691   3.129  0.00  0.00    +0.470 C 
ATOM     27  F   LIG    1       -2.450   5.667   4.061  0.00  0.00    -0.170 F 
ATOM     28  F   LIG    1       -4.549   6.459   3.632  0.00  0.00    -0.170 F 
ATOM     29  F   LIG    1       -3.037   6.253   1.932  0.00  0.00    -0.170 F 
ENDBRANCH  25  26
ENDBRANCH  24  25
ENDBRANCH  23  24
ENDBRANCH  16  18
ENDBRANCH   1  16
TORSDOF 6
