REMARK  Name = ZINCrH000004rOLs.0
REMARK                            x       y       z     vdW  Elec       q    Type
REMARK                         _______ _______ _______ _____ _____    ______ ____
ROOT
ATOM      1  C   LIG    1       -3.384   1.408   5.086  0.00  0.00    -0.290 A 
ATOM      2  C   LIG    1       -2.925   0.628   4.096  0.00  0.00    +0.050 A 
ATOM      3  C   LIG    1       -2.109   1.264   3.161  0.00  0.00    -0.240 A 
ATOM      4  C   LIG    1       -1.919   2.622   3.435  0.00  0.00    +0.100 A 
ATOM      5  N   LIG    1       -1.156   3.366   2.612  0.00  0.00    -0.510 NA
ATOM      6  C   LIG    1       -0.579   2.875   1.557  0.00  0.00    +0.430 A 
ATOM      7  C   LIG    1        0.260   3.762   0.665  0.00  0.00    +0.140 C 
ATOM      8  C   LIG    1       -0.503   4.030  -0.630  0.00  0.00    +0.040 C 
ATOM      9  C   LIG    1       -0.228   2.950  -1.662  0.00  0.00    +0.020 C 
ATOM     10  C   LIG    1       -0.754   1.593  -1.227  0.00  0.00    +0.020 C 
ATOM     11  C   LIG    1       -0.013   1.086   0.008  0.00  0.00    +0.300 C 
ATOM     12  N   LIG    1       -0.703   1.561   1.214  0.00  0.00    -0.530 N 
ATOM     13  C   LIG    1       -1.440   0.721   1.960  0.00  0.00    +0.560 A 
ATOM     14  O   LIG    1       -1.554  -0.453   1.656  0.00  0.00    -0.500 OA
ATOM     15  C   LIG    1       -3.268  -0.836   4.000  0.00  0.00    +0.140 C 
ATOM     16  S   LIG    1       -2.797   3.052   4.898  0.00  0.00    +0.230 S 
ENDROOT
BRANCH   1  19
ATOM     17  N   LIG    1       -4.661   1.819   7.122  0.00  0.00    -0.720 N 
ATOM     18  H   LIG    1       -4.377   2.746   7.084  0.00  0.00    +0.400 HD
ATOM     19  C   LIG    1       -4.255   0.952   6.174  0.00  0.00    +0.600 C 
ATOM     20  O   LIG    1       -4.610  -0.211   6.221  0.00  0.00    -0.520 OA
BRANCH  17  21
ATOM     21  C   LIG    1       -5.530   1.363   8.209  0.00  0.00    +0.320 C 
BRANCH  21  27
ATOM     22  C   LIG    1       -8.423   5.247   9.472  0.00  0.00    +0.090 C 
ATOM     23  C   LIG    1       -7.220   4.377   9.731  0.00  0.00    -0.090 A 
ATOM     24  C   LIG    1       -6.397   4.638  10.811  0.00  0.00    +0.010 A 
ATOM     25  C   LIG    1       -5.294   3.840  11.048  0.00  0.00    +0.010 A 
ATOM     26  C   LIG    1       -5.016   2.777  10.209  0.00  0.00    +0.010 A 
ATOM     27  C   LIG    1       -5.836   2.518   9.127  0.00  0.00    -0.110 A 
ATOM     28  C   LIG    1       -6.940   3.316   8.889  0.00  0.00    +0.020 A 
ENDBRANCH  21  27
ENDBRANCH  17  21
ENDBRANCH   1  19
TORSDOF 3
