REMARK  Name = ZINCvU0000000Fh5.0
REMARK                            x       y       z     vdW  Elec       q    Type
REMARK                         _______ _______ _______ _____ _____    ______ ____
ROOT
ATOM      1  C   LIG    1        4.084  -0.662  -7.205  0.00  0.00    -0.100 A 
ATOM      2  C   LIG    1        4.777   0.294  -7.941  0.00  0.00    +0.090 A 
ATOM      3  C   LIG    1        4.658   1.634  -7.620  0.00  0.00    +0.030 A 
ATOM      4  C   LIG    1        3.848   2.034  -6.572  0.00  0.00    +0.060 A 
ATOM      5  C   LIG    1        3.147   1.099  -5.833  0.00  0.00    +0.050 A 
ATOM      6  C   LIG    1        3.255  -0.255  -6.142  0.00  0.00    -0.090 A 
ENDROOT
BRANCH   1   7
ATOM      7  C   LIG    1        4.212  -2.096  -7.541  0.00  0.00    +0.510 C 
ATOM      8  O   LIG    1        3.687  -2.934  -6.837  0.00  0.00    -0.480 OA
BRANCH   7   9
ATOM      9  O   LIG    1        4.912  -2.473  -8.629  0.00  0.00    -0.350 OA
BRANCH   9  10
ATOM     10  C   LIG    1        4.997  -3.897  -8.897  0.00  0.00    +0.340 C 
BRANCH  10  13
ATOM     11  C   LIG    1        6.766  -5.398 -11.701  0.00  0.00    +0.060 A 
ATOM     12  N   LIG    1        6.054  -5.328 -10.626  0.00  0.00    -0.470 NA
ATOM     13  C   LIG    1        5.812  -4.126 -10.143  0.00  0.00    +0.060 A 
ATOM     14  C   LIG    1        6.345  -3.126 -10.852  0.00  0.00    -0.060 A 
ATOM     15  S   LIG    1        7.212  -3.830 -12.215  0.00  0.00    +0.140 S 
BRANCH  11  16
ATOM     16  C   LIG    1        7.147  -6.677 -12.401  0.00  0.00    +0.140 C 
BRANCH  16  18
ATOM     17  C   LIG    1        6.465  -8.329 -14.147  0.00  0.00    +0.030 C 
ATOM     18  C   LIG    1        6.077  -7.030 -13.436  0.00  0.00    +0.020 C 
ENDBRANCH  16  18
ENDBRANCH  11  16
ENDBRANCH  10  13
ENDBRANCH   9  10
ENDBRANCH   7   9
ENDBRANCH   1   7
BRANCH   6  19
ATOM     19  C   LIG    1        2.507  -1.259  -5.355  0.00  0.00    +0.460 C 
ATOM     20  O   LIG    1        2.903  -1.583  -4.251  0.00  0.00    -0.420 OA
BRANCH  19  21
ATOM     21  C   LIG    1        1.285  -1.867  -5.907  0.00  0.00    -0.150 A 
ATOM     22  C   LIG    1        0.873  -1.556  -7.208  0.00  0.00    +0.150 A 
ATOM     23  C   LIG    1       -0.262  -2.121  -7.716  0.00  0.00    +0.000 A 
ATOM     24  C   LIG    1       -1.009  -3.006  -6.941  0.00  0.00    -0.020 A 
ATOM     25  C   LIG    1       -0.605  -3.314  -5.643  0.00  0.00    -0.050 A 
ATOM     26  C   LIG    1        0.531  -2.757  -5.131  0.00  0.00    +0.200 A 
BRANCH  25  27
ATOM     27  N   LIG    1       -1.405  -4.249  -4.822  0.00  0.00    +0.030 N 
ATOM     28  O   LIG    1       -2.417  -4.750  -5.280  0.00  0.00    -0.140 OA
ATOM     29  O   LIG    1       -1.052  -4.519  -3.688  0.00  0.00    -0.160 OA
ENDBRANCH  25  27
BRANCH  24  30
ATOM     30  S   LIG    1       -2.473  -3.732  -7.601  0.00  0.00    +0.040 S 
ATOM     31  C   LIG    1       -2.563  -3.024  -9.269  0.00  0.00    +0.100 C 
ENDBRANCH  24  30
ENDBRANCH  19  21
ENDBRANCH   6  19
TORSDOF 10
