REMARK  Name = ZINCkj000005h6h8.0
REMARK                            x       y       z     vdW  Elec       q    Type
REMARK                         _______ _______ _______ _____ _____    ______ ____
ROOT
ATOM      1  N   LIG    1        1.570   1.829   2.225  0.00  0.00    -0.760 N 
ATOM      2  H   LIG    1        1.706   2.574   1.619  0.00  0.00    +0.390 HD
ATOM      3  C   LIG    1        2.463   1.586   3.205  0.00  0.00    +0.710 C 
ATOM      4  N   LIG    1        3.545   2.378   3.342  0.00  0.00    -0.670 N 
ATOM      5  H   LIG    1        3.645   3.164   2.783  0.00  0.00    +0.410 HD
ATOM      6  O   LIG    1        2.292   0.652   3.964  0.00  0.00    -0.550 OA
ENDROOT
BRANCH   4   7
ATOM      7  C   LIG    1        4.524   2.066   4.293  0.00  0.00    +0.090 A 
ATOM      8  C   LIG    1        4.170   1.482   5.506  0.00  0.00    +0.080 A 
ATOM      9  C   LIG    1        5.175   1.186   6.412  0.00  0.00    -0.010 A 
ATOM     10  C   LIG    1        6.485   1.489   6.090  0.00  0.00    +0.250 A 
ATOM     11  N   LIG    1        6.787   2.047   4.934  0.00  0.00    -0.460 NA
ATOM     12  C   LIG    1        5.862   2.340   4.042  0.00  0.00    +0.240 A 
ENDBRANCH   4   7
BRANCH   1  13
ATOM     13  C   LIG    1        0.394   0.969   2.075  0.00  0.00    +0.340 C 
BRANCH  13  14
ATOM     14  C   LIG    1       -0.509   1.526   0.973  0.00  0.00    +0.040 C 
ATOM     15  C   LIG    1       -1.713   0.600   0.777  0.00  0.00    +0.050 C 
ATOM     16  C   LIG    1       -2.539   0.570   2.066  0.00  0.00    +0.250 C 
ATOM     17  O   LIG    1       -2.946   1.899   2.400  0.00  0.00    -0.360 OA
ATOM     18  C   LIG    1       -1.862   2.798   2.641  0.00  0.00    +0.250 C 
ATOM     19  C   LIG    1       -1.009   2.917   1.375  0.00  0.00    +0.040 C 
BRANCH  14  21
ATOM     20  C   LIG    1       -0.627   2.135  -1.344  0.00  0.00    +0.330 C 
ATOM     21  N   LIG    1        0.248   1.621  -0.282  0.00  0.00    -0.380 N 
ATOM     22  C   LIG    1        0.742   0.289  -0.657  0.00  0.00    +0.330 C 
ATOM     23  H   LIG    1        1.030   2.247  -0.158  0.00  0.00    +0.420 HD
ENDBRANCH  14  21
ENDBRANCH  13  14
ENDBRANCH   1  13
TORSDOF 4
