REMARK  Name = ZINCpe00000bcWG3.0
REMARK                            x       y       z     vdW  Elec       q    Type
REMARK                         _______ _______ _______ _____ _____    ______ ____
ROOT
ATOM      1  C   LIG    1        3.611  -0.648  -0.155  0.00  0.00    +0.570 C 
ATOM      2  N   LIG    1        4.767   0.033  -0.021  0.00  0.00    -0.610 N 
ATOM      3  C   LIG    1        6.064  -0.643  -0.166  0.00  0.00    +0.320 C 
ATOM      4  C   LIG    1        6.791  -0.023  -1.363  0.00  0.00    +0.120 C 
ATOM      5  C   LIG    1        6.786   1.486  -1.267  0.00  0.00    +0.380 C 
ATOM      6  N   LIG    1        7.810   2.091  -1.813  0.00  0.00    -0.920 NA
ATOM      7  S   LIG    1        7.917   3.747  -1.760  0.00  0.00    +2.690 S 
ATOM      8  N   LIG    1        6.336   4.258  -1.623  0.00  0.00    -1.050 N 
ATOM      9  H   LIG    1        6.009   5.043  -2.090  0.00  0.00    +0.440 HD
ATOM     10  C   LIG    1        5.524   3.504  -0.810  0.00  0.00    +0.410 C 
ATOM     11  O   LIG    1        8.377   4.170  -3.036  0.00  0.00    -0.940 OA
ATOM     12  O   LIG    1        8.565   4.079  -0.540  0.00  0.00    -0.960 OA
ATOM     13  C   LIG    1        5.742   2.181  -0.634  0.00  0.00    -0.300 C 
ATOM     14  C   LIG    1        4.767   1.466   0.278  0.00  0.00    +0.370 C 
ATOM     15  O   LIG    1        3.631  -1.851  -0.331  0.00  0.00    -0.520 OA
ENDROOT
BRANCH   1  19
ATOM     16  C   LIG    1       -0.099   1.409   0.041  0.00  0.00    +0.170 A 
ATOM     17  C   LIG    1        0.072   0.371  -0.871  0.00  0.00    -0.010 A 
ATOM     18  C   LIG    1        1.274  -0.298  -0.936  0.00  0.00    +0.100 A 
ATOM     19  C   LIG    1        2.322   0.067  -0.087  0.00  0.00    -0.150 A 
ATOM     20  C   LIG    1        2.146   1.109   0.828  0.00  0.00    +0.060 A 
ATOM     21  C   LIG    1        0.942   1.774   0.888  0.00  0.00    +0.010 A 
BRANCH  16  23
ATOM     22  C   LIG    1       -1.775   2.529   1.294  0.00  0.00    +0.550 C 
ATOM     23  N   LIG    1       -1.318   2.080   0.109  0.00  0.00    -0.670 N 
ATOM     24  H   LIG    1       -1.838   2.224  -0.698  0.00  0.00    +0.420 HD
ATOM     25  O   LIG    1       -1.172   2.266   2.317  0.00  0.00    -0.520 OA
BRANCH  22  27
ATOM     26  C   LIG    1       -3.454   3.780   2.522  0.00  0.00    +0.160 C 
ATOM     27  C   LIG    1       -3.003   3.337   1.351  0.00  0.00    -0.090 C 
ENDBRANCH  22  27
ENDBRANCH  16  23
ENDBRANCH   1  19
TORSDOF 3
