REMARK  Name = ZINCnE000007LeLC.1
REMARK                            x       y       z     vdW  Elec       q    Type
REMARK                         _______ _______ _______ _____ _____    ______ ____
ROOT
ATOM      1  N   LIG    1       -3.451   4.266   3.878  0.00  0.00    -0.520 NA
ATOM      2  C   LIG    1       -3.453   4.704   2.477  0.00  0.00    +0.150 C 
ATOM      3  C   LIG    1       -3.462   6.234   2.419  0.00  0.00    +0.030 C 
ATOM      4  C   LIG    1       -4.706   6.759   3.140  0.00  0.00    +0.010 C 
ATOM      5  C   LIG    1       -4.704   6.248   4.583  0.00  0.00    +0.030 C 
ATOM      6  C   LIG    1       -4.660   4.719   4.578  0.00  0.00    +0.170 C 
ENDROOT
BRANCH   4   7
ATOM      7  C   LIG    1       -4.691   8.289   3.139  0.00  0.00    -0.030 C 
ATOM      8  C   LIG    1       -5.950   9.008   2.650  0.00  0.00    +0.010 C 
ATOM      9  C   LIG    1       -4.690   8.995   1.781  0.00  0.00    -0.110 C 
BRANCH   9  10
ATOM     10  C   LIG    1       -3.912  10.280   1.665  0.00  0.00    +0.520 C 
ATOM     11  O   LIG    1       -3.932  11.089   2.577  0.00  0.00    -0.700 OA
ATOM     12  O   LIG    1       -3.262  10.511   0.660  0.00  0.00    -0.700 OA
ENDBRANCH   9  10
ENDBRANCH   4   7
BRANCH   1  13
ATOM     13  C   LIG    1       -3.303   2.807   3.973  0.00  0.00    +0.280 C 
BRANCH  13  18
ATOM     14  C   LIG    1       -0.013   1.086   0.008  0.00  0.00    +0.200 C 
ATOM     15  C   LIG    1       -0.718   1.572   1.248  0.00  0.00    +0.050 A 
ATOM     16  N   LIG    1       -0.142   1.820   2.376  0.00  0.00    -0.450 NA
ATOM     17  C   LIG    1       -0.909   2.240   3.362  0.00  0.00    -0.010 A 
ATOM     18  C   LIG    1       -2.203   2.353   3.049  0.00  0.00    -0.170 A 
ATOM     19  S   LIG    1       -2.396   1.881   1.362  0.00  0.00    +0.180 S 
BRANCH  17  20
ATOM     20  C   LIG    1       -0.370   2.567   4.731  0.00  0.00    +0.540 C 
ATOM     21  F   LIG    1       -0.898   1.669   5.666  0.00  0.00    -0.170 F 
ATOM     22  F   LIG    1       -0.738   3.871   5.078  0.00  0.00    -0.150 F 
ATOM     23  F   LIG    1        1.025   2.462   4.720  0.00  0.00    -0.170 F 
ENDBRANCH  17  20
ENDBRANCH  13  18
ENDBRANCH   1  13
TORSDOF 5
