REMARK  Name = ZINCpk00000kaZCe.0
REMARK                            x       y       z     vdW  Elec       q    Type
REMARK                         _______ _______ _______ _____ _____    ______ ____
ROOT
ATOM      1  C   LIG    1        2.325   1.143  -1.440  0.00  0.00    +0.550 C 
ATOM      2  N   LIG    1        3.622   1.240  -1.795  0.00  0.00    -0.650 N 
ATOM      3  C   LIG    1        4.821   1.899  -1.256  0.00  0.00    +0.310 C 
ATOM      4  C   LIG    1        5.659   0.809  -1.943  0.00  0.00    -0.010 C 
ATOM      5  C   LIG    1        6.947   1.321  -2.592  0.00  0.00    +0.100 C 
ATOM      6  C   LIG    1        4.458   0.740  -2.896  0.00  0.00    +0.320 C 
ATOM      7  O   LIG    1        1.909   1.766  -0.486  0.00  0.00    -0.520 OA
ENDROOT
BRANCH   4   8
ATOM      8  C   LIG    1        5.863  -0.434  -1.115  0.00  0.00    +0.190 A 
ATOM      9  N   LIG    1        6.085  -1.634  -1.571  0.00  0.00    -0.270 NA
ATOM     10  N   LIG    1        6.210  -2.452  -0.586  0.00  0.00    -0.280 NA
ATOM     11  C   LIG    1        6.072  -1.796   0.543  0.00  0.00    +0.270 A 
ATOM     12  O   LIG    1        5.855  -0.503   0.228  0.00  0.00    -0.200 OA
BRANCH  11  13
ATOM     13  C   LIG    1        6.146  -2.367   1.903  0.00  0.00    +0.040 A 
ATOM     14  C   LIG    1        6.371  -3.673   2.215  0.00  0.00    +0.240 A 
ATOM     15  N   LIG    1        6.360  -3.759   3.577  0.00  0.00    -0.460 N 
ATOM     16  C   LIG    1        6.130  -2.512   4.061  0.00  0.00    +0.420 A 
ATOM     17  C   LIG    1        6.559  -4.974   4.371  0.00  0.00    +0.350 C 
ATOM     18  N   LIG    1        6.009  -1.685   3.061  0.00  0.00    -0.460 NA
ENDBRANCH  11  13
ENDBRANCH   4   8
BRANCH   1  19
ATOM     19  C   LIG    1        1.392   0.260  -2.227  0.00  0.00    -0.010 C 
ATOM     20  C   LIG    1        0.646   1.102  -3.264  0.00  0.00    +0.070 C 
BRANCH  19  21
ATOM     21  C   LIG    1        0.384  -0.392  -1.279  0.00  0.00    +0.010 C 
ATOM     22  C   LIG    1       -0.563  -1.288  -2.079  0.00  0.00    +0.040 C 
BRANCH  21  23
ATOM     23  C   LIG    1        1.130  -1.234  -0.242  0.00  0.00    +0.160 C 
BRANCH  23  25
ATOM     24  C   LIG    1        0.796  -2.553   1.731  0.00  0.00    +0.200 C 
ATOM     25  O   LIG    1        0.199  -1.748   0.713  0.00  0.00    -0.380 OA
ENDBRANCH  23  25
ENDBRANCH  21  23
ENDBRANCH  19  21
ENDBRANCH   1  19
TORSDOF 6
