REMARK  Name = ZINCrD00000hQ4FE.1
REMARK                            x       y       z     vdW  Elec       q    Type
REMARK                         _______ _______ _______ _____ _____    ______ ____
ROOT
ATOM      1  C   LIG    1        0.002  -0.004   0.002  0.00  0.00    +0.520 C 
ATOM      2  O   LIG    1        1.062  -0.597  -0.011  0.00  0.00    -0.500 OA
ENDROOT
BRANCH   1   6
ATOM      3  C   LIG    1       -3.641  -2.174   0.025  0.00  0.00    +0.160 A 
ATOM      4  C   LIG    1       -2.427  -2.855   0.010  0.00  0.00    -0.010 A 
ATOM      5  C   LIG    1       -1.247  -2.157   0.002  0.00  0.00    +0.120 A 
ATOM      6  C   LIG    1       -1.264  -0.758   0.010  0.00  0.00    -0.160 A 
ATOM      7  C   LIG    1       -2.485  -0.077   0.031  0.00  0.00    +0.110 A 
ATOM      8  C   LIG    1       -3.662  -0.782   0.032  0.00  0.00    -0.050 A 
BRANCH   3  13
ATOM      9  C   LIG    1       -8.614  -4.466  -1.004  0.00  0.00    +0.190 C 
ATOM     10  N   LIG    1       -7.352  -3.714  -1.011  0.00  0.00    -0.550 NA
ATOM     11  C   LIG    1       -7.280  -2.795   0.134  0.00  0.00    +0.190 C 
ATOM     12  C   LIG    1       -5.990  -1.976   0.047  0.00  0.00    +0.200 C 
ATOM     13  N   LIG    1       -4.835  -2.885   0.031  0.00  0.00    -0.490 N 
ATOM     14  C   LIG    1       -4.907  -3.804  -1.113  0.00  0.00    +0.210 C 
ATOM     15  C   LIG    1       -6.197  -4.623  -1.026  0.00  0.00    +0.190 C 
ENDBRANCH   3  13
ENDBRANCH   1   6
BRANCH   1  16
ATOM     16  O   LIG    1       -0.016   1.343   0.009  0.00  0.00    -0.360 OA
BRANCH  16  17
ATOM     17  C   LIG    1        1.268   2.020   0.001  0.00  0.00    +0.370 C 
BRANCH  17  18
ATOM     18  C   LIG    1        1.051   3.511   0.011  0.00  0.00    +0.290 A 
ATOM     19  N   LIG    1        1.998   4.403   0.006  0.00  0.00    -0.470 NA
ATOM     20  C   LIG    1        1.454   5.647   0.018  0.00  0.00    +0.050 A 
ATOM     21  C   LIG    1        1.996   6.936   0.019  0.00  0.00    +0.020 A 
ATOM     22  C   LIG    1        1.159   8.029   0.032  0.00  0.00    +0.020 A 
ATOM     23  C   LIG    1       -0.218   7.862   0.045  0.00  0.00    +0.050 A 
ATOM     24  C   LIG    1       -0.769   6.598   0.044  0.00  0.00    +0.020 A 
ATOM     25 CL   LIG    1        3.718   7.157   0.004  0.00  0.00    -0.050 Cl
ATOM     26  C   LIG    1        0.059   5.484   0.030  0.00  0.00    +0.060 A 
ATOM     27  N   LIG    1       -0.165   4.121   0.020  0.00  0.00    -0.580 N 
ATOM     28  H   LIG    1       -1.030   3.681   0.022  0.00  0.00    +0.430 HD
ENDBRANCH  17  18
ENDBRANCH  16  17
ENDBRANCH   1  16
TORSDOF 5
