REMARK  Name = ZINCpk00000e9m0M.0
REMARK                            x       y       z     vdW  Elec       q    Type
REMARK                         _______ _______ _______ _____ _____    ______ ____
ROOT
ATOM      1  C   LIG    1        0.893  -0.067  -1.110  0.00  0.00    -0.280 C 
ATOM      2  C   LIG    1        0.031  -0.048  -0.071  0.00  0.00    +0.260 C 
ATOM      3  N   LIG    1        0.290   0.692   1.047  0.00  0.00    -0.640 N 
ATOM      4  H   LIG    1       -0.360   0.678   1.766  0.00  0.00    +0.430 HD
ATOM      5  C   LIG    1        1.389   1.441   1.203  0.00  0.00    +0.710 C 
ATOM      6  N   LIG    1        2.342   1.524   0.253  0.00  0.00    -0.720 N 
ATOM      7  H   LIG    1        3.130   2.072   0.387  0.00  0.00    +0.440 HD
ATOM      8  O   LIG    1        1.533   2.066   2.235  0.00  0.00    -0.560 OA
ATOM      9  C   LIG    1        2.157   0.761  -0.993  0.00  0.00    +0.320 C 
ENDROOT
BRANCH   1  10
ATOM     10  C   LIG    1        0.625  -0.833  -2.269  0.00  0.00    +0.530 C 
ATOM     11  O   LIG    1       -0.441  -1.407  -2.386  0.00  0.00    -0.510 OA
BRANCH  10  12
ATOM     12  O   LIG    1        1.553  -0.926  -3.245  0.00  0.00    -0.350 OA
BRANCH  12  14
ATOM     13  C   LIG    1        2.381  -1.704  -5.378  0.00  0.00    +0.070 C 
ATOM     14  C   LIG    1        1.215  -1.716  -4.387  0.00  0.00    +0.200 C 
ENDBRANCH  12  14
ENDBRANCH  10  12
ENDBRANCH   1  10
BRANCH   2  15
ATOM     15  C   LIG    1       -1.238  -0.857  -0.147  0.00  0.00    +0.360 C 
BRANCH  15  16
ATOM     16  O   LIG    1       -1.944  -0.770   1.119  0.00  0.00    -0.380 OA
BRANCH  16  17
ATOM     17  C   LIG    1       -3.108  -1.443   1.219  0.00  0.00    +0.540 C 
ATOM     18  O   LIG    1       -3.522  -2.085   0.274  0.00  0.00    -0.470 OA
BRANCH  17  19
ATOM     19  C   LIG    1       -3.876  -1.400   2.470  0.00  0.00    +0.020 A 
ATOM     20  C   LIG    1       -5.061  -2.029   2.690  0.00  0.00    +0.080 A 
ATOM     21  C   LIG    1       -5.464  -1.739   4.016  0.00  0.00    -0.130 A 
ATOM     22  C   LIG    1       -6.576  -2.106   4.785  0.00  0.00    +0.080 A 
ATOM     23  C   LIG    1       -6.694  -1.652   6.067  0.00  0.00    -0.020 A 
ATOM     24  C   LIG    1       -5.720  -0.829   6.618  0.00  0.00    +0.050 A 
ATOM     25  C   LIG    1       -4.618  -0.455   5.882  0.00  0.00    -0.010 A 
ATOM     26  C   LIG    1       -4.475  -0.904   4.573  0.00  0.00    +0.120 A 
ATOM     27  N   LIG    1       -3.513  -0.709   3.611  0.00  0.00    -0.570 N 
ATOM     28  H   LIG    1       -2.710  -0.174   3.715  0.00  0.00    +0.420 HD
ENDBRANCH  17  19
ENDBRANCH  16  17
ENDBRANCH  15  16
ENDBRANCH   2  15
TORSDOF 7
