REMARK  Name = ZINCvU0000000FdN.0
REMARK                            x       y       z     vdW  Elec       q    Type
REMARK                         _______ _______ _______ _____ _____    ______ ____
ROOT
ATOM      1  C   LIG    1        3.628   5.998  -0.216  0.00  0.00    +0.200 C 
ENDROOT
BRANCH   1   2
ATOM      2  C   LIG    1        4.486   5.731   0.994  0.00  0.00    -0.090 A 
ATOM      3  C   LIG    1        4.244   6.406   2.176  0.00  0.00    +0.050 A 
ATOM      4  C   LIG    1        5.027   6.158   3.287  0.00  0.00    +0.000 A 
ATOM      5  C   LIG    1        6.060   5.241   3.214  0.00  0.00    +0.010 A 
ATOM      6  C   LIG    1        6.306   4.570   2.031  0.00  0.00    +0.000 A 
ATOM      7  C   LIG    1        5.519   4.815   0.921  0.00  0.00    +0.000 A 
ENDBRANCH   1   2
BRANCH   1  10
ATOM      8  N   LIG    1        2.356   3.889   0.001  0.00  0.00    -0.670 N 
ATOM      9  H   LIG    1        3.202   3.419   0.058  0.00  0.00    +0.410 HD
ATOM     10  C   LIG    1        2.336   5.233  -0.094  0.00  0.00    +0.520 C 
ATOM     11  O   LIG    1        1.278   5.827  -0.082  0.00  0.00    -0.500 OA
BRANCH   8  16
ATOM     12  C   LIG    1       -2.517   0.983   0.054  0.00  0.00    +0.100 C 
ATOM     13  C   LIG    1       -1.222   1.754   0.042  0.00  0.00    -0.100 A 
ATOM     14  C   LIG    1       -0.106   1.218  -0.575  0.00  0.00    +0.030 A 
ATOM     15  C   LIG    1        1.081   1.924  -0.592  0.00  0.00    -0.020 A 
ATOM     16  C   LIG    1        1.155   3.171   0.016  0.00  0.00    +0.130 A 
ATOM     17  C   LIG    1        0.034   3.704   0.639  0.00  0.00    +0.030 A 
ATOM     18  C   LIG    1       -1.150   2.993   0.652  0.00  0.00    +0.030 A 
ENDBRANCH   8  16
ENDBRANCH   1  10
BRANCH   1  19
ATOM     19  N   LIG    1        3.340   7.436  -0.303  0.00  0.00    -0.660 NA
ATOM     20  H   LIG    1        2.453   7.600  -0.757  0.00  0.00    +0.360 HD
BRANCH  19  21
ATOM     21  C   LIG    1        4.423   8.150  -0.992  0.00  0.00    +0.240 C 
BRANCH  21  22
ATOM     22  C   LIG    1        4.092   9.618  -1.062  0.00  0.00    -0.060 A 
ATOM     23  C   LIG    1        4.493  10.464  -0.045  0.00  0.00    +0.060 A 
ATOM     24  C   LIG    1        4.191  11.815  -0.103  0.00  0.00    -0.040 A 
ATOM     25  C   LIG    1        3.486  12.315  -1.185  0.00  0.00    +0.080 A 
ATOM     26  O   LIG    1        3.181  13.643  -1.254  0.00  0.00    -0.310 OA
ATOM     27  C   LIG    1        3.850  14.385  -2.277  0.00  0.00    +0.230 C 
ATOM     28  C   LIG    1        3.115  14.261  -3.602  0.00  0.00    -0.010 C 
ATOM     29  C   LIG    1        3.121  12.838  -4.136  0.00  0.00    +0.230 C 
ATOM     30  O   LIG    1        2.392  11.967  -3.268  0.00  0.00    -0.310 OA
ATOM     31  C   LIG    1        3.086  11.465  -2.206  0.00  0.00    +0.080 A 
ATOM     32 CL   LIG    1        4.695  12.876   1.175  0.00  0.00    -0.050 Cl
ATOM     33  C   LIG    1        3.393  10.116  -2.148  0.00  0.00    +0.040 A 
ENDBRANCH  21  22
ENDBRANCH  19  21
ENDBRANCH   1  19
TORSDOF 6
