REMARK  Name = ZINCpe00000VVH1j.0
REMARK                            x       y       z     vdW  Elec       q    Type
REMARK                         _______ _______ _______ _____ _____    ______ ____
ROOT
ATOM      1  C   LIG    1        0.175   3.412   1.391  0.00  0.00    +0.090 C 
ATOM      2  C   LIG    1       -0.310   1.940   1.387  0.00  0.00    +0.190 C 
ATOM      3  N   LIG    1        0.045   1.469   0.024  0.00  0.00    -0.490 NA
ATOM      4  C   LIG    1        1.362   2.069  -0.280  0.00  0.00    +0.180 C 
ATOM      5  C   LIG    1        1.484   3.347   0.571  0.00  0.00    -0.010 C 
ENDROOT
BRANCH   1   9
ATOM      6  C   LIG    1        0.071   6.049   5.652  0.00  0.00    +0.360 C 
ATOM      7  N   LIG    1        0.400   5.032   4.651  0.00  0.00    -0.380 N 
ATOM      8  C   LIG    1       -0.101   4.959   3.399  0.00  0.00    +0.230 A 
ATOM      9  C   LIG    1        0.450   3.879   2.797  0.00  0.00    -0.230 A 
ATOM     10  C   LIG    1        1.323   3.277   3.709  0.00  0.00    +0.230 A 
ATOM     11  N   LIG    1        1.294   3.967   4.820  0.00  0.00    -0.300 NA
ENDBRANCH   1   9
BRANCH   3  12
ATOM     12  C   LIG    1        0.110   0.003  -0.026  0.00  0.00    +0.270 C 
BRANCH  12  13
ATOM     13  C   LIG    1       -1.227  -0.573   0.363  0.00  0.00    +0.450 A 
ATOM     14  N   LIG    1       -2.223   0.248   0.549  0.00  0.00    -0.560 NA
ATOM     15  C   LIG    1       -3.448  -0.191   0.899  0.00  0.00    +0.530 A 
ATOM     16  C   LIG    1       -3.642  -1.642   1.069  0.00  0.00    -0.210 A 
ATOM     17  C   LIG    1       -4.872  -2.186   1.429  0.00  0.00    +0.110 A 
ATOM     18  C   LIG    1       -4.993  -3.551   1.574  0.00  0.00    -0.020 A 
ATOM     19  C   LIG    1       -3.901  -4.380   1.364  0.00  0.00    +0.080 A 
ATOM     20  C   LIG    1       -2.676  -3.855   1.007  0.00  0.00    -0.020 A 
ATOM     21  C   LIG    1       -2.534  -2.483   0.856  0.00  0.00    +0.180 A 
ATOM     22  O   LIG    1       -4.368   0.590   1.069  0.00  0.00    -0.480 OA
ATOM     23  N   LIG    1       -1.332  -1.907   0.496  0.00  0.00    -0.630 N 
ATOM     24  H   LIG    1       -0.557  -2.469   0.340  0.00  0.00    +0.420 HD
ENDBRANCH  12  13
ENDBRANCH   3  12
BRANCH   5  25
ATOM     25  C   LIG    1        1.609   4.576  -0.332  0.00  0.00    +0.190 C 
BRANCH  25  26
ATOM     26  O   LIG    1        2.848   4.521  -1.042  0.00  0.00    -0.580 OA
ATOM     27  H   LIG    1        2.995   5.271  -1.634  0.00  0.00    +0.380 HD
ENDBRANCH  25  26
ENDBRANCH   5  25
TORSDOF 5
