REMARK  Name = ZINCvU00000004lS.0
REMARK                            x       y       z     vdW  Elec       q    Type
REMARK                         _______ _______ _______ _____ _____    ______ ____
ROOT
ATOM      1  O   LIG    1        1.636  -2.181  -3.567  0.00  0.00    -0.480 OA
ATOM      2  C   LIG    1        2.583  -1.415  -3.648  0.00  0.00    +0.550 A 
ATOM      3  N   LIG    1        3.558  -1.622  -4.541  0.00  0.00    -0.580 NA
ATOM      4  C   LIG    1        4.594  -0.821  -4.655  0.00  0.00    +0.460 A 
ATOM      5  C   LIG    1        5.611  -1.173  -5.711  0.00  0.00    +0.110 C 
ATOM      6  C   LIG    1        6.361   0.043  -6.172  0.00  0.00    -0.080 A 
ATOM      7  C   LIG    1        6.925   0.055  -7.437  0.00  0.00    +0.030 A 
ATOM      8  C   LIG    1        7.618   1.165  -7.879  0.00  0.00    +0.030 A 
ATOM      9  C   LIG    1        7.749   2.268  -7.056  0.00  0.00    +0.030 A 
ATOM     10  C   LIG    1        7.187   2.257  -5.795  0.00  0.00    +0.030 A 
ATOM     11  C   LIG    1        6.490   1.144  -5.351  0.00  0.00    -0.090 A 
ATOM     12  C   LIG    1        5.887   1.156  -3.978  0.00  0.00    +0.350 C 
ATOM     13  N   LIG    1        4.739   0.257  -3.874  0.00  0.00    -0.460 N 
ATOM     14  C   LIG    1        3.787   0.570  -2.915  0.00  0.00    +0.050 A 
ATOM     15  S   LIG    1        3.713   1.901  -1.772  0.00  0.00    +0.170 S 
ATOM     16  C   LIG    1        2.182   1.345  -1.115  0.00  0.00    -0.190 A 
ATOM     17  C   LIG    1        1.423   2.043  -0.001  0.00  0.00    +0.120 C 
ATOM     18  C   LIG    1       -0.019   1.528   0.010  0.00  0.00    +0.030 C 
ATOM     19  C   LIG    1        0.002  -0.004   0.002  0.00  0.00    +0.020 C 
ATOM     20  C   LIG    1        0.480  -0.491  -1.367  0.00  0.00    +0.110 C 
ATOM     21  C   LIG    1        1.773   0.229  -1.723  0.00  0.00    -0.030 A 
ATOM     22  C   LIG    1        2.680  -0.236  -2.763  0.00  0.00    -0.210 A 
ENDROOT
BRANCH   5  23
ATOM     23  C   LIG    1        6.588  -2.169  -5.143  0.00  0.00    +0.420 C 
ATOM     24  O   LIG    1        7.594  -1.783  -4.587  0.00  0.00    -0.420 OA
BRANCH  23  25
ATOM     25  C   LIG    1        6.322  -3.611  -5.264  0.00  0.00    -0.160 A 
ATOM     26  C   LIG    1        5.160  -4.061  -5.900  0.00  0.00    +0.100 A 
ATOM     27  C   LIG    1        4.920  -5.413  -6.014  0.00  0.00    +0.040 A 
ATOM     28  C   LIG    1        5.820  -6.326  -5.491  0.00  0.00    -0.050 A 
ATOM     29  C   LIG    1        6.970  -5.889  -4.854  0.00  0.00    +0.030 A 
ATOM     30 BR   LIG    1        5.477  -8.180  -5.645  0.00  0.00    -0.040 Br
ATOM     31  C   LIG    1        7.226  -4.539  -4.738  0.00  0.00    +0.090 A 
ENDBRANCH  23  25
ENDBRANCH   5  23
TORSDOF 2
