REMARK  Name = ZINCrg000000oLo0.0
REMARK                            x       y       z     vdW  Elec       q    Type
REMARK                         _______ _______ _______ _____ _____    ______ ____
ROOT
ATOM      1  C   LIG    1        0.217  -0.046   7.529  0.00  0.00    +0.520 C 
ATOM      2  N   LIG    1        0.815   1.036   6.992  0.00  0.00    -0.680 N 
ATOM      3  H   LIG    1        1.630   1.385   7.385  0.00  0.00    +0.410 HD
ATOM      4  O   LIG    1       -0.754  -0.533   6.989  0.00  0.00    -0.490 OA
ENDROOT
BRANCH   2   5
ATOM      5  C   LIG    1        0.261   1.655   5.866  0.00  0.00    +0.150 A 
ATOM      6  C   LIG    1       -0.370   0.892   4.892  0.00  0.00    +0.020 A 
ATOM      7  C   LIG    1       -0.916   1.507   3.782  0.00  0.00    +0.050 A 
ATOM      8  C   LIG    1       -0.835   2.880   3.640  0.00  0.00    -0.100 A 
ATOM      9  C   LIG    1       -0.203   3.642   4.606  0.00  0.00    +0.020 A 
ATOM     10  C   LIG    1        0.340   3.034   5.721  0.00  0.00    -0.030 A 
BRANCH   8  11
ATOM     11  C   LIG    1       -1.431   3.547   2.428  0.00  0.00    +0.230 C 
BRANCH  11  12
ATOM     12  N   LIG    1       -2.829   3.904   2.703  0.00  0.00    -0.530 NA
ATOM     13  C   LIG    1       -2.959   4.553   4.016  0.00  0.00    +0.150 C 
ATOM     14  C   LIG    1       -4.435   4.854   4.287  0.00  0.00    +0.220 C 
ATOM     15  O   LIG    1       -4.955   5.663   3.229  0.00  0.00    -0.390 OA
ATOM     16  C   LIG    1       -4.845   5.061   1.936  0.00  0.00    +0.220 C 
ATOM     17  C   LIG    1       -3.373   4.763   1.641  0.00  0.00    +0.150 C 
ENDBRANCH  11  12
ENDBRANCH   8  11
ENDBRANCH   2   5
BRANCH   1  18
ATOM     18  C   LIG    1        0.754  -0.651   8.800  0.00  0.00    +0.210 C 
BRANCH  18  23
ATOM     19  C   LIG    1        0.566  -2.574  10.282  0.00  0.00    +0.120 C 
ATOM     20  C   LIG    1       -0.592  -3.377  10.912  0.00  0.00    +0.050 C 
ATOM     21  C   LIG    1       -1.869  -2.591  10.550  0.00  0.00    +0.040 C 
ATOM     22  C   LIG    1       -1.375  -1.378   9.732  0.00  0.00    +0.180 C 
ATOM     23  N   LIG    1       -0.067  -1.810   9.176  0.00  0.00    -0.470 NA
BRANCH  19  26
ATOM     24  C   LIG    1        3.341  -5.201  10.058  0.00  0.00    +0.290 C 
ATOM     25  N   LIG    1        2.317  -4.294  10.583  0.00  0.00    -0.620 N 
ATOM     26  C   LIG    1        1.619  -3.506   9.742  0.00  0.00    +0.520 C 
ATOM     27  O   LIG    1        1.840  -3.546   8.550  0.00  0.00    -0.510 OA
ATOM     28  C   LIG    1        2.051  -4.245  12.023  0.00  0.00    +0.280 C 
ENDBRANCH  19  26
ENDBRANCH  18  23
ENDBRANCH   1  18
TORSDOF 6
