REMARK  Name = ZINCnE00000hdaFw.1
REMARK                            x       y       z     vdW  Elec       q    Type
REMARK                         _______ _______ _______ _____ _____    ______ ____
ROOT
ATOM      1  C   LIG    1        0.003  -0.005   0.049  0.00  0.00    +0.380 A 
ATOM      2  N   LIG    1       -1.045  -0.769   0.061  0.00  0.00    -0.520 NA
ATOM      3  C   LIG    1       -0.837  -2.077  -0.002  0.00  0.00    +0.120 A 
ATOM      4  C   LIG    1        0.453  -2.453  -0.071  0.00  0.00    -0.180 A 
ATOM      5  S   LIG    1        1.452  -1.001  -0.058  0.00  0.00    -0.010 S 
ENDROOT
BRANCH   3   6
ATOM      6  C   LIG    1       -1.949  -3.058   0.003  0.00  0.00    +0.030 A 
ATOM      7  C   LIG    1       -1.970  -4.096  -0.926  0.00  0.00    +0.050 A 
ATOM      8  C   LIG    1       -3.009  -5.006  -0.917  0.00  0.00    -0.030 A 
ATOM      9  C   LIG    1       -4.027  -4.889   0.013  0.00  0.00    +0.030 A 
ATOM     10  C   LIG    1       -4.011  -3.861   0.939  0.00  0.00    +0.040 A 
ATOM     11 CL   LIG    1       -3.038  -6.300  -2.074  0.00  0.00    -0.070 Cl
ATOM     12  C   LIG    1       -2.975  -2.948   0.942  0.00  0.00    -0.010 A 
ATOM     13 CL   LIG    1       -2.953  -1.662   2.108  0.00  0.00    -0.040 Cl
ENDBRANCH   3   6
BRANCH   1  15
ATOM     14  C   LIG    1        1.143   2.072   0.088  0.00  0.00    +0.510 C 
ATOM     15  N   LIG    1       -0.014   1.382   0.107  0.00  0.00    -0.620 NA
ATOM     16  O   LIG    1        2.203   1.480   0.020  0.00  0.00    -0.600 OA
BRANCH  14  21
ATOM     17  O   LIG    1        0.913   7.454   0.318  0.00  0.00    -0.550 OA
ATOM     18  C   LIG    1        1.012   6.239   0.264  0.00  0.00    +0.480 A 
ATOM     19  C   LIG    1        2.285   5.632   0.187  0.00  0.00    -0.050 A 
ATOM     20  C   LIG    1        2.342   4.271   0.129  0.00  0.00    +0.140 A 
ATOM     21  C   LIG    1        1.125   3.549   0.149  0.00  0.00    +0.070 A 
ATOM     22  N   LIG    1       -0.022   4.187   0.217  0.00  0.00    -0.160 NA
ATOM     23  N   LIG    1       -0.091   5.468   0.277  0.00  0.00    -0.450 N 
ATOM     24  H   LIG    1       -0.962   5.891   0.330  0.00  0.00    +0.440 HD
ENDBRANCH  14  21
ENDBRANCH   1  15
TORSDOF 3
