REMARK  Name = ZINCqH0000033HAR.0
REMARK                            x       y       z     vdW  Elec       q    Type
REMARK                         _______ _______ _______ _____ _____    ______ ____
ROOT
ATOM      1  C   LIG    1        0.043   6.057  -0.534  0.00  0.00    +0.570 C 
ATOM      2  N   LIG    1        0.085   7.380  -0.277  0.00  0.00    -0.670 N 
ATOM      3  H   LIG    1       -0.317   7.728   0.534  0.00  0.00    +0.420 HD
ATOM      4  O   LIG    1        0.461   5.631  -1.594  0.00  0.00    -0.510 OA
ENDROOT
BRANCH   2   5
ATOM      5  C   LIG    1        0.705   8.246  -1.176  0.00  0.00    +0.210 A 
ATOM      6  C   LIG    1        0.208   9.538  -1.347  0.00  0.00    -0.030 A 
ATOM      7  C   LIG    1        0.804  10.397  -2.223  0.00  0.00    +0.120 A 
ATOM      8  C   LIG    1        1.922   9.980  -2.955  0.00  0.00    -0.170 A 
ATOM      9  C   LIG    1        2.582  10.882  -3.901  0.00  0.00    +0.040 A 
ATOM     10  C   LIG    1        3.664  10.419  -4.581  0.00  0.00    -0.100 A 
ATOM     11  C   LIG    1        4.118   9.102  -4.364  0.00  0.00    +0.510 A 
ATOM     12  O   LIG    1        3.508   8.280  -3.495  0.00  0.00    -0.270 OA
ATOM     13  O   LIG    1        5.088   8.699  -4.980  0.00  0.00    -0.460 OA
ATOM     14  C   LIG    1        2.076  12.285  -4.115  0.00  0.00    +0.120 C 
ATOM     15  C   LIG    1        2.429   8.678  -2.787  0.00  0.00    +0.170 A 
ATOM     16  C   LIG    1        1.815   7.819  -1.889  0.00  0.00    +0.020 A 
ENDBRANCH   2   5
BRANCH   1  20
ATOM     17  C   LIG    1       -1.546   3.382   2.360  0.00  0.00    +0.140 A 
ATOM     18  C   LIG    1       -1.503   4.744   2.624  0.00  0.00    -0.030 A 
ATOM     19  C   LIG    1       -0.988   5.615   1.687  0.00  0.00    +0.060 A 
ATOM     20  C   LIG    1       -0.508   5.127   0.469  0.00  0.00    -0.140 A 
ATOM     21  C   LIG    1       -0.547   3.755   0.206  0.00  0.00    +0.040 A 
ATOM     22  C   LIG    1       -1.069   2.889   1.146  0.00  0.00    +0.090 A 
BRANCH  22  23
ATOM     23  O   LIG    1       -1.113   1.553   0.891  0.00  0.00    -0.300 OA
ATOM     24  C   LIG    1       -0.608   1.117  -0.372  0.00  0.00    +0.250 C 
ENDBRANCH  22  23
BRANCH  17  25
ATOM     25  O   LIG    1       -2.054   2.529   3.286  0.00  0.00    -0.300 OA
BRANCH  25  27
ATOM     26  C   LIG    1       -3.056   1.994   5.419  0.00  0.00    +0.070 C 
ATOM     27  C   LIG    1       -2.525   3.102   4.507  0.00  0.00    +0.190 C 
ENDBRANCH  25  27
ENDBRANCH  17  25
ENDBRANCH   1  20
TORSDOF 5
