REMARK  Name = ZINC650000002tcz.0
REMARK                            x       y       z     vdW  Elec       q    Type
REMARK                         _______ _______ _______ _____ _____    ______ ____
ROOT
ATOM      1  C   LIG    1       -0.699   1.479   1.216  0.00  0.00    +0.290 C 
ENDROOT
BRANCH   1   2
ATOM      2  N   LIG    1       -0.012   1.005   0.008  0.00  0.00    -0.640 N 
ATOM      3  H   LIG    1       -0.500   1.339  -0.810  0.00  0.00    +0.440 HD
ATOM      4  H   LIG    1        0.935   1.354   0.000  0.00  0.00    +0.440 HD
ATOM      5  H   LIG    1        0.002  -0.004   0.002  0.00  0.00    +0.430 HD
ENDBRANCH   1   2
BRANCH   1   6
ATOM      6  C   LIG    1        0.041   0.972   2.456  0.00  0.00    +0.200 C 
BRANCH   6   7
ATOM      7  O   LIG    1        1.343   1.559   2.507  0.00  0.00    -0.400 OA
BRANCH   7   9
ATOM      8  C   LIG    1        3.488   1.836   3.585  0.00  0.00    +0.050 C 
ATOM      9  C   LIG    1        2.121   1.149   3.633  0.00  0.00    +0.180 C 
ENDBRANCH   7   9
ENDBRANCH   6   7
ENDBRANCH   1   6
TORSDOF 4
