REMARK  Name = ZINCqH0000007jWF.1
REMARK                            x       y       z     vdW  Elec       q    Type
REMARK                         _______ _______ _______ _____ _____    ______ ____
ROOT
ATOM      1  C   LIG    1       -1.058  -0.353  -1.504  0.00  0.00    -0.650 A 
ATOM      2  C   LIG    1       -0.530  -1.140  -2.509  0.00  0.00    +0.130 A 
ATOM      3  C   LIG    1       -1.361  -1.649  -3.499  0.00  0.00    +0.140 A 
ATOM      4  C   LIG    1       -2.718  -1.357  -3.481  0.00  0.00    +0.100 A 
ATOM      5  C   LIG    1       -3.240  -0.566  -2.477  0.00  0.00    +0.050 A 
ATOM      6  C   LIG    1       -2.411  -0.063  -1.489  0.00  0.00    +0.040 A 
ATOM      7 CL   LIG    1       -3.070   0.931  -0.228  0.00  0.00    -0.040 Cl
ENDROOT
BRANCH   3   8
ATOM      8  N   LIG    1       -0.830  -2.451  -4.516  0.00  0.00    -0.670 N 
ATOM      9  H   LIG    1       -0.084  -3.042  -4.328  0.00  0.00    +0.420 HD
ATOM     10  C   LIG    1       -1.355  -2.403  -5.756  0.00  0.00    +0.550 C 
ATOM     11  O   LIG    1       -2.224  -1.598  -6.016  0.00  0.00    -0.510 OA
BRANCH  10  12
ATOM     12  C   LIG    1       -0.862  -3.349  -6.820  0.00  0.00    -0.070 C 
ATOM     13  C   LIG    1       -0.064  -2.753  -7.982  0.00  0.00    +0.060 C 
ATOM     14  C   LIG    1       -1.496  -3.243  -8.209  0.00  0.00    +0.010 C 
ATOM     15  C   LIG    1       -2.582  -2.185  -8.410  0.00  0.00    +0.060 C 
ENDBRANCH  10  12
ENDBRANCH   3   8
BRANCH   1  16
ATOM     16  S   LIG    1       -0.006   0.289  -0.245  0.00  0.00    +2.690 S 
ATOM     17  O   LIG    1       -0.628  -0.022   0.994  0.00  0.00    -0.930 OA
ATOM     18  O   LIG    1        1.314  -0.121  -0.577  0.00  0.00    -0.950 OA
BRANCH  16  19
ATOM     19  N   LIG    1       -0.031   1.940  -0.380  0.00  0.00    -1.050 N 
ATOM     20  H   LIG    1       -0.362   2.481   0.354  0.00  0.00    +0.430 HD
BRANCH  19  24
ATOM     21  C   LIG    1        1.345   3.767  -3.864  0.00  0.00    +0.120 A 
ATOM     22  C   LIG    1        0.158   4.187  -3.284  0.00  0.00    +0.010 A 
ATOM     23  C   LIG    1       -0.299   3.582  -2.129  0.00  0.00    +0.060 A 
ATOM     24  C   LIG    1        0.431   2.553  -1.550  0.00  0.00    +0.100 A 
ATOM     25  C   LIG    1        1.623   2.138  -2.128  0.00  0.00    +0.050 A 
ATOM     26  C   LIG    1        2.076   2.740  -3.285  0.00  0.00    -0.050 A 
BRANCH  21  28
ATOM     27  C   LIG    1        3.025   3.881  -5.544  0.00  0.00    +0.250 C 
ATOM     28  O   LIG    1        1.795   4.364  -5.001  0.00  0.00    -0.320 OA
ENDBRANCH  21  28
ENDBRANCH  19  24
ENDBRANCH  16  19
ENDBRANCH   1  16
TORSDOF 6
