REMARK  Name = ZINCqH0000008Hlm.0
REMARK                            x       y       z     vdW  Elec       q    Type
REMARK                         _______ _______ _______ _____ _____    ______ ____
ROOT
ATOM      1  C   LIG    1       -4.042  -0.509  -0.086  0.00  0.00    -0.090 A 
ATOM      2  C   LIG    1       -2.917   0.056  -0.688  0.00  0.00    +0.020 A 
ATOM      3  C   LIG    1       -2.703   1.422  -0.602  0.00  0.00    +0.190 A 
ATOM      4  C   LIG    1       -3.604   2.225   0.087  0.00  0.00    +0.050 A 
ATOM      5  C   LIG    1       -4.722   1.668   0.678  0.00  0.00    +0.070 A 
ATOM      6  C   LIG    1       -4.946   0.307   0.599  0.00  0.00    -0.020 A 
ATOM      7 CL   LIG    1       -6.348  -0.388   1.349  0.00  0.00    -0.040 Cl
ENDROOT
BRANCH   1  12
ATOM      8  C   LIG    1       -2.010  -4.274   2.005  0.00  0.00    +0.070 C 
ATOM      9  C   LIG    1       -1.776  -4.150   0.498  0.00  0.00    -0.010 C 
ATOM     10  C   LIG    1       -1.775  -2.707  -0.032  0.00  0.00    +0.270 C 
ATOM     11  N   LIG    1       -3.234  -2.818  -0.181  0.00  0.00    -0.630 N 
ATOM     12  C   LIG    1       -4.278  -1.966  -0.174  0.00  0.00    +0.590 C 
ATOM     13  O   LIG    1       -5.413  -2.395  -0.240  0.00  0.00    -0.500 OA
ATOM     14  C   LIG    1       -3.051  -4.268  -0.348  0.00  0.00    +0.280 C 
BRANCH  14  15
ATOM     15  C   LIG    1       -2.791  -4.679  -1.774  0.00  0.00    -0.090 A 
ATOM     16  C   LIG    1       -2.828  -3.736  -2.784  0.00  0.00    +0.010 A 
ATOM     17  C   LIG    1       -2.583  -4.113  -4.091  0.00  0.00    +0.000 A 
ATOM     18  C   LIG    1       -2.313  -5.435  -4.390  0.00  0.00    +0.000 A 
ATOM     19  C   LIG    1       -2.281  -6.380  -3.381  0.00  0.00    +0.010 A 
ATOM     20  C   LIG    1       -2.520  -6.002  -2.073  0.00  0.00    +0.020 A 
ENDBRANCH  14  15
ENDBRANCH   1  12
BRANCH   3  21
ATOM     21  N   LIG    1       -1.575   1.993  -1.203  0.00  0.00    -0.570 N 
ATOM     22  C   LIG    1       -0.481   1.247  -1.844  0.00  0.00    +0.260 C 
ATOM     23  C   LIG    1        0.484   2.347  -2.325  0.00  0.00    +0.270 C 
ATOM     24  N   LIG    1       -0.170   3.597  -1.909  0.00  0.00    -0.730 N 
ATOM     25  H   LIG    1        0.177   4.490  -2.059  0.00  0.00    +0.440 HD
ATOM     26  C   LIG    1       -1.322   3.305  -1.290  0.00  0.00    +0.700 C 
ATOM     27  O   LIG    1       -2.067   4.155  -0.842  0.00  0.00    -0.560 OA
ENDBRANCH   3  21
TORSDOF 3
