REMARK  Name = ZINC590000002pgB.0
REMARK                            x       y       z     vdW  Elec       q    Type
REMARK                         _______ _______ _______ _____ _____    ______ ____
ROOT
ATOM      1  N   LIG    1       -0.749   3.048   1.275  0.00  0.00    -0.500 NA
ATOM      2  H   LIG    1        0.187   3.422   1.333  0.00  0.00    +0.330 HD
ENDROOT
BRANCH   1   4
ATOM      3  C   LIG    1       -0.013   1.086   0.008  0.00  0.00    -0.010 C 
ATOM      4  C   LIG    1       -0.729   1.579   1.267  0.00  0.00    +0.170 C 
ATOM      5  C   LIG    1       -2.164   1.050   1.278  0.00  0.00    +0.040 C 
ENDBRANCH   1   4
BRANCH   1   6
ATOM      6  O   LIG    1       -1.450   3.569   0.102  0.00  0.00    -0.430 OA
ATOM      7  H   LIG    1       -1.489   4.535   0.063  0.00  0.00    +0.380 HD
ENDBRANCH   1   6
TORSDOF 2
