REMARK  Name = ZINCpe00000zfMMp.0
REMARK                            x       y       z     vdW  Elec       q    Type
REMARK                         _______ _______ _______ _____ _____    ______ ____
ROOT
ATOM      1  C   LIG    1       -4.246   6.061   1.635  0.00  0.00    +0.340 C 
ATOM      2  N   LIG    1       -3.353   5.462   2.629  0.00  0.00    -0.480 N 
ATOM      3  C   LIG    1       -2.667   6.109   3.619  0.00  0.00    +0.180 A 
ATOM      4  N   LIG    1       -1.989   5.209   4.273  0.00  0.00    -0.270 NA
ATOM      5  N   LIG    1       -2.202   4.046   3.771  0.00  0.00    -0.310 NA
ATOM      6  C   LIG    1       -3.034   4.142   2.760  0.00  0.00    +0.360 A 
ENDROOT
BRANCH   6   7
ATOM      7  N   LIG    1       -3.496   3.100   1.972  0.00  0.00    -0.440 N 
ATOM      8  C   LIG    1       -2.927   1.812   2.411  0.00  0.00    +0.260 C 
ATOM      9  C   LIG    1       -2.210   1.188   1.192  0.00  0.00    -0.010 C 
ATOM     10  C   LIG    1       -0.730   1.580   1.264  0.00  0.00    +0.040 C 
ATOM     11  C   LIG    1       -0.013   1.086   0.008  0.00  0.00    +0.070 C 
ATOM     12  C   LIG    1       -0.742   1.585  -1.209  0.00  0.00    +0.520 C 
ATOM     13  N   LIG    1       -2.026   1.944  -1.170  0.00  0.00    -0.710 N 
ATOM     14  H   LIG    1       -2.422   2.264  -1.996  0.00  0.00    +0.400 HD
ATOM     15  O   LIG    1       -0.142   1.664  -2.260  0.00  0.00    -0.540 OA
ATOM     16  C   LIG    1       -2.876   1.897  -0.003  0.00  0.00    +0.250 C 
ATOM     17  C   LIG    1       -3.142   3.312   0.552  0.00  0.00    +0.180 C 
ENDBRANCH   6   7
BRANCH   3  18
ATOM     18  C   LIG    1       -2.687   7.590   3.898  0.00  0.00    +0.250 C 
BRANCH  18  19
ATOM     19  C   LIG    1       -1.597   8.265   3.106  0.00  0.00    -0.190 A 
ATOM     20  C   LIG    1       -1.876   8.811   1.899  0.00  0.00    +0.310 A 
ATOM     21  N   LIG    1       -0.906   9.427   1.175  0.00  0.00    -0.600 N 
ATOM     22  H   LIG    1       -1.125   9.817   0.314  0.00  0.00    +0.420 HD
ATOM     23  C   LIG    1        0.357   9.499   1.637  0.00  0.00    +0.520 A 
ATOM     24  C   LIG    1        0.683   8.938   2.885  0.00  0.00    -0.160 A 
ATOM     25 CL   LIG    1        2.308   9.025   3.488  0.00  0.00    -0.020 Cl
ATOM     26  O   LIG    1        1.219  10.052   0.973  0.00  0.00    -0.520 OA
ATOM     27  C   LIG    1       -0.292   8.323   3.615  0.00  0.00    +0.160 A 
ENDBRANCH  18  19
ENDBRANCH   3  18
TORSDOF 3
