REMARK  Name = ZINCpk00000e9tz8.0
REMARK                            x       y       z     vdW  Elec       q    Type
REMARK                         _______ _______ _______ _____ _____    ______ ____
ROOT
ATOM      1  N   LIG    1       -3.687   3.244  -0.051  0.00  0.00    -0.690 N 
ATOM      2  H   LIG    1       -3.575   2.284   0.029  0.00  0.00    +0.410 HD
ATOM      3  C   LIG    1       -2.631   4.022  -0.360  0.00  0.00    +0.550 C 
ATOM      4  O   LIG    1       -2.787   5.212  -0.546  0.00  0.00    -0.480 OA
ENDROOT
BRANCH   3   5
ATOM      5  C   LIG    1       -1.277   3.425  -0.473  0.00  0.00    +0.030 A 
ATOM      6  C   LIG    1       -0.167   4.220  -0.793  0.00  0.00    +0.040 A 
ATOM      7  N   LIG    1        0.017   5.523  -1.054  0.00  0.00    -0.510 NA
ATOM      8  C   LIG    1        1.297   5.720  -1.296  0.00  0.00    +0.460 A 
ATOM      9  N   LIG    1        1.966   4.578  -1.202  0.00  0.00    -0.560 NA
ATOM     10  C   LIG    1        1.113   3.607  -0.892  0.00  0.00    +0.230 A 
ATOM     11  N   LIG    1        1.237   2.268  -0.675  0.00  0.00    -0.460 N 
ATOM     12  H   LIG    1        2.110   1.852  -0.742  0.00  0.00    +0.430 HD
ATOM     13  C   LIG    1        0.168   1.517  -0.369  0.00  0.00    +0.330 A 
ATOM     14  C   LIG    1       -1.081   2.054  -0.268  0.00  0.00    -0.020 A 
ENDBRANCH   3   5
BRANCH   1  17
ATOM     15  C   LIG    1       -6.313   2.827  -1.152  0.00  0.00    +0.170 C 
ATOM     16  C   LIG    1       -5.719   4.245  -1.138  0.00  0.00    +0.070 C 
ATOM     17  C   LIG    1       -5.004   3.849   0.164  0.00  0.00    +0.170 C 
ATOM     18  C   LIG    1       -6.127   2.820   0.375  0.00  0.00    -0.070 C 
ATOM     19  C   LIG    1       -7.330   3.373   1.142  0.00  0.00    +0.080 C 
ATOM     20  C   LIG    1       -5.635   1.479   0.925  0.00  0.00    +0.070 C 
BRANCH  17  21
ATOM     21  C   LIG    1       -4.984   4.941   1.201  0.00  0.00    +0.480 C 
ATOM     22  O   LIG    1       -5.694   5.910   1.072  0.00  0.00    -0.490 OA
BRANCH  21  23
ATOM     23  O   LIG    1       -4.178   4.839   2.269  0.00  0.00    -0.350 OA
ATOM     24  C   LIG    1       -4.211   5.929   3.228  0.00  0.00    +0.250 C 
ENDBRANCH  21  23
ENDBRANCH  17  21
BRANCH  15  25
ATOM     25  O   LIG    1       -5.499   1.870  -1.833  0.00  0.00    -0.360 OA
BRANCH  25  27
ATOM     26  C   LIG    1       -5.122   0.362  -3.683  0.00  0.00    +0.040 C 
ATOM     27  C   LIG    1       -6.075   1.374  -3.043  0.00  0.00    +0.160 C 
ENDBRANCH  25  27
ENDBRANCH  15  25
ENDBRANCH   1  17
TORSDOF 6
