REMARK  Name = ZINCrH000004tZKc.0
REMARK                            x       y       z     vdW  Elec       q    Type
REMARK                         _______ _______ _______ _____ _____    ______ ____
ROOT
ATOM      1  O   LIG    1        0.052  -2.429  -1.178  0.00  0.00    -0.520 OA
ATOM      2  C   LIG    1       -0.960  -1.784  -1.356  0.00  0.00    +0.500 C 
ATOM      3  N   LIG    1       -1.062  -0.538  -0.852  0.00  0.00    -0.720 N 
ATOM      4  H   LIG    1       -1.841   0.004  -1.052  0.00  0.00    +0.400 HD
ENDROOT
BRANCH   3   5
ATOM      5  C   LIG    1        0.004  -0.002  -0.001  0.00  0.00    +0.300 C 
BRANCH   5   6
ATOM      6  C   LIG    1       -0.066   1.503   0.003  0.00  0.00    -0.090 A 
ATOM      7  C   LIG    1       -1.290   2.138  -0.095  0.00  0.00    +0.040 A 
ATOM      8  C   LIG    1       -1.355   3.519  -0.086  0.00  0.00    -0.010 A 
ATOM      9  C   LIG    1       -0.194   4.266   0.010  0.00  0.00    +0.100 A 
ATOM     10  C   LIG    1        1.032   3.629   0.103  0.00  0.00    -0.010 A 
ATOM     11  F   LIG    1       -0.256   5.615   0.014  0.00  0.00    -0.140 F 
ATOM     12  C   LIG    1        1.095   2.248   0.099  0.00  0.00    +0.060 A 
ENDBRANCH   5   6
BRANCH   5  13
ATOM     13  C   LIG    1       -0.172  -0.525   1.426  0.00  0.00    -0.020 C 
ATOM     14  C   LIG    1       -1.526  -0.058   1.997  0.00  0.00    +0.000 C 
ATOM     15  C   LIG    1       -1.227   0.239   3.488  0.00  0.00    +0.020 C 
ATOM     16  C   LIG    1        0.188   0.868   3.435  0.00  0.00    +0.000 C 
ATOM     17  C   LIG    1        0.918   0.063   2.340  0.00  0.00    +0.020 C 
ENDBRANCH   5  13
ENDBRANCH   3   5
BRANCH   2  18
ATOM     18  C   LIG    1       -2.103  -2.375  -2.140  0.00  0.00    +0.340 C 
BRANCH  18  19
ATOM     19  N   LIG    1       -1.747  -3.728  -2.575  0.00  0.00    -0.500 N 
ATOM     20  C   LIG    1       -1.131  -3.904  -3.779  0.00  0.00    +0.320 A 
ATOM     21  C   LIG    1       -0.780  -5.130  -4.220  0.00  0.00    -0.030 A 
ATOM     22  C   LIG    1       -1.061  -6.264  -3.433  0.00  0.00    +0.120 A 
ATOM     23  C   LIG    1       -1.698  -6.082  -2.200  0.00  0.00    -0.260 A 
ATOM     24  C   LIG    1       -1.848  -7.423  -1.632  0.00  0.00    +0.020 A 
ATOM     25  C   LIG    1       -1.313  -8.268  -2.527  0.00  0.00    +0.180 A 
ATOM     26  O   LIG    1       -0.850  -7.580  -3.587  0.00  0.00    -0.170 OA
ATOM     27  C   LIG    1       -2.040  -4.778  -1.781  0.00  0.00    +0.570 A 
ATOM     28  O   LIG    1       -2.596  -4.603  -0.710  0.00  0.00    -0.530 OA
ENDBRANCH  18  19
ENDBRANCH   2  18
TORSDOF 5
