REMARK  Name = ZINCrH000004mP1e.0
REMARK                            x       y       z     vdW  Elec       q    Type
REMARK                         _______ _______ _______ _____ _____    ______ ____
ROOT
ATOM      1  N   LIG    1       -1.390   0.008  -0.175  0.00  0.00    -0.500 NA
ATOM      2  C   LIG    1       -2.210   0.236  -1.373  0.00  0.00    +0.190 C 
ENDROOT
BRANCH   1   3
ATOM      3  C   LIG    1       -0.102   0.706  -0.279  0.00  0.00    +0.210 C 
BRANCH   3   6
ATOM      4  N   LIG    1        0.711   3.040  -0.362  0.00  0.00    -0.680 N 
ATOM      5  H   LIG    1        1.617   2.693  -0.366  0.00  0.00    +0.410 HD
ATOM      6  C   LIG    1       -0.335   2.194  -0.275  0.00  0.00    +0.510 C 
ATOM      7  O   LIG    1       -1.464   2.631  -0.199  0.00  0.00    -0.500 OA
BRANCH   4  11
ATOM      8  C   LIG    1        0.053   7.150  -0.611  0.00  0.00    +0.110 A 
ATOM      9  C   LIG    1       -0.786   6.359   0.161  0.00  0.00    +0.000 A 
ATOM     10  C   LIG    1       -0.569   4.998   0.243  0.00  0.00    +0.070 A 
ATOM     11  C   LIG    1        0.490   4.421  -0.445  0.00  0.00    +0.110 A 
ATOM     12  C   LIG    1        1.333   5.215  -1.212  0.00  0.00    +0.020 A 
ATOM     13  C   LIG    1        1.111   6.575  -1.299  0.00  0.00    -0.060 A 
BRANCH   8  15
ATOM     14  C   LIG    1        0.741   9.244  -1.503  0.00  0.00    +0.250 C 
ATOM     15  O   LIG    1       -0.162   8.491  -0.691  0.00  0.00    -0.320 OA
ENDBRANCH   8  15
ENDBRANCH   4  11
ENDBRANCH   3   6
ENDBRANCH   1   3
BRANCH   1  16
ATOM     16  C   LIG    1       -1.194  -1.428   0.062  0.00  0.00    +0.240 C 
BRANCH  16  17
ATOM     17  C   LIG    1       -2.529  -2.085   0.304  0.00  0.00    -0.060 A 
ATOM     18  C   LIG    1       -3.146  -2.790  -0.710  0.00  0.00    +0.010 A 
ATOM     19  C   LIG    1       -4.371  -3.393  -0.489  0.00  0.00    +0.000 A 
ATOM     20  C   LIG    1       -4.982  -3.292   0.747  0.00  0.00    +0.010 A 
ATOM     21  C   LIG    1       -4.370  -2.588   1.766  0.00  0.00    -0.030 A 
ATOM     22  C   LIG    1       -3.137  -1.986   1.549  0.00  0.00    +0.120 A 
BRANCH  22  23
ATOM     23  N   LIG    1       -2.513  -1.278   2.579  0.00  0.00    -0.490 N 
ATOM     24  C   LIG    1       -2.063  -2.184   3.643  0.00  0.00    +0.160 C 
ATOM     25  C   LIG    1       -1.259  -1.395   4.680  0.00  0.00    +0.030 C 
ATOM     26  C   LIG    1       -2.139  -0.287   5.265  0.00  0.00    +0.000 C 
ATOM     27  C   LIG    1       -2.634   0.614   4.131  0.00  0.00    +0.030 C 
ATOM     28  C   LIG    1       -3.398  -0.233   3.110  0.00  0.00    +0.180 C 
ENDBRANCH  22  23
ENDBRANCH  16  17
ENDBRANCH   1  16
TORSDOF 7
