REMARK  Name = ZINCrH000004m4A1.0
REMARK                            x       y       z     vdW  Elec       q    Type
REMARK                         _______ _______ _______ _____ _____    ______ ____
ROOT
ATOM      1  C   LIG    1        0.739   2.952   6.592  0.00  0.00    +0.270 C 
ENDROOT
BRANCH   1   2
ATOM      2  N   LIG    1        0.488   2.572   5.200  0.00  0.00    -0.730 N 
ATOM      3  H   LIG    1        1.223   2.284   4.636  0.00  0.00    +0.400 HD
ATOM      4  C   LIG    1       -0.764   2.622   4.702  0.00  0.00    +0.590 C 
ATOM      5  O   LIG    1       -1.686   2.983   5.410  0.00  0.00    -0.540 OA
BRANCH   4   6
ATOM      6  C   LIG    1       -1.015   2.240   3.306  0.00  0.00    -0.230 A 
ATOM      7  C   LIG    1       -0.091   1.818   2.396  0.00  0.00    +0.290 A 
ATOM      8  N   LIG    1       -0.698   1.558   1.213  0.00  0.00    -0.470 N 
ATOM      9  C   LIG    1       -2.053   1.807   1.302  0.00  0.00    +0.080 A 
ATOM     10  C   LIG    1       -3.102   1.696   0.396  0.00  0.00    -0.010 A 
ATOM     11  C   LIG    1       -4.384   2.019   0.786  0.00  0.00    +0.030 A 
ATOM     12  C   LIG    1       -4.642   2.450   2.079  0.00  0.00    -0.010 A 
ATOM     13  C   LIG    1       -3.616   2.562   2.993  0.00  0.00    +0.070 A 
ATOM     14  C   LIG    1       -0.013   1.086   0.008  0.00  0.00    +0.330 C 
ATOM     15  C   LIG    1       -2.316   2.239   2.612  0.00  0.00    -0.060 A 
ENDBRANCH   4   6
ENDBRANCH   1   2
BRANCH   1  16
ATOM     16  C   LIG    1        2.230   2.806   6.900  0.00  0.00    +0.070 C 
BRANCH  16  19
ATOM     17  C   LIG    1        2.662   2.601  10.647  0.00  0.00    +0.120 A 
ATOM     18  C   LIG    1        2.425   2.243   9.330  0.00  0.00    -0.030 A 
ATOM     19  C   LIG    1        2.488   3.198   8.332  0.00  0.00    -0.070 A 
ATOM     20  C   LIG    1        2.793   4.509   8.645  0.00  0.00    +0.020 A 
ATOM     21  C   LIG    1        3.026   4.874   9.958  0.00  0.00    -0.010 A 
ATOM     22  C   LIG    1        2.964   3.923  10.963  0.00  0.00    +0.070 A 
BRANCH  17  24
ATOM     23  C   LIG    1        2.284   0.327  11.233  0.00  0.00    +0.240 C 
ATOM     24  O   LIG    1        2.599   1.663  11.630  0.00  0.00    -0.310 OA
ENDBRANCH  17  24
BRANCH  22  25
ATOM     25  O   LIG    1        3.198   4.279  12.254  0.00  0.00    -0.310 OA
BRANCH  25  26
ATOM     26  C   LIG    1        3.502   5.653  12.503  0.00  0.00    +0.590 C 
ATOM     27  F   LIG    1        2.433   6.451  12.081  0.00  0.00    -0.200 F 
ATOM     28  F   LIG    1        4.657   6.010  11.799  0.00  0.00    -0.200 F 
ENDBRANCH  25  26
ENDBRANCH  22  25
ENDBRANCH  16  19
ENDBRANCH   1  16
TORSDOF 7
