REMARK  Name = ZINCpe00000VVGJb.0
REMARK                            x       y       z     vdW  Elec       q    Type
REMARK                         _______ _______ _______ _____ _____    ______ ____
ROOT
ATOM      1  C   LIG    1       -1.232   4.425   6.353  0.00  0.00    +0.150 C 
ATOM      2  C   LIG    1       -2.132   4.383   7.610  0.00  0.00    +0.040 C 
ATOM      3  C   LIG    1       -1.700   5.595   8.456  0.00  0.00    +0.170 C 
ATOM      4  N   LIG    1       -0.598   6.260   7.728  0.00  0.00    -0.490 NA
ATOM      5  C   LIG    1       -0.781   5.907   6.295  0.00  0.00    +0.190 C 
ENDROOT
BRANCH   1   6
ATOM      6  N   LIG    1       -1.998   4.068   5.152  0.00  0.00    -0.530 NA
ATOM      7  C   LIG    1       -2.533   2.704   5.255  0.00  0.00    +0.200 C 
BRANCH   6   8
ATOM      8  C   LIG    1       -1.182   4.223   3.941  0.00  0.00    +0.310 C 
BRANCH   8  13
ATOM      9  C   LIG    1       -4.243   5.220   0.048  0.00  0.00    +0.200 C 
ATOM     10  C   LIG    1       -3.371   4.516   1.055  0.00  0.00    +0.170 A 
ATOM     11  N   LIG    1       -3.116   3.236   1.097  0.00  0.00    -0.290 NA
ATOM     12  N   LIG    1       -2.332   2.983   2.085  0.00  0.00    -0.290 NA
ATOM     13  C   LIG    1       -2.059   4.089   2.723  0.00  0.00    +0.180 A 
ATOM     14  N   LIG    1       -2.710   5.093   2.088  0.00  0.00    -0.460 N 
ATOM     15  C   LIG    1       -2.703   6.513   2.445  0.00  0.00    +0.330 C 
ENDBRANCH   8  13
ENDBRANCH   6   8
ENDBRANCH   1   6
BRANCH   4  16
ATOM     16  C   LIG    1       -0.642   7.716   7.922  0.00  0.00    +0.180 C 
BRANCH  16  17
ATOM     17  C   LIG    1       -0.532   8.030   9.392  0.00  0.00    -0.090 A 
ATOM     18  C   LIG    1        0.422   7.395  10.165  0.00  0.00    +0.050 A 
ATOM     19  C   LIG    1        0.526   7.687  11.512  0.00  0.00    +0.000 A 
ATOM     20  C   LIG    1       -0.330   8.607  12.088  0.00  0.00    +0.010 A 
ATOM     21  C   LIG    1       -1.287   9.238  11.316  0.00  0.00    +0.000 A 
ATOM     22  C   LIG    1       -1.388   8.950   9.968  0.00  0.00    +0.010 A 
ENDBRANCH  16  17
BRANCH  16  23
ATOM     23  C   LIG    1        0.504   8.357   7.184  0.00  0.00    +0.530 C 
ATOM     24  O   LIG    1        1.282   7.668   6.558  0.00  0.00    -0.520 OA
ATOM     25  N   LIG    1        0.665   9.694   7.219  0.00  0.00    -0.850 N 
ATOM     26  H   LIG    1        1.403  10.107   6.744  0.00  0.00    +0.400 HD
ATOM     27  H   LIG    1        0.043  10.245   7.720  0.00  0.00    +0.400 HD
ENDBRANCH  16  23
ENDBRANCH   4  16
TORSDOF 6
