REMARK  Name = ZINCrD0000073Py1.0
REMARK                            x       y       z     vdW  Elec       q    Type
REMARK                         _______ _______ _______ _____ _____    ______ ____
ROOT
ATOM      1  C   LIG    1       -0.963   1.597  -3.611  0.00  0.00    +0.080 C 
ATOM      2  C   LIG    1       -0.126   1.099  -2.431  0.00  0.00    +0.190 C 
ENDROOT
BRANCH   2   3
ATOM      3  N   LIG    1       -0.719   1.574  -1.175  0.00  0.00    -0.510 NA
ATOM      4  C   LIG    1       -0.009   1.019  -0.014  0.00  0.00    +0.190 C 
ATOM      5  C   LIG    1       -0.705   1.473   1.272  0.00  0.00    +0.210 C 
ATOM      6  N   LIG    1       -0.725   2.941   1.323  0.00  0.00    -0.490 N 
ATOM      7  C   LIG    1       -1.435   3.496   0.162  0.00  0.00    +0.200 C 
ATOM      8  C   LIG    1       -0.739   3.042  -1.123  0.00  0.00    +0.190 C 
BRANCH   6   9
ATOM      9  C   LIG    1       -1.289   3.393   2.518  0.00  0.00    +0.110 A 
ATOM     10  C   LIG    1       -2.376   4.258   2.491  0.00  0.00    -0.040 A 
ATOM     11  C   LIG    1       -2.934   4.699   3.675  0.00  0.00    +0.030 A 
ATOM     12  C   LIG    1       -2.407   4.288   4.885  0.00  0.00    -0.030 A 
ATOM     13  C   LIG    1       -1.322   3.431   4.915  0.00  0.00    +0.030 A 
ATOM     14  C   LIG    1       -0.762   2.982   3.736  0.00  0.00    -0.020 A 
ENDBRANCH   6   9
ENDBRANCH   2   3
BRANCH   2  15
ATOM     15  C   LIG    1        1.280   1.628  -2.554  0.00  0.00    +0.490 C 
ATOM     16  N   LIG    1        2.008   1.356  -3.655  0.00  0.00    -0.670 N 
ATOM     17  H   LIG    1        1.611   0.864  -4.391  0.00  0.00    +0.420 HD
ATOM     18  O   LIG    1        1.756   2.298  -1.663  0.00  0.00    -0.500 OA
BRANCH  16  19
ATOM     19  C   LIG    1        3.339   1.783  -3.738  0.00  0.00    +0.210 A 
ATOM     20  C   LIG    1        3.722   2.982  -3.152  0.00  0.00    +0.060 A 
ATOM     21  C   LIG    1        5.037   3.399  -3.230  0.00  0.00    +0.140 A 
ATOM     22  C   LIG    1        5.969   2.628  -3.900  0.00  0.00    -0.050 A 
ATOM     23  C   LIG    1        5.591   1.436  -4.489  0.00  0.00    +0.150 A 
ATOM     24  C   LIG    1        4.278   1.011  -4.410  0.00  0.00    -0.070 A 
ATOM     25 CL   LIG    1        3.803  -0.486  -5.151  0.00  0.00    -0.030 Cl
BRANCH  22  26
ATOM     26  N   LIG    1        7.376   3.081  -3.987  0.00  0.00    +0.030 N 
ATOM     27  O   LIG    1        7.711   4.131  -3.468  0.00  0.00    -0.150 OA
ATOM     28  O   LIG    1        8.198   2.404  -4.577  0.00  0.00    -0.150 OA
ENDBRANCH  22  26
ENDBRANCH  16  19
ENDBRANCH   2  15
TORSDOF 5
