REMARK  Name = ZINCc70000006kNg.0
REMARK                            x       y       z     vdW  Elec       q    Type
REMARK                         _______ _______ _______ _____ _____    ______ ____
ROOT
ATOM      1  C   LIG    1        2.331   1.315  -0.013  0.00  0.00    +0.370 A 
ATOM      2  N   LIG    1        2.345  -0.010  -0.020  0.00  0.00    -0.500 NA
ATOM      3  C   LIG    1        1.206  -0.682  -0.013  0.00  0.00    +0.360 A 
ATOM      4  C   LIG    1        0.002  -0.004   0.002  0.00  0.00    +0.190 A 
ATOM      5  N   LIG    1       -0.016   1.318   0.009  0.00  0.00    -0.320 NA
ATOM      6  C   LIG    1        1.117   1.995   0.002  0.00  0.00    -0.530 A 
ENDROOT
BRANCH   6   7
ATOM      7  S   LIG    1        1.093   3.757   0.011  0.00  0.00    +2.700 S 
ATOM      8  F   LIG    1       -0.330   4.216  -0.587  0.00  0.00    -0.460 F 
ATOM      9  O   LIG    1        2.076   4.176  -0.924  0.00  0.00    -0.900 OA
ATOM     10  O   LIG    1        1.100   4.151   1.376  0.00  0.00    -0.910 OA
ENDBRANCH   6   7
BRANCH   1  12
ATOM     11  C   LIG    1        4.705   1.244  -0.035  0.00  0.00    +0.280 C 
ATOM     12  O   LIG    1        3.498   2.008  -0.020  0.00  0.00    -0.290 OA
ENDBRANCH   1  12
TORSDOF 2
