REMARK  Name = ZINCrH00000No4Ij.0
REMARK                            x       y       z     vdW  Elec       q    Type
REMARK                         _______ _______ _______ _____ _____    ______ ____
ROOT
ATOM      1  N   LIG    1        2.384   1.128  -0.015  0.00  0.00    -0.170 NA
ATOM      2  N   LIG    1        2.406  -0.112  -0.022  0.00  0.00    -0.180 NA
ENDROOT
BRANCH   1   6
ATOM      3  C   LIG    1       -1.236   3.134   0.031  0.00  0.00    -0.030 A 
ATOM      4  C   LIG    1       -1.216   1.751   0.017  0.00  0.00    +0.170 A 
ATOM      5  C   LIG    1       -0.013   1.076   0.008  0.00  0.00    +0.080 A 
ATOM      6  C   LIG    1        1.186   1.792   0.000  0.00  0.00    +0.150 A 
ATOM      7  C   LIG    1        1.158   3.188   0.008  0.00  0.00    +0.000 A 
ATOM      8  C   LIG    1       -0.052   3.850   0.023  0.00  0.00    +0.200 A 
BRANCH   3  10
ATOM      9  O   LIG    1       -2.552   5.069   0.053  0.00  0.00    -0.130 OA
ATOM     10  N   LIG    1       -2.531   3.852   0.047  0.00  0.00    +0.020 N 
ATOM     11  O   LIG    1       -3.575   3.224   0.053  0.00  0.00    -0.130 OA
ENDBRANCH   3  10
BRANCH   7  12
ATOM     12  N   LIG    1        2.424   3.955   0.001  0.00  0.00    +0.020 N 
ATOM     13  O   LIG    1        3.491   3.369  -0.012  0.00  0.00    -0.090 OA
ATOM     14  O   LIG    1        2.397   5.173   0.007  0.00  0.00    -0.160 OA
ENDBRANCH   7  12
ENDBRANCH   1   6
BRANCH   2  15
ATOM     15  C   LIG    1        3.687  -0.822  -0.039  0.00  0.00    +0.340 C 
BRANCH  15  16
ATOM     16  C   LIG    1        3.794  -1.694   1.185  0.00  0.00    -0.000 A 
ATOM     17  C   LIG    1        4.316  -1.345   2.377  0.00  0.00    +0.080 A 
ATOM     18  N   LIG    1        4.222  -2.399   3.201  0.00  0.00    -0.470 NA
ATOM     19  C   LIG    1        3.669  -3.397   2.566  0.00  0.00    +0.450 A 
ATOM     20 CL   LIG    1        4.990   0.204   2.779  0.00  0.00    +0.010 Cl
ATOM     21  N   LIG    1        3.385  -2.999   1.299  0.00  0.00    -0.400 N 
BRANCH  21  22
ATOM     22  C   LIG    1        2.786  -3.775   0.296  0.00  0.00    +0.100 A 
ATOM     23  C   LIG    1        1.698  -3.280  -0.410  0.00  0.00    +0.030 A 
ATOM     24  C   LIG    1        1.114  -4.044  -1.401  0.00  0.00    +0.030 A 
ATOM     25  C   LIG    1        1.605  -5.306  -1.682  0.00  0.00    +0.020 A 
ATOM     26  C   LIG    1        2.685  -5.804  -0.977  0.00  0.00    +0.040 A 
ATOM     27  C   LIG    1        3.276  -5.042   0.011  0.00  0.00    +0.020 A 
ENDBRANCH  21  22
ENDBRANCH  15  16
ENDBRANCH   2  15
TORSDOF 6
