REMARK  Name = ZINCpk000004ASoa.0
REMARK                            x       y       z     vdW  Elec       q    Type
REMARK                         _______ _______ _______ _____ _____    ______ ____
ROOT
ATOM      1  C   LIG    1        3.655   7.392   0.805  0.00  0.00    +0.520 C 
ATOM      2  N   LIG    1        3.671   6.048   0.901  0.00  0.00    -0.620 N 
ATOM      3  C   LIG    1        4.943   5.311   0.888  0.00  0.00    +0.290 C 
ATOM      4  C   LIG    1        4.893   4.266  -0.233  0.00  0.00    +0.290 C 
ATOM      5  N   LIG    1        3.638   3.510  -0.115  0.00  0.00    -0.610 N 
ATOM      6  C   LIG    1        2.366   4.246  -0.108  0.00  0.00    +0.270 C 
ATOM      7  C   LIG    1        3.654   2.166  -0.020  0.00  0.00    +0.570 C 
ATOM      8  O   LIG    1        4.713   1.575   0.074  0.00  0.00    -0.510 OA
ATOM      9  C   LIG    1        2.416   5.291   1.019  0.00  0.00    +0.270 C 
ATOM     10  O   LIG    1        4.697   8.005   0.707  0.00  0.00    -0.530 OA
ENDROOT
BRANCH   7  11
ATOM     11  C   LIG    1        2.386   1.410  -0.030  0.00  0.00    -0.160 A 
ATOM     12  C   LIG    1        1.470   1.591  -1.069  0.00  0.00    +0.100 A 
ATOM     13  C   LIG    1        0.287   0.883  -1.072  0.00  0.00    +0.030 A 
ATOM     14  C   LIG    1        0.004  -0.007  -0.048  0.00  0.00    +0.010 A 
ATOM     15  C   LIG    1        0.905  -0.192   0.985  0.00  0.00    +0.010 A 
ATOM     16 CL   LIG    1       -1.489  -0.893  -0.062  0.00  0.00    -0.040 Cl
ATOM     17  C   LIG    1        2.095   0.511   1.002  0.00  0.00    +0.160 A 
ATOM     18  F   LIG    1        2.975   0.331   2.011  0.00  0.00    -0.120 F 
ENDBRANCH   7  11
BRANCH   1  19
ATOM     19  C   LIG    1        2.343   8.133   0.819  0.00  0.00    +0.050 C 
BRANCH  19  20
ATOM     20  C   LIG    1        2.605   9.636   0.698  0.00  0.00    +0.290 C 
BRANCH  20  22
ATOM     21  C   LIG    1        1.314  11.700   0.616  0.00  0.00    +0.540 C 
ATOM     22  N   LIG    1        1.330  10.356   0.712  0.00  0.00    -0.730 N 
ATOM     23  H   LIG    1        0.496   9.866   0.790  0.00  0.00    +0.400 HD
ATOM     24  O   LIG    1        2.359  12.315   0.518  0.00  0.00    -0.540 OA
BRANCH  21  26
ATOM     25  C   LIG    1        0.018  13.751   0.536  0.00  0.00    +0.150 C 
ATOM     26  C   LIG    1        0.034  12.424   0.630  0.00  0.00    -0.090 C 
ENDBRANCH  21  26
ENDBRANCH  20  22
ENDBRANCH  19  20
ENDBRANCH   1  19
TORSDOF 5
