REMARK  Name = ZINCpe000000WTSf.1
REMARK                            x       y       z     vdW  Elec       q    Type
REMARK                         _______ _______ _______ _____ _____    ______ ____
ROOT
ATOM      1  N   LIG    1       -3.683   3.224   0.054  0.00  0.00    -0.720 N 
ATOM      2  H   LIG    1       -3.691   2.254   0.048  0.00  0.00    +0.400 HD
ATOM      3  C   LIG    1       -2.511   3.889   0.046  0.00  0.00    +0.570 C 
ATOM      4  O   LIG    1       -2.502   5.104   0.052  0.00  0.00    -0.520 OA
ENDROOT
BRANCH   3   5
ATOM      5  C   LIG    1       -1.234   3.139   0.030  0.00  0.00    -0.070 A 
ATOM      6  C   LIG    1       -1.223   1.739   0.017  0.00  0.00    -0.040 A 
ATOM      7  C   LIG    1       -0.013   1.076   0.008  0.00  0.00    +0.300 A 
ATOM      8  N   LIG    1        1.126   1.741   0.001  0.00  0.00    -0.500 NA
ATOM      9  C   LIG    1        1.165   3.064   0.007  0.00  0.00    +0.320 A 
ATOM     10  C   LIG    1       -0.010   3.808   0.022  0.00  0.00    +0.020 A 
BRANCH   9  11
ATOM     11  N   LIG    1        2.393   3.716  -0.002  0.00  0.00    -0.480 N 
ATOM     12  C   LIG    1        2.489   4.643  -1.138  0.00  0.00    +0.210 C 
ATOM     13  C   LIG    1        3.818   5.397  -1.067  0.00  0.00    +0.190 C 
ATOM     14  N   LIG    1        4.927   4.432  -1.083  0.00  0.00    -0.550 NA
ATOM     15  C   LIG    1        4.831   3.506   0.054  0.00  0.00    +0.180 C 
ATOM     16  C   LIG    1        6.224   5.122  -1.092  0.00  0.00    +0.190 C 
ATOM     17  C   LIG    1        3.501   2.751  -0.017  0.00  0.00    +0.220 C 
ENDBRANCH   9  11
ENDBRANCH   3   5
BRANCH   1  19
ATOM     18  C   LIG    1       -5.309   4.325   1.512  0.00  0.00    +0.040 C 
ATOM     19  C   LIG    1       -4.946   3.966   0.070  0.00  0.00    +0.230 C 
BRANCH  19  20
ATOM     20  C   LIG    1       -6.054   3.100  -0.534  0.00  0.00    +0.260 C 
ATOM     21  C   LIG    1       -6.290   1.879   0.357  0.00  0.00    +0.070 C 
BRANCH  20  22
ATOM     22  N   LIG    1       -7.289   3.883  -0.628  0.00  0.00    -0.370 N 
ATOM     23  C   LIG    1       -8.205   4.061   0.339  0.00  0.00    +0.480 A 
ATOM     24  N   LIG    1       -9.156   4.822  -0.138  0.00  0.00    -0.540 NA
ATOM     25  C   LIG    1       -8.884   5.147  -1.401  0.00  0.00    +0.420 A 
ATOM     26  N   LIG    1       -7.748   4.600  -1.745  0.00  0.00    -0.320 NA
ENDBRANCH  20  22
ENDBRANCH  19  20
ENDBRANCH   1  19
TORSDOF 5
