REMARK  Name = ZINCqH0000005sxD.0
REMARK                            x       y       z     vdW  Elec       q    Type
REMARK                         _______ _______ _______ _____ _____    ______ ____
ROOT
ATOM      1  N   LIG    1       -3.457  -3.026   0.005  0.00  0.00    -0.660 N 
ATOM      2  H   LIG    1       -2.502  -2.859   0.051  0.00  0.00    +0.420 HD
ATOM      3  C   LIG    1       -4.313  -1.997  -0.155  0.00  0.00    +0.610 C 
ATOM      4  O   LIG    1       -5.500  -2.213  -0.308  0.00  0.00    -0.500 OA
ENDROOT
BRANCH   1   9
ATOM      5  C   LIG    1       -5.648  -5.876   0.815  0.00  0.00    -0.120 A 
ATOM      6  C   LIG    1       -4.897  -6.934   0.299  0.00  0.00    +0.030 A 
ATOM      7  C   LIG    1       -3.682  -6.686  -0.307  0.00  0.00    +0.040 A 
ATOM      8  C   LIG    1       -3.207  -5.392  -0.409  0.00  0.00    +0.010 A 
ATOM      9  C   LIG    1       -3.944  -4.333   0.107  0.00  0.00    +0.140 A 
ATOM     10  C   LIG    1       -5.166  -4.571   0.717  0.00  0.00    +0.090 A 
BRANCH   5  14
ATOM     11  C   LIG    1       -8.704  -7.662   2.203  0.00  0.00    +0.290 C 
ATOM     12  N   LIG    1       -7.414  -7.401   1.559  0.00  0.00    -0.730 N 
ATOM     13  H   LIG    1       -6.894  -8.137   1.200  0.00  0.00    +0.400 HD
ATOM     14  C   LIG    1       -6.950  -6.139   1.465  0.00  0.00    +0.560 C 
ATOM     15  O   LIG    1       -7.602  -5.217   1.915  0.00  0.00    -0.530 OA
ENDBRANCH   5  14
ENDBRANCH   1   9
BRANCH   3  16
ATOM     16  C   LIG    1       -3.810  -0.609  -0.146  0.00  0.00    -0.000 A 
ATOM     17  N   LIG    1       -2.556  -0.232   0.009  0.00  0.00    -0.260 NA
ATOM     18  N   LIG    1       -2.472   1.050  -0.034  0.00  0.00    -0.230 N 
ATOM     19  C   LIG    1       -3.703   1.592  -0.220  0.00  0.00    +0.180 A 
ATOM     20  C   LIG    1       -4.583   0.566  -0.301  0.00  0.00    +0.020 A 
BRANCH  18  21
ATOM     21  C   LIG    1       -1.284   1.781   0.097  0.00  0.00    +0.150 A 
ATOM     22  C   LIG    1       -1.311   3.168   0.039  0.00  0.00    +0.040 A 
ATOM     23  C   LIG    1       -0.138   3.887   0.165  0.00  0.00    +0.090 A 
ATOM     24  C   LIG    1        1.063   3.227   0.351  0.00  0.00    -0.030 A 
ATOM     25  C   LIG    1        1.093   1.843   0.414  0.00  0.00    -0.010 A 
ATOM     26 CL   LIG    1        2.602   1.018   0.648  0.00  0.00    -0.030 Cl
ATOM     27 CL   LIG    1        2.535   4.134   0.508  0.00  0.00    -0.030 Cl
ATOM     28  C   LIG    1       -0.078   1.120   0.290  0.00  0.00    +0.070 A 
ENDBRANCH  18  21
ENDBRANCH   3  16
TORSDOF 4
