REMARK  Name = ZINCtV000002HVVm.0
REMARK                            x       y       z     vdW  Elec       q    Type
REMARK                         _______ _______ _______ _____ _____    ______ ____
ROOT
ATOM      1  S   LIG    1       -1.180   5.521  -1.471  0.00  0.00    -0.140 S 
ENDROOT
BRANCH   1   2
ATOM      2  C   LIG    1        0.024   5.307  -2.810  0.00  0.00    +0.010 C 
ATOM      3  C   LIG    1        0.515   3.858  -2.827  0.00  0.00    +0.080 C 
BRANCH   2   6
ATOM      4  N   LIG    1        0.132   5.938  -5.199  0.00  0.00    -0.660 N 
ATOM      5  H   LIG    1        1.099   5.886  -5.138  0.00  0.00    +0.410 HD
ATOM      6  C   LIG    1       -0.628   5.632  -4.129  0.00  0.00    +0.530 C 
ATOM      7  O   LIG    1       -1.837   5.619  -4.228  0.00  0.00    -0.490 OA
BRANCH   4  12
ATOM      8  C   LIG    1       -2.323   7.527 -10.060  0.00  0.00    +0.100 C 
ATOM      9  C   LIG    1       -1.670   7.105  -8.769  0.00  0.00    -0.100 A 
ATOM     10  C   LIG    1       -2.349   6.281  -7.891  0.00  0.00    +0.020 A 
ATOM     11  C   LIG    1       -1.752   5.887  -6.709  0.00  0.00    +0.030 A 
ATOM     12  C   LIG    1       -0.473   6.330  -6.398  0.00  0.00    +0.140 A 
ATOM     13  C   LIG    1        0.206   7.157  -7.283  0.00  0.00    -0.110 A 
ATOM     14  C   LIG    1        1.597   7.634  -6.953  0.00  0.00    +0.080 C 
ATOM     15  C   LIG    1       -0.394   7.543  -8.465  0.00  0.00    +0.030 A 
ENDBRANCH   4  12
ENDBRANCH   2   6
ENDBRANCH   1   2
BRANCH   1  16
ATOM     16  C   LIG    1       -0.187   5.241   0.021  0.00  0.00    +0.120 C 
BRANCH  16  17
ATOM     17  C   LIG    1       -1.029   5.506   1.242  0.00  0.00    -0.080 A 
ATOM     18  C   LIG    1       -2.266   4.903   1.373  0.00  0.00    +0.070 A 
ATOM     19  C   LIG    1       -3.037   5.141   2.495  0.00  0.00    -0.010 A 
ATOM     20  C   LIG    1       -2.574   5.993   3.484  0.00  0.00    +0.110 A 
ATOM     21  C   LIG    1       -1.337   6.600   3.350  0.00  0.00    -0.010 A 
ATOM     22  F   LIG    1       -3.329   6.231   4.579  0.00  0.00    -0.140 F 
ATOM     23  C   LIG    1       -0.565   6.356   2.229  0.00  0.00    +0.070 A 
ENDBRANCH  16  17
BRANCH  16  24
ATOM     24  C   LIG    1        0.294   3.813   0.043  0.00  0.00    -0.090 A 
ATOM     25  C   LIG    1       -0.601   2.779  -0.166  0.00  0.00    +0.070 A 
ATOM     26  C   LIG    1       -0.161   1.469  -0.147  0.00  0.00    -0.010 A 
ATOM     27  C   LIG    1        1.177   1.192   0.081  0.00  0.00    +0.100 A 
ATOM     28  C   LIG    1        2.071   2.227   0.296  0.00  0.00    -0.010 A 
ATOM     29  F   LIG    1        1.608  -0.088   0.100  0.00  0.00    -0.140 F 
ATOM     30  C   LIG    1        1.629   3.537   0.270  0.00  0.00    +0.050 A 
ENDBRANCH  16  24
ENDBRANCH   1  16
TORSDOF 6
