REMARK  Name = ZINCrg000000shME.2
REMARK                            x       y       z     vdW  Elec       q    Type
REMARK                         _______ _______ _______ _____ _____    ______ ____
ROOT
ATOM      1  C   LIG    1        0.368   1.884   0.353  0.00  0.00    +0.500 C 
ATOM      2  N   LIG    1        0.202   0.564   0.139  0.00  0.00    -0.610 N 
ATOM      3  C   LIG    1       -1.143  -0.014  -0.005  0.00  0.00    +0.280 C 
ATOM      4  C   LIG    1       -1.171  -0.855  -1.291  0.00  0.00    +0.180 C 
ATOM      5  N   LIG    1       -0.075  -1.833  -1.254  0.00  0.00    -0.520 NA
ATOM      6  C   LIG    1        1.234  -1.167  -1.234  0.00  0.00    +0.110 C 
ATOM      7  C   LIG    1        2.343  -2.219  -1.273  0.00  0.00    +0.050 C 
ATOM      8  C   LIG    1        1.360  -0.338   0.049  0.00  0.00    +0.300 C 
ATOM      9  O   LIG    1        1.484   2.344   0.474  0.00  0.00    -0.530 OA
ENDROOT
BRANCH   1  10
ATOM     10  C   LIG    1       -0.833   2.791   0.435  0.00  0.00    +0.350 C 
BRANCH  10  11
ATOM     11  N   LIG    1       -0.397   4.151   0.760  0.00  0.00    -0.930 N 
BRANCH  11  18
ATOM     12  C   LIG    1       -2.332   5.918  -0.348  0.00  0.00    +0.090 C 
ATOM     13  C   LIG    1       -0.903   5.897  -0.828  0.00  0.00    -0.050 A 
ATOM     14  C   LIG    1       -0.500   6.751  -1.835  0.00  0.00    +0.010 A 
ATOM     15  C   LIG    1        0.811   6.732  -2.277  0.00  0.00    +0.020 A 
ATOM     16  C   LIG    1        1.721   5.857  -1.712  0.00  0.00    +0.000 A 
ATOM     17  C   LIG    1        1.325   5.003  -0.701  0.00  0.00    +0.040 A 
ATOM     18  C   LIG    1        0.008   5.017  -0.259  0.00  0.00    +0.120 A 
ENDBRANCH  11  18
BRANCH  11  19
ATOM     19  S   LIG    1       -0.383   4.663   2.335  0.00  0.00    +2.600 S 
ATOM     20  O   LIG    1       -1.292   3.791   2.994  0.00  0.00    -0.950 OA
ATOM     21  O   LIG    1       -0.637   6.059   2.252  0.00  0.00    -0.940 OA
ATOM     22  C   LIG    1        1.314   4.356   2.896  0.00  0.00    -0.270 C 
ENDBRANCH  11  19
ENDBRANCH  10  11
ENDBRANCH   1  10
BRANCH   5  23
ATOM     23  C   LIG    1       -0.170  -2.772  -2.380  0.00  0.00    +0.150 C 
BRANCH  23  24
ATOM     24  C   LIG    1       -1.318  -3.753  -2.131  0.00  0.00    +0.130 C 
ATOM     25  C   LIG    1       -1.113  -4.447  -0.784  0.00  0.00    +0.060 C 
ATOM     26  C   LIG    1       -1.345  -4.800  -3.246  0.00  0.00    +0.020 C 
BRANCH  24  27
ATOM     27  O   LIG    1       -2.557  -3.041  -2.117  0.00  0.00    -0.550 OA
ATOM     28  H   LIG    1       -2.753  -2.575  -2.941  0.00  0.00    +0.370 HD
ENDBRANCH  24  27
ENDBRANCH  23  24
ENDBRANCH   5  23
TORSDOF 7
