REMARK  Name = ZINCqH0000007dRF.0
REMARK                            x       y       z     vdW  Elec       q    Type
REMARK                         _______ _______ _______ _____ _____    ______ ____
ROOT
ATOM      1  C   LIG    1       -3.815   5.351  -0.022  0.00  0.00    +0.300 C 
ENDROOT
BRANCH   1   2
ATOM      2  C   LIG    1       -3.533   6.084  -1.308  0.00  0.00    -0.140 A 
ATOM      3  C   LIG    1       -4.558   6.733  -1.972  0.00  0.00    +0.070 A 
ATOM      4  C   LIG    1       -4.300   7.409  -3.149  0.00  0.00    -0.080 A 
ATOM      5  C   LIG    1       -3.015   7.428  -3.670  0.00  0.00    +0.130 A 
ATOM      6  C   LIG    1       -1.990   6.772  -3.005  0.00  0.00    -0.020 A 
ATOM      7  C   LIG    1       -2.251   6.101  -1.826  0.00  0.00    +0.060 A 
BRANCH   5   8
ATOM      8  O   LIG    1       -2.760   8.089  -4.830  0.00  0.00    -0.320 OA
ATOM      9  C   LIG    1       -3.864   8.742  -5.460  0.00  0.00    +0.250 C 
ENDBRANCH   5   8
ENDBRANCH   1   2
BRANCH   1  10
ATOM     10  N   LIG    1       -3.129   4.057  -0.037  0.00  0.00    -0.720 N 
ATOM     11  H   LIG    1       -2.251   3.969   0.364  0.00  0.00    +0.390 HD
ATOM     12  C   LIG    1       -3.720   2.988  -0.608  0.00  0.00    +0.600 C 
ATOM     13  O   LIG    1       -4.857   3.076  -1.032  0.00  0.00    -0.520 OA
BRANCH  12  14
ATOM     14  C   LIG    1       -2.992   1.720  -0.717  0.00  0.00    -0.060 A 
ATOM     15  C   LIG    1       -3.468   0.552  -1.274  0.00  0.00    +0.050 A 
ATOM     16  C   LIG    1       -2.449  -0.400  -1.168  0.00  0.00    -0.070 A 
ATOM     17  C   LIG    1       -1.391   0.190  -0.562  0.00  0.00    +0.200 A 
ATOM     18  N   LIG    1       -1.710   1.476  -0.278  0.00  0.00    -0.540 N 
ATOM     19  H   LIG    1       -1.131   2.119   0.161  0.00  0.00    +0.410 HD
ENDBRANCH  12  14
ENDBRANCH   1  10
BRANCH   1  20
ATOM     20  C   LIG    1       -3.310   6.182   1.159  0.00  0.00    +0.090 C 
BRANCH  20  24
ATOM     21  C   LIG    1       -4.418   4.275   4.820  0.00  0.00    +0.130 A 
ATOM     22  C   LIG    1       -3.206   3.971   4.216  0.00  0.00    -0.020 A 
ATOM     23  C   LIG    1       -2.850   4.588   3.033  0.00  0.00    +0.050 A 
ATOM     24  C   LIG    1       -3.701   5.510   2.450  0.00  0.00    -0.120 A 
ATOM     25  C   LIG    1       -4.906   5.819   3.052  0.00  0.00    +0.060 A 
ATOM     26  C   LIG    1       -5.269   5.200   4.233  0.00  0.00    -0.070 A 
BRANCH  21  28
ATOM     27  C   LIG    1       -6.031   4.032   6.549  0.00  0.00    +0.250 C 
ATOM     28  O   LIG    1       -4.769   3.670   5.984  0.00  0.00    -0.320 OA
ENDBRANCH  21  28
ENDBRANCH  20  24
ENDBRANCH   1  20
TORSDOF 7
