REMARK  Name = ZINCrg00000BjCvy.0
REMARK                            x       y       z     vdW  Elec       q    Type
REMARK                         _______ _______ _______ _____ _____    ______ ____
ROOT
ATOM      1  C   LIG    1        1.497   1.877  -0.002  0.00  0.00    +0.250 C 
ATOM      2  C   LIG    1       -0.019   1.545   0.011  0.00  0.00    +0.030 C 
ATOM      3  C   LIG    1        0.002  -0.004   0.002  0.00  0.00    +0.250 C 
ATOM      4  N   LIG    1        1.153  -0.370   0.847  0.00  0.00    -0.620 N 
ATOM      5  C   LIG    1        1.308  -1.539   1.500  0.00  0.00    +0.540 C 
ATOM      6  O   LIG    1        2.300  -1.733   2.170  0.00  0.00    -0.500 OA
ATOM      7  C   LIG    1        2.105   0.750   0.860  0.00  0.00    +0.260 C 
ENDROOT
BRANCH   5   8
ATOM      8  C   LIG    1        0.247  -2.605   1.399  0.00  0.00    +0.150 C 
ATOM      9  C   LIG    1        0.135  -3.140  -0.050  0.00  0.00    +0.080 C 
ATOM     10  C   LIG    1       -0.113  -4.621   0.166  0.00  0.00    +0.120 C 
ATOM     11  N   LIG    1        0.180  -4.908   1.375  0.00  0.00    -0.280 NA
ATOM     12  O   LIG    1        0.638  -3.794   2.116  0.00  0.00    -0.170 OA
BRANCH  10  13
ATOM     13  C   LIG    1       -0.619  -5.589  -0.871  0.00  0.00    +0.030 C 
ATOM     14  C   LIG    1       -1.977  -6.247  -0.620  0.00  0.00    +0.060 C 
ATOM     15  C   LIG    1       -0.692  -7.067  -0.482  0.00  0.00    +0.060 C 
ENDBRANCH  10  13
ENDBRANCH   5   8
BRANCH   1  18
ATOM     16  O   LIG    1        1.395   4.225  -1.323  0.00  0.00    -0.510 OA
ATOM     17  C   LIG    1        1.669   4.303  -0.144  0.00  0.00    +0.520 C 
ATOM     18  N   LIG    1        1.745   3.186   0.606  0.00  0.00    -0.720 N 
ATOM     19  H   LIG    1        1.965   3.249   1.549  0.00  0.00    +0.410 HD
BRANCH  17  20
ATOM     20  C   LIG    1        1.925   5.650   0.481  0.00  0.00    +0.240 C 
BRANCH  20  21
ATOM     21  O   LIG    1        1.786   6.670  -0.510  0.00  0.00    -0.290 OA
BRANCH  21  22
ATOM     22  C   LIG    1        1.986   7.953  -0.107  0.00  0.00    +0.140 A 
ATOM     23  C   LIG    1        2.303   8.224   1.216  0.00  0.00    -0.090 A 
ATOM     24  C   LIG    1        2.511   9.528   1.624  0.00  0.00    +0.070 A 
ATOM     25  C   LIG    1        2.393  10.565   0.719  0.00  0.00    -0.050 A 
ATOM     26  C   LIG    1        2.071  10.299  -0.604  0.00  0.00    +0.150 A 
ATOM     27  C   LIG    1        1.867   8.992  -1.018  0.00  0.00    -0.040 A 
BRANCH  26  28
ATOM     28  O   LIG    1        1.954  11.320  -1.494  0.00  0.00    -0.500 OA
ATOM     29  H   LIG    1        1.062  11.687  -1.556  0.00  0.00    +0.400 HD
ENDBRANCH  26  28
ENDBRANCH  21  22
ENDBRANCH  20  21
ENDBRANCH  17  20
ENDBRANCH   1  18
TORSDOF 7
