REMARK  Name = ZINCrD00000F5LlU.0
REMARK                            x       y       z     vdW  Elec       q    Type
REMARK                         _______ _______ _______ _____ _____    ______ ____
ROOT
ATOM      1  N   LIG    1       -0.102   1.594  -0.373  0.00  0.00    -0.720 N 
ATOM      2  H   LIG    1       -0.936   2.063  -0.216  0.00  0.00    +0.400 HD
ATOM      3  C   LIG    1        1.064   2.270  -0.352  0.00  0.00    +0.570 C 
ATOM      4  O   LIG    1        2.110   1.684  -0.553  0.00  0.00    -0.520 OA
ENDROOT
BRANCH   3   5
ATOM      5  C   LIG    1        1.072   3.724  -0.083  0.00  0.00    -0.120 A 
ATOM      6  C   LIG    1       -0.127   4.401   0.148  0.00  0.00    +0.010 A 
ATOM      7  C   LIG    1       -0.115   5.757   0.397  0.00  0.00    +0.020 A 
ATOM      8  C   LIG    1        1.080   6.459   0.418  0.00  0.00    -0.090 A 
ATOM      9  C   LIG    1        1.046   7.941   0.683  0.00  0.00    +0.090 C 
ATOM     10  C   LIG    1        2.411   8.431   1.166  0.00  0.00    +0.020 C 
ATOM     11  C   LIG    1        3.487   7.947   0.185  0.00  0.00    +0.280 C 
ATOM     12  N   LIG    1        3.497   6.478   0.219  0.00  0.00    -0.550 N 
ATOM     13  C   LIG    1        4.662   5.802   0.275  0.00  0.00    +0.540 C 
ATOM     14  O   LIG    1        4.657   4.594   0.417  0.00  0.00    -0.510 OA
ATOM     15  C   LIG    1        2.275   5.791   0.192  0.00  0.00    +0.150 A 
ATOM     16  C   LIG    1        2.276   4.426  -0.054  0.00  0.00    +0.090 A 
BRANCH  13  17
ATOM     17  C   LIG    1        5.938   6.524   0.164  0.00  0.00    -0.090 C 
ATOM     18  C   LIG    1        7.087   5.874   0.328  0.00  0.00    +0.160 C 
ENDBRANCH  13  17
ENDBRANCH   3   5
BRANCH   1  19
ATOM     19  C   LIG    1       -0.109   0.154  -0.639  0.00  0.00    +0.430 C 
BRANCH  19  20
ATOM     20  C   LIG    1       -1.446  -0.245  -1.207  0.00  0.00    -0.100 A 
ATOM     21  C   LIG    1       -2.606   0.308  -0.698  0.00  0.00    +0.050 A 
ATOM     22  C   LIG    1       -3.833  -0.054  -1.222  0.00  0.00    -0.010 A 
ATOM     23  C   LIG    1       -3.901  -0.979  -2.249  0.00  0.00    +0.110 A 
ATOM     24  C   LIG    1       -2.739  -1.536  -2.755  0.00  0.00    -0.010 A 
ATOM     25  F   LIG    1       -5.100  -1.337  -2.759  0.00  0.00    -0.140 F 
ATOM     26  C   LIG    1       -1.513  -1.169  -2.234  0.00  0.00    +0.070 A 
ENDBRANCH  19  20
BRANCH  19  28
ATOM     27  C   LIG    1        0.319  -1.162   1.616  0.00  0.00    +0.060 C 
ATOM     28  C   LIG    1        0.129  -0.578   0.616  0.00  0.00    -0.210 C 
ENDBRANCH  19  28
ENDBRANCH   1  19
TORSDOF 5
