REMARK  Name = ZINCrH000004vEdM.0
REMARK                            x       y       z     vdW  Elec       q    Type
REMARK                         _______ _______ _______ _____ _____    ______ ____
ROOT
ATOM      1  O   LIG    1       -6.192   1.297   3.937  0.00  0.00    -0.540 OA
ATOM      2  C   LIG    1       -5.146   0.761   4.250  0.00  0.00    +0.620 C 
ATOM      3  N   LIG    1       -4.975   0.298   5.504  0.00  0.00    -0.610 N 
ATOM      4  C   LIG    1       -3.767  -0.366   6.015  0.00  0.00    +0.270 C 
ATOM      5  C   LIG    1       -4.019  -0.693   7.502  0.00  0.00    +0.040 C 
ATOM      6  C   LIG    1       -5.134   0.311   7.895  0.00  0.00    +0.040 C 
ATOM      7  C   LIG    1       -5.966   0.381   6.593  0.00  0.00    +0.280 C 
ENDROOT
BRANCH   6   8
ATOM      8  C   LIG    1       -5.959  -0.219   9.039  0.00  0.00    -0.070 A 
ATOM      9  C   LIG    1       -6.652  -1.407   8.900  0.00  0.00    +0.030 A 
ATOM     10  C   LIG    1       -7.404  -1.896   9.951  0.00  0.00    +0.020 A 
ATOM     11  C   LIG    1       -7.473  -1.191  11.139  0.00  0.00    -0.040 A 
ATOM     12  C   LIG    1       -6.785   0.001  11.276  0.00  0.00    +0.020 A 
ATOM     13 CL   LIG    1       -8.424  -1.802  12.457  0.00  0.00    -0.070 Cl
ATOM     14  C   LIG    1       -6.028   0.487  10.226  0.00  0.00    +0.030 A 
ENDBRANCH   6   8
BRANCH   2  15
ATOM     15  C   LIG    1       -4.064   0.618   3.257  0.00  0.00    -0.100 A 
ATOM     16  C   LIG    1       -4.111   1.042   1.959  0.00  0.00    +0.310 A 
ATOM     17  N   LIG    1       -2.926   0.720   1.401  0.00  0.00    -0.360 N 
ATOM     18  N   LIG    1       -2.168   0.087   2.396  0.00  0.00    -0.050 NA
ATOM     19  N   LIG    1       -2.867   0.048   3.476  0.00  0.00    -0.200 NA
BRANCH  17  20
ATOM     20  C   LIG    1       -2.513   0.978   0.019  0.00  0.00    +0.390 C 
BRANCH  20  21
ATOM     21  C   LIG    1       -1.219   1.750   0.017  0.00  0.00    -0.090 A 
ATOM     22  C   LIG    1       -0.013   1.076   0.008  0.00  0.00    +0.050 A 
ATOM     23  C   LIG    1        1.176   1.783   0.000  0.00  0.00    +0.050 A 
ATOM     24  C   LIG    1        1.158   3.164   0.007  0.00  0.00    +0.000 A 
ATOM     25  C   LIG    1       -0.050   3.841   0.022  0.00  0.00    +0.100 A 
ATOM     26  F   LIG    1       -0.068   5.192   0.030  0.00  0.00    -0.140 F 
ATOM     27  C   LIG    1       -1.239   3.132   0.030  0.00  0.00    +0.010 A 
ENDBRANCH  20  21
ENDBRANCH  17  20
ENDBRANCH   2  15
TORSDOF 4
