REMARK  Name = ZINCvU000000072G.0
REMARK                            x       y       z     vdW  Elec       q    Type
REMARK                         _______ _______ _______ _____ _____    ______ ____
ROOT
ATOM      1  N   LIG    1       -3.413   4.557  -0.722  0.00  0.00    -0.700 N 
ATOM      2  H   LIG    1       -4.325   4.260  -0.572  0.00  0.00    +0.410 HD
ATOM      3  C   LIG    1       -2.953   4.712  -1.979  0.00  0.00    +0.550 C 
ATOM      4  O   LIG    1       -1.814   5.084  -2.166  0.00  0.00    -0.510 OA
ENDROOT
BRANCH   1   5
ATOM      5  C   LIG    1       -2.538   4.838   0.419  0.00  0.00    +0.400 C 
BRANCH   5   6
ATOM      6  C   LIG    1       -3.376   5.191   1.621  0.00  0.00    -0.120 A 
ATOM      7  C   LIG    1       -4.677   4.735   1.714  0.00  0.00    +0.060 A 
ATOM      8  C   LIG    1       -5.447   5.060   2.816  0.00  0.00    +0.020 A 
ATOM      9  C   LIG    1       -4.915   5.841   3.825  0.00  0.00    +0.060 A 
ATOM     10  C   LIG    1       -3.614   6.298   3.734  0.00  0.00    -0.010 A 
ATOM     11  C   LIG    1       -2.841   5.968   2.634  0.00  0.00    +0.110 A 
ATOM     12  F   LIG    1       -1.567   6.410   2.546  0.00  0.00    -0.140 F 
ENDBRANCH   5   6
BRANCH   5  18
ATOM     13  C   LIG    1        0.500   4.782   1.022  0.00  0.00    +0.320 C 
ATOM     14  N   LIG    1       -0.383   3.613   0.988  0.00  0.00    -0.440 N 
ATOM     15  C   LIG    1       -0.019   2.313   1.214  0.00  0.00    +0.130 A 
ATOM     16  C   LIG    1       -1.134   1.569   1.083  0.00  0.00    +0.140 A 
ATOM     17  N   LIG    1       -2.149   2.391   0.781  0.00  0.00    -0.470 NA
ATOM     18  C   LIG    1       -1.708   3.618   0.727  0.00  0.00    +0.190 A 
ENDBRANCH   5  18
ENDBRANCH   1   5
BRANCH   3  19
ATOM     19  C   LIG    1       -3.854   4.424  -3.152  0.00  0.00    +0.050 C 
BRANCH  19  20
ATOM     20  C   LIG    1       -3.903   2.937  -3.394  0.00  0.00    -0.090 A 
ATOM     21  C   LIG    1       -2.750   2.253  -3.729  0.00  0.00    +0.040 A 
ATOM     22  C   LIG    1       -2.794   0.888  -3.947  0.00  0.00    +0.000 A 
ATOM     23  C   LIG    1       -3.993   0.210  -3.838  0.00  0.00    +0.010 A 
ATOM     24  C   LIG    1       -5.148   0.895  -3.508  0.00  0.00    +0.000 A 
ATOM     25  C   LIG    1       -5.103   2.259  -3.286  0.00  0.00    +0.020 A 
ENDBRANCH  19  20
BRANCH  19  26
ATOM     26  S   LIG    1       -3.208   5.255  -4.629  0.00  0.00    -0.060 S 
BRANCH  26  27
ATOM     27  C   LIG    1       -4.479   4.993  -5.820  0.00  0.00    -0.130 A 
ATOM     28  C   LIG    1       -4.391   3.930  -6.711  0.00  0.00    +0.070 A 
ATOM     29  C   LIG    1       -5.392   3.724  -7.639  0.00  0.00    +0.000 A 
ATOM     30  C   LIG    1       -6.476   4.581  -7.691  0.00  0.00    +0.040 A 
ATOM     31  C   LIG    1       -6.565   5.643  -6.809  0.00  0.00    +0.000 A 
ATOM     32  C   LIG    1       -5.570   5.852  -5.875  0.00  0.00    +0.060 A 
ENDBRANCH  26  27
ENDBRANCH  19  26
ENDBRANCH   3  19
TORSDOF 7
