REMARK  Name = ZINCrD000000Bhrm.0
REMARK                            x       y       z     vdW  Elec       q    Type
REMARK                         _______ _______ _______ _____ _____    ______ ____
ROOT
ATOM      1  C   LIG    1       -1.975   2.485   3.951  0.00  0.00    +0.220 A 
ATOM      2  C   LIG    1       -2.385   1.353   3.260  0.00  0.00    +0.010 A 
ATOM      3  C   LIG    1       -1.794   1.030   2.054  0.00  0.00    +0.150 A 
ATOM      4  C   LIG    1       -0.795   1.833   1.535  0.00  0.00    -0.680 A 
ATOM      5  C   LIG    1       -0.381   2.958   2.224  0.00  0.00    +0.150 A 
ATOM      6  C   LIG    1       -0.971   3.289   3.428  0.00  0.00    -0.030 A 
ENDROOT
BRANCH   1   9
ATOM      7  O   LIG    1       -2.770   0.675   5.735  0.00  0.00    -0.560 OA
ATOM      8  C   LIG    1       -2.994   1.840   6.002  0.00  0.00    +0.700 C 
ATOM      9  N   LIG    1       -2.572   2.815   5.173  0.00  0.00    -0.690 N 
ATOM     10  H   LIG    1       -2.682   3.746   5.424  0.00  0.00    +0.410 HD
ATOM     11  N   LIG    1       -3.664   2.155   7.128  0.00  0.00    -0.740 N 
ATOM     12  H   LIG    1       -3.844   3.085   7.342  0.00  0.00    +0.400 HD
BRANCH  11  13
ATOM     13  C   LIG    1       -4.123   1.095   8.029  0.00  0.00    +0.280 C 
BRANCH  13  14
ATOM     14  C   LIG    1       -4.851   1.719   9.222  0.00  0.00    +0.020 C 
ATOM     15  C   LIG    1       -6.211   2.315   8.777  0.00  0.00    +0.020 C 
ATOM     16  C   LIG    1       -7.031   2.316  10.091  0.00  0.00    +0.020 C 
ATOM     17  C   LIG    1       -6.616   1.009  10.799  0.00  0.00    +0.050 C 
ATOM     18  C   LIG    1       -5.234   0.637  10.246  0.00  0.00    -0.120 C 
ATOM     19  C   LIG    1       -4.175  -0.005  11.138  0.00  0.00    +0.020 C 
ATOM     20  C   LIG    1       -4.840  -0.821  10.026  0.00  0.00    +0.030 C 
ENDBRANCH  13  14
ENDBRANCH  11  13
ENDBRANCH   1   9
BRANCH   4  21
ATOM     21  S   LIG    1       -0.043   1.417  -0.003  0.00  0.00    +2.500 S 
ATOM     22  O   LIG    1        1.250   2.002   0.070  0.00  0.00    -0.940 OA
ATOM     23  O   LIG    1       -0.205   0.009  -0.103  0.00  0.00    -0.920 OA
BRANCH  21  24
ATOM     24  C   LIG    1       -1.056   2.265  -1.246  0.00  0.00    -0.330 C 
BRANCH  24  25
ATOM     25  C   LIG    1       -0.497   1.978  -2.641  0.00  0.00    +0.190 C 
ATOM     26  C   LIG    1       -1.282   2.786  -3.696  0.00  0.00    +0.030 C 
ATOM     27  C   LIG    1       -1.394   1.776  -4.870  0.00  0.00    +0.010 C 
ATOM     28  C   LIG    1       -1.514   0.439  -4.097  0.00  0.00    +0.210 C 
ATOM     29  O   LIG    1       -0.658   0.589  -2.953  0.00  0.00    -0.370 OA
ENDBRANCH  24  25
ENDBRANCH  21  24
ENDBRANCH   4  21
TORSDOF 6
