REMARK  Name = ZINCtV00000L6k2w.0
REMARK                            x       y       z     vdW  Elec       q    Type
REMARK                         _______ _______ _______ _____ _____    ______ ____
ROOT
ATOM      1  C   LIG    1       -0.640   1.855   0.967  0.00  0.00    +0.200 C 
ENDROOT
BRANCH   1   2
ATOM      2  C   LIG    1       -1.677   0.772   0.812  0.00  0.00    +0.030 A 
ATOM      3  N   LIG    1       -2.502   0.700  -0.162  0.00  0.00    -0.400 NA
ATOM      4  C   LIG    1       -3.373  -0.326  -0.174  0.00  0.00    +0.080 A 
ATOM      5  C   LIG    1       -4.375  -0.647  -1.113  0.00  0.00    +0.090 A 
ATOM      6  C   LIG    1       -5.164  -1.742  -0.933  0.00  0.00    +0.030 A 
ATOM      7  C   LIG    1       -4.998  -2.562   0.174  0.00  0.00    +0.050 A 
ATOM      8  C   LIG    1       -4.029  -2.274   1.108  0.00  0.00    +0.050 A 
ATOM      9  C   LIG    1       -3.212  -1.158   0.941  0.00  0.00    -0.180 A 
ATOM     10  S   LIG    1       -1.901  -0.507   1.919  0.00  0.00    +0.150 S 
ENDBRANCH   1   2
BRANCH   1  11
ATOM     11  C   LIG    1        0.712   1.343   0.467  0.00  0.00    +0.470 C 
ATOM     12  F   LIG    1        0.558   0.789  -0.809  0.00  0.00    -0.140 F 
ATOM     13  F   LIG    1        1.621   2.405   0.408  0.00  0.00    -0.170 F 
ATOM     14  F   LIG    1        1.193   0.365   1.344  0.00  0.00    -0.170 F 
ENDBRANCH   1  11
BRANCH   1  15
ATOM     15  O   LIG    1       -0.532   2.217   2.345  0.00  0.00    -0.590 OA
BRANCH  15  17
ATOM     16  C   LIG    1       -3.383   2.324   2.209  0.00  0.00    -0.290 C 
ATOM     17 SI   LIG    1       -1.817   3.043   2.917  0.00  0.00    +1.230 Si
ATOM     18  C   LIG    1       -1.676   4.833   2.420  0.00  0.00    -0.280 C 
ATOM     19  C   LIG    1       -1.860   2.917   4.775  0.00  0.00    -0.220 C 
ENDBRANCH  15  17
ENDBRANCH   1  15
BRANCH   1  20
ATOM     20  C   LIG    1       -1.056   3.080   0.149  0.00  0.00    +0.060 C 
BRANCH  20  21
ATOM     21  C   LIG    1       -1.129   2.708  -1.309  0.00  0.00    +0.370 C 
ATOM     22  O   LIG    1       -1.026   1.547  -1.645  0.00  0.00    -0.350 OA
BRANCH  21  23
ATOM     23  C   LIG    1       -1.327   3.753  -2.325  0.00  0.00    -0.130 A 
ATOM     24  C   LIG    1       -1.447   5.093  -1.942  0.00  0.00    +0.060 A 
ATOM     25  C   LIG    1       -1.631   6.066  -2.901  0.00  0.00    +0.020 A 
ATOM     26  C   LIG    1       -1.698   5.721  -4.240  0.00  0.00    +0.050 A 
ATOM     27  C   LIG    1       -1.581   4.399  -4.628  0.00  0.00    +0.040 A 
ATOM     28  C   LIG    1       -1.390   3.412  -3.682  0.00  0.00    -0.040 A 
ATOM     29 BR   LIG    1       -1.222   1.606  -4.215  0.00  0.00    -0.010 Br
ENDBRANCH  21  23
ENDBRANCH  20  21
ENDBRANCH   1  20
TORSDOF 7
