REMARK  Name = ZINCqH0000008lW0.0
REMARK                            x       y       z     vdW  Elec       q    Type
REMARK                         _______ _______ _______ _____ _____    ______ ____
ROOT
ATOM      1  C   LIG    1        0.174   0.961   2.735  0.00  0.00    +0.240 A 
ATOM      2  N   LIG    1        1.242   0.220   2.524  0.00  0.00    -0.530 NA
ATOM      3  C   LIG    1        1.778  -0.140   3.690  0.00  0.00    +0.270 A 
ATOM      4  N   LIG    1        1.060   0.354   4.663  0.00  0.00    -0.300 NA
ATOM      5  N   LIG    1        0.009   1.075   4.074  0.00  0.00    -0.310 N 
ENDROOT
BRANCH   5   6
ATOM      6  C   LIG    1       -1.007   1.775   4.739  0.00  0.00    +0.140 A 
ATOM      7  C   LIG    1       -1.502   2.957   4.205  0.00  0.00    +0.020 A 
ATOM      8  C   LIG    1       -2.508   3.641   4.860  0.00  0.00    +0.050 A 
ATOM      9  C   LIG    1       -3.013   3.156   6.052  0.00  0.00    +0.020 A 
ATOM     10  C   LIG    1       -2.518   1.982   6.590  0.00  0.00    +0.040 A 
ATOM     11  C   LIG    1       -1.516   1.290   5.936  0.00  0.00    +0.030 A 
ENDBRANCH   5   6
BRANCH   3  12
ATOM     12  C   LIG    1        3.013  -0.987   3.859  0.00  0.00    +0.050 C 
ATOM     13  C   LIG    1        3.832  -1.301   2.605  0.00  0.00    +0.060 C 
ATOM     14  C   LIG    1        2.990  -2.396   3.264  0.00  0.00    +0.060 C 
ENDBRANCH   3  12
BRANCH   1  15
ATOM     15  S   LIG    1       -0.860   1.669   1.497  0.00  0.00    +0.110 S 
BRANCH  15  16
ATOM     16  C   LIG    1       -0.013   1.086   0.008  0.00  0.00    +0.100 C 
BRANCH  16  19
ATOM     17  N   LIG    1       -0.288   1.272  -2.443  0.00  0.00    -0.720 N 
ATOM     18  H   LIG    1        0.507   0.726  -2.543  0.00  0.00    +0.410 HD
ATOM     19  C   LIG    1       -0.742   1.585  -1.213  0.00  0.00    +0.540 C 
ATOM     20  O   LIG    1       -1.736   2.268  -1.088  0.00  0.00    -0.520 OA
BRANCH  17  22
ATOM     21  C   LIG    1       -2.141   0.800  -3.968  0.00  0.00    +0.040 C 
ATOM     22  C   LIG    1       -0.997   1.758  -3.630  0.00  0.00    +0.350 C 
BRANCH  22  23
ATOM     23  C   LIG    1       -0.041   1.828  -4.792  0.00  0.00    -0.030 A 
ATOM     24  C   LIG    1        0.001   2.801  -5.719  0.00  0.00    -0.040 A 
ATOM     25  C   LIG    1        1.044   2.471  -6.615  0.00  0.00    -0.060 A 
ATOM     26  C   LIG    1        1.572   1.310  -6.186  0.00  0.00    +0.180 A 
ATOM     27  O   LIG    1        0.911   0.925  -5.082  0.00  0.00    -0.170 OA
ENDBRANCH  22  23
ENDBRANCH  17  22
ENDBRANCH  16  19
ENDBRANCH  15  16
ENDBRANCH   1  15
TORSDOF 7
