REMARK  Name = ZINCAx0000000iJE.0
REMARK                            x       y       z     vdW  Elec       q    Type
REMARK                         _______ _______ _______ _____ _____    ______ ____
ROOT
ATOM      1  N   LIG    1        3.895   0.540  -1.400  0.00  0.00    -0.470 N 
ATOM      2  C   LIG    1        4.436   1.086  -2.651  0.00  0.00    +0.220 C 
ATOM      3  C   LIG    1        3.299   1.294  -3.653  0.00  0.00    +0.030 C 
ATOM      4  C   LIG    1        2.605  -0.045  -3.917  0.00  0.00    +0.260 C 
ATOM      5  C   LIG    1        2.093  -0.617  -2.592  0.00  0.00    +0.030 C 
ATOM      6  C   LIG    1        3.266  -0.769  -1.621  0.00  0.00    +0.230 C 
ENDROOT
BRANCH   1  11
ATOM      7  N   LIG    1        4.917   1.159   0.731  0.00  0.00    -0.350 N 
ATOM      8  N   LIG    1        6.093   0.737   1.375  0.00  0.00    -0.070 NA
ATOM      9  N   LIG    1        6.648  -0.136   0.605  0.00  0.00    -0.030 NA
ATOM     10  N   LIG    1        5.940  -0.311  -0.453  0.00  0.00    -0.340 NA
ATOM     11  C   LIG    1        4.876   0.461  -0.428  0.00  0.00    +0.410 A 
BRANCH   7  12
ATOM     12  C   LIG    1        3.945   2.143   1.211  0.00  0.00    +0.340 C 
BRANCH  12  16
ATOM     13  C   LIG    1        4.952   6.343   0.947  0.00  0.00    -0.010 C 
ATOM     14  C   LIG    1        3.558   5.906   0.492  0.00  0.00    +0.050 C 
ATOM     15  C   LIG    1        3.234   4.535   1.090  0.00  0.00    +0.040 C 
ATOM     16  C   LIG    1        4.269   3.514   0.614  0.00  0.00    -0.020 C 
ATOM     17  C   LIG    1        5.663   3.951   1.068  0.00  0.00    +0.020 C 
ATOM     18  C   LIG    1        5.987   5.322   0.471  0.00  0.00    +0.030 C 
BRANCH  13  22
ATOM     19  N   LIG    1        6.455   8.281   0.624  0.00  0.00    -0.860 N 
ATOM     20  H   LIG    1        6.661   9.151   0.245  0.00  0.00    +0.400 HD
ATOM     21  H   LIG    1        7.101   7.836   1.194  0.00  0.00    +0.400 HD
ATOM     22  C   LIG    1        5.272   7.694   0.358  0.00  0.00    +0.520 C 
ATOM     23  O   LIG    1        4.464   8.251  -0.354  0.00  0.00    -0.540 OA
ENDBRANCH  13  22
ENDBRANCH  12  16
ENDBRANCH   7  12
ENDBRANCH   1  11
BRANCH   4  24
ATOM     24  N   LIG    1        1.478   0.159  -4.831  0.00  0.00    -0.640 N 
ATOM     25  C   LIG    1        0.278   0.535  -4.347  0.00  0.00    +0.590 C 
ATOM     26  O   LIG    1       -0.736   0.007  -4.758  0.00  0.00    -0.480 OA
BRANCH  25  27
ATOM     27  C   LIG    1        0.195   1.591  -3.317  0.00  0.00    -0.200 A 
ATOM     28  C   LIG    1        1.200   1.713  -2.356  0.00  0.00    +0.100 A 
ATOM     29  C   LIG    1        1.117   2.700  -1.397  0.00  0.00    -0.010 A 
ATOM     30  C   LIG    1        0.040   3.570  -1.384  0.00  0.00    +0.080 A 
ATOM     31  C   LIG    1       -0.961   3.456  -2.331  0.00  0.00    -0.030 A 
ATOM     32  C   LIG    1       -0.888   2.476  -3.303  0.00  0.00    +0.160 A 
ATOM     33  F   LIG    1       -1.863   2.369  -4.232  0.00  0.00    -0.120 F 
ENDBRANCH  25  27
BRANCH  24  34
ATOM     34  C   LIG    1        1.655  -0.053  -6.270  0.00  0.00    +0.340 C 
BRANCH  34  35
ATOM     35  C   LIG    1        1.907   1.291  -6.956  0.00  0.00    +0.430 C 
ATOM     36  F   LIG    1        0.815   2.138  -6.739  0.00  0.00    -0.180 F 
ATOM     37  F   LIG    1        2.075   1.089  -8.330  0.00  0.00    -0.180 F 
ATOM     38  F   LIG    1        3.062   1.875  -6.426  0.00  0.00    -0.180 F 
ENDBRANCH  34  35
ENDBRANCH  24  34
ENDBRANCH   4  24
TORSDOF 8
