REMARK  Name = ZINCqH0000007jJ2.0
REMARK                            x       y       z     vdW  Elec       q    Type
REMARK                         _______ _______ _______ _____ _____    ______ ____
ROOT
ATOM      1  N   LIG    1       -1.297  -0.499  -0.423  0.00  0.00    -0.660 N 
ATOM      2  H   LIG    1       -2.031   0.136  -0.404  0.00  0.00    +0.420 HD
ATOM      3  C   LIG    1       -1.543  -1.807  -0.633  0.00  0.00    +0.510 C 
ATOM      4  O   LIG    1       -0.639  -2.613  -0.561  0.00  0.00    -0.520 OA
ENDROOT
BRANCH   1  10
ATOM      5  C   LIG    1        0.259   1.157   0.412  0.00  0.00    +0.080 A 
ATOM      6  C   LIG    1        1.560   1.595   0.600  0.00  0.00    -0.030 A 
ATOM      7  C   LIG    1        2.619   0.831   0.148  0.00  0.00    +0.040 A 
ATOM      8  C   LIG    1        2.384  -0.377  -0.494  0.00  0.00    +0.130 A 
ATOM      9  C   LIG    1        1.082  -0.820  -0.685  0.00  0.00    +0.030 A 
ATOM     10  C   LIG    1        0.018  -0.055  -0.232  0.00  0.00    +0.140 A 
BRANCH   8  11
ATOM     11  N   LIG    1        3.460  -1.149  -0.951  0.00  0.00    -0.670 N 
ATOM     12  H   LIG    1        3.400  -2.117  -0.943  0.00  0.00    +0.410 HD
ATOM     13  C   LIG    1        4.577  -0.547  -1.403  0.00  0.00    +0.510 C 
ATOM     14  O   LIG    1        4.617   0.661  -1.504  0.00  0.00    -0.530 OA
ATOM     15  C   LIG    1        5.779  -1.374  -1.782  0.00  0.00    +0.110 C 
ENDBRANCH   8  11
BRANCH   5  17
ATOM     16  C   LIG    1       -0.463   3.143   1.504  0.00  0.00    +0.250 C 
ATOM     17  O   LIG    1       -0.783   1.913   0.853  0.00  0.00    -0.320 OA
ENDBRANCH   5  17
ENDBRANCH   1  10
BRANCH   3  18
ATOM     18  C   LIG    1       -2.940  -2.269  -0.957  0.00  0.00    +0.070 C 
BRANCH  18  19
ATOM     19  C   LIG    1       -2.944  -3.787  -1.147  0.00  0.00    +0.130 C 
BRANCH  19  20
ATOM     20  C   LIG    1       -4.342  -4.249  -1.471  0.00  0.00    -0.170 A 
ATOM     21  C   LIG    1       -5.252  -4.712  -0.600  0.00  0.00    +0.230 A 
ATOM     22  N   LIG    1       -6.407  -5.035  -1.259  0.00  0.00    -0.600 N 
ATOM     23  H   LIG    1       -7.207  -5.390  -0.841  0.00  0.00    +0.420 HD
ATOM     24  C   LIG    1       -6.265  -4.780  -2.605  0.00  0.00    +0.090 A 
ATOM     25  C   LIG    1       -7.109  -4.922  -3.701  0.00  0.00    -0.010 A 
ATOM     26  C   LIG    1       -6.665  -4.570  -4.957  0.00  0.00    +0.030 A 
ATOM     27  C   LIG    1       -5.382  -4.074  -5.141  0.00  0.00    -0.030 A 
ATOM     28  C   LIG    1       -4.536  -3.926  -4.078  0.00  0.00    +0.050 A 
ATOM     29  C   LIG    1       -4.967  -4.271  -2.796  0.00  0.00    -0.100 A 
ENDBRANCH  19  20
ENDBRANCH  18  19
ENDBRANCH   3  18
TORSDOF 6
