REMARK  Name = ZINCrH000004plmf.0
REMARK                            x       y       z     vdW  Elec       q    Type
REMARK                         _______ _______ _______ _____ _____    ______ ____
ROOT
ATOM      1  C   LIG    1        0.645   8.243   1.864  0.00  0.00    +0.040 C 
ATOM      2  C   LIG    1        0.844   7.844   0.400  0.00  0.00    +0.300 C 
ENDROOT
BRANCH   2   3
ATOM      3  C   LIG    1        0.922   6.343   0.295  0.00  0.00    -0.110 A 
ATOM      4  C   LIG    1        2.154   5.722   0.185  0.00  0.00    +0.040 A 
ATOM      5  C   LIG    1        2.229   4.346   0.089  0.00  0.00    +0.020 A 
ATOM      6  C   LIG    1        1.067   3.586   0.102  0.00  0.00    +0.140 A 
ATOM      7  C   LIG    1       -0.168   4.213   0.206  0.00  0.00    -0.010 A 
ATOM      8  C   LIG    1       -0.236   5.589   0.308  0.00  0.00    +0.030 A 
BRANCH   6   9
ATOM      9  N   LIG    1        1.139   2.192   0.003  0.00  0.00    -0.670 N 
ATOM     10  H   LIG    1        0.453   1.704  -0.477  0.00  0.00    +0.410 HD
ATOM     11  C   LIG    1        2.164   1.529   0.575  0.00  0.00    +0.540 C 
ATOM     12  O   LIG    1        3.064   2.145   1.106  0.00  0.00    -0.520 OA
BRANCH  11  13
ATOM     13  C   LIG    1        2.189   0.022   0.559  0.00  0.00    -0.070 C 
ATOM     14  C   LIG    1        2.001  -0.701   1.894  0.00  0.00    +0.060 C 
ATOM     15  C   LIG    1        3.378  -0.672   1.226  0.00  0.00    +0.080 C 
ENDBRANCH  11  13
ENDBRANCH   6   9
ENDBRANCH   2   3
BRANCH   2  16
ATOM     16  N   LIG    1       -0.285   8.331  -0.396  0.00  0.00    -0.740 N 
ATOM     17  H   LIG    1       -1.037   7.747  -0.580  0.00  0.00    +0.390 HD
ATOM     18  C   LIG    1       -0.279   9.592  -0.873  0.00  0.00    +0.710 C 
ATOM     19  N   LIG    1       -1.317  10.040  -1.606  0.00  0.00    -0.750 N 
ATOM     20  H   LIG    1       -2.069   9.455  -1.790  0.00  0.00    +0.400 HD
ATOM     21  O   LIG    1        0.663  10.325  -0.642  0.00  0.00    -0.590 OA
BRANCH  19  22
ATOM     22  C   LIG    1       -1.311  11.410  -2.124  0.00  0.00    +0.280 C 
BRANCH  22  23
ATOM     23  C   LIG    1       -2.596  11.662  -2.916  0.00  0.00    +0.080 C 
BRANCH  23  24
ATOM     24  C   LIG    1       -2.589  13.071  -3.449  0.00  0.00    -0.120 A 
ATOM     25  C   LIG    1       -2.240  13.311  -4.764  0.00  0.00    +0.040 A 
ATOM     26  C   LIG    1       -2.234  14.604  -5.254  0.00  0.00    +0.000 A 
ATOM     27  C   LIG    1       -2.577  15.658  -4.428  0.00  0.00    +0.040 A 
ATOM     28  C   LIG    1       -2.926  15.421  -3.112  0.00  0.00    -0.010 A 
ATOM     29  C   LIG    1       -2.939  14.126  -2.623  0.00  0.00    +0.100 A 
ATOM     30  F   LIG    1       -3.286  13.893  -1.338  0.00  0.00    -0.140 F 
ENDBRANCH  23  24
ENDBRANCH  22  23
ENDBRANCH  19  22
ENDBRANCH   2  16
TORSDOF 7
