REMARK  Name = ZINCrg00000BdBl2.0
REMARK                            x       y       z     vdW  Elec       q    Type
REMARK                         _______ _______ _______ _____ _____    ______ ____
ROOT
ATOM      1  S   LIG    1       -1.261   0.520  -2.337  0.00  0.00    +2.610 S 
ATOM      2  O   LIG    1       -0.262  -0.467  -2.119  0.00  0.00    -0.940 OA
ATOM      3  O   LIG    1       -1.406   1.148  -3.604  0.00  0.00    -0.940 OA
ENDROOT
BRANCH   1   9
ATOM      4  O   LIG    1        1.788   4.616   1.308  0.00  0.00    -0.540 OA
ATOM      5  C   LIG    1        1.063   4.832   0.360  0.00  0.00    +0.550 C 
ATOM      6  N   LIG    1        0.725   3.827  -0.472  0.00  0.00    -0.610 N 
ATOM      7  C   LIG    1       -0.155   4.076  -1.624  0.00  0.00    +0.280 C 
ATOM      8  C   LIG    1       -1.349   3.117  -1.544  0.00  0.00    +0.280 C 
ATOM      9  N   LIG    1       -0.846   1.755  -1.315  0.00  0.00    -1.000 NA
ATOM     10  C   LIG    1        0.031   1.508  -0.162  0.00  0.00    +0.290 C 
ATOM     11  C   LIG    1        1.227   2.465  -0.243  0.00  0.00    +0.290 C 
BRANCH   5  12
ATOM     12  C   LIG    1        0.540   6.223   0.112  0.00  0.00    -0.070 C 
ATOM     13  C   LIG    1        1.548   7.290  -0.320  0.00  0.00    +0.060 C 
ATOM     14  C   LIG    1        0.960   7.321   1.092  0.00  0.00    +0.060 C 
ENDBRANCH   5  12
ENDBRANCH   1   9
BRANCH   1  15
ATOM     15  C   LIG    1       -2.869  -0.055  -1.724  0.00  0.00    -0.470 C 
ATOM     16  C   LIG    1       -2.726  -0.518  -0.273  0.00  0.00    +0.070 C 
ATOM     17  C   LIG    1       -4.088  -0.972   0.256  0.00  0.00    +0.030 C 
ATOM     18  C   LIG    1       -4.588  -2.153  -0.582  0.00  0.00    +0.280 C 
ATOM     19  N   LIG    1       -4.591  -1.762  -1.998  0.00  0.00    -0.610 N 
ATOM     20  C   LIG    1       -5.705  -1.893  -2.745  0.00  0.00    +0.520 C 
ATOM     21  O   LIG    1       -5.694  -1.567  -3.913  0.00  0.00    -0.530 OA
ATOM     22  C   LIG    1       -3.355  -1.226  -2.584  0.00  0.00    +0.320 C 
BRANCH  20  23
ATOM     23  C   LIG    1       -6.965  -2.445  -2.128  0.00  0.00    -0.010 C 
ATOM     24  C   LIG    1       -6.727  -3.890  -1.646  0.00  0.00    +0.030 C 
ATOM     25  C   LIG    1       -8.061  -4.617  -1.953  0.00  0.00    +0.020 C 
ATOM     26  C   LIG    1       -8.486  -3.994  -3.307  0.00  0.00    +0.010 C 
ATOM     27  C   LIG    1       -8.082  -2.510  -3.184  0.00  0.00    +0.040 C 
ENDBRANCH  20  23
ENDBRANCH   1  15
TORSDOF 4
