REMARK  Name = ZINCnE000001SAin.0
REMARK                            x       y       z     vdW  Elec       q    Type
REMARK                         _______ _______ _______ _____ _____    ______ ____
ROOT
ATOM      1  C   LIG    1       -4.627   0.444   0.028  0.00  0.00    +0.000 A 
ATOM      2  C   LIG    1       -3.818   1.544   0.029  0.00  0.00    -0.010 A 
ATOM      3  C   LIG    1       -2.505   1.000   0.020  0.00  0.00    +0.030 A 
ATOM      4  N   LIG    1       -2.647  -0.302   0.008  0.00  0.00    -0.350 NA
ATOM      5  O   LIG    1       -3.811  -0.626   0.018  0.00  0.00    +0.140 OA
ENDROOT
BRANCH   3   6
ATOM      6  C   LIG    1       -1.228   1.757   0.017  0.00  0.00    +0.020 A 
ATOM      7  C   LIG    1       -0.013   1.076   0.008  0.00  0.00    +0.030 A 
ATOM      8  C   LIG    1        1.173   1.783   0.000  0.00  0.00    +0.050 A 
ATOM      9  C   LIG    1        1.157   3.166   0.007  0.00  0.00    -0.010 A 
ATOM     10  C   LIG    1       -0.048   3.849   0.022  0.00  0.00    +0.100 A 
ATOM     11  F   LIG    1       -0.058   5.200   0.028  0.00  0.00    -0.140 F 
ATOM     12  C   LIG    1       -1.241   3.150   0.029  0.00  0.00    +0.010 A 
ENDBRANCH   3   6
BRANCH   1  14
ATOM     13  O   LIG    1       -6.724   1.482   0.044  0.00  0.00    -0.540 OA
ATOM     14  C   LIG    1       -6.105   0.431   0.035  0.00  0.00    +0.540 C 
BRANCH  14  15
ATOM     15  N   LIG    1       -6.762  -0.731   0.033  0.00  0.00    -0.650 NA
ATOM     16  C   LIG    1       -8.095  -0.742   0.040  0.00  0.00    +0.330 A 
ATOM     17  N   LIG    1       -8.920   0.323   0.050  0.00  0.00    -0.400 NA
ATOM     18  N   LIG    1      -10.271   0.055   0.056  0.00  0.00    -0.280 NA
ATOM     19  C   LIG    1      -10.630  -1.186   0.051  0.00  0.00    +0.020 A 
ATOM     20  S   LIG    1       -9.126  -2.122   0.031  0.00  0.00    -0.040 S 
BRANCH  19  21
ATOM     21  C   LIG    1      -12.037  -1.726   0.056  0.00  0.00    +0.060 C 
ATOM     22  C   LIG    1      -13.053  -1.059  -0.874  0.00  0.00    +0.040 C 
ATOM     23  C   LIG    1      -13.135  -0.833   0.638  0.00  0.00    +0.040 C 
ENDBRANCH  19  21
ENDBRANCH  14  15
ENDBRANCH   1  14
TORSDOF 4
