REMARK  Name = ZINCqH00000365Wi.0
REMARK                            x       y       z     vdW  Elec       q    Type
REMARK                         _______ _______ _______ _____ _____    ______ ____
ROOT
ATOM      1  C   LIG    1       -2.515   1.354   0.122  0.00  0.00    +0.270 C 
ATOM      2  C   LIG    1       -3.507   2.536   0.120  0.00  0.00    +0.050 C 
ATOM      3  C   LIG    1       -2.627   3.730   0.576  0.00  0.00    +0.040 C 
ATOM      4  C   LIG    1       -1.269   3.386  -0.083  0.00  0.00    +0.250 C 
ATOM      5  N   LIG    1       -1.162   1.919   0.017  0.00  0.00    -0.600 N 
ATOM      6  C   LIG    1       -0.014   1.212   0.009  0.00  0.00    +0.600 C 
ATOM      7  O   LIG    1       -0.049  -0.004   0.008  0.00  0.00    -0.500 OA
ENDROOT
BRANCH   6   8
ATOM      8  C   LIG    1        1.281   1.912  -0.005  0.00  0.00    -0.250 A 
ATOM      9  C   LIG    1        1.804   2.441  -1.178  0.00  0.00    +0.190 A 
ATOM     10  C   LIG    1        3.071   3.078  -1.112  0.00  0.00    -0.160 A 
ATOM     11  C   LIG    1        3.551   3.822  -2.199  0.00  0.00    +0.090 A 
ATOM     12  C   LIG    1        4.744   4.478  -2.098  0.00  0.00    +0.000 A 
ATOM     13  C   LIG    1        5.492   4.406  -0.931  0.00  0.00    +0.080 A 
ATOM     14  C   LIG    1        5.051   3.659   0.141  0.00  0.00    +0.020 A 
ATOM     15  C   LIG    1        3.845   2.976   0.059  0.00  0.00    +0.140 A 
ATOM     16  O   LIG    1        3.417   2.217   1.096  0.00  0.00    -0.270 OA
ATOM     17  C   LIG    1        2.079   2.075   1.224  0.00  0.00    +0.530 A 
ATOM     18  O   LIG    1        1.549   2.082   2.319  0.00  0.00    -0.430 OA
ENDBRANCH   6   8
BRANCH   1  22
ATOM     19  C   LIG    1       -3.285  -1.203  -3.215  0.00  0.00    +0.130 A 
ATOM     20  C   LIG    1       -3.745  -1.550  -1.953  0.00  0.00    -0.020 A 
ATOM     21  C   LIG    1       -3.495  -0.722  -0.876  0.00  0.00    +0.070 A 
ATOM     22  C   LIG    1       -2.787   0.452  -1.055  0.00  0.00    -0.120 A 
ATOM     23  C   LIG    1       -2.332   0.803  -2.313  0.00  0.00    +0.060 A 
ATOM     24  C   LIG    1       -2.574  -0.024  -3.392  0.00  0.00    -0.080 A 
BRANCH  19  26
ATOM     25  C   LIG    1       -3.025  -1.595  -5.546  0.00  0.00    +0.240 C 
ATOM     26  O   LIG    1       -3.529  -2.016  -4.276  0.00  0.00    -0.320 OA
ENDBRANCH  19  26
ENDBRANCH   1  22
TORSDOF 3
