REMARK  Name = ZINCnE00000hdaP5.0
REMARK                            x       y       z     vdW  Elec       q    Type
REMARK                         _______ _______ _______ _____ _____    ______ ____
ROOT
ATOM      1  C   LIG    1       -1.224   2.023   0.019  0.00  0.00    -0.090 A 
ATOM      2  C   LIG    1       -0.016   1.347   0.009  0.00  0.00    +0.130 A 
ATOM      3  C   LIG    1        1.173   2.056   0.002  0.00  0.00    -0.020 A 
ATOM      4  C   LIG    1        1.154   3.438   0.010  0.00  0.00    +0.080 A 
ATOM      5  C   LIG    1       -0.052   4.113   0.025  0.00  0.00    -0.130 A 
ATOM      6  F   LIG    1        0.002  -0.004   0.002  0.00  0.00    -0.130 F 
ATOM      7  C   LIG    1       -1.241   3.406   0.032  0.00  0.00    +0.010 A 
ATOM      8 CL   LIG    1       -2.756   4.255   0.050  0.00  0.00    -0.020 Cl
ENDROOT
BRANCH   5   9
ATOM      9  C   LIG    1       -0.071   5.620   0.034  0.00  0.00    +0.380 C 
ATOM     10  O   LIG    1       -0.415   6.106  -1.275  0.00  0.00    -0.360 OA
ATOM     11  C   LIG    1        0.367   7.311  -1.441  0.00  0.00    +0.200 C 
ATOM     12  C   LIG    1        1.683   6.931  -0.717  0.00  0.00    +0.200 C 
ATOM     13  O   LIG    1        1.228   6.116   0.381  0.00  0.00    -0.380 OA
ENDBRANCH   5   9
BRANCH   1  14
ATOM     14  C   LIG    1       -2.519   1.253   0.021  0.00  0.00    +0.250 C 
BRANCH  14  19
ATOM     15  C   LIG    1       -5.675   2.095   3.204  0.00  0.00    +0.080 A 
ATOM     16  N   LIG    1       -5.919   2.681   2.080  0.00  0.00    -0.300 NA
ATOM     17  N   LIG    1       -4.890   2.352   1.185  0.00  0.00    -0.520 NA
ATOM     18  C   LIG    1       -4.029   1.533   1.867  0.00  0.00    +0.440 A 
ATOM     19  N   LIG    1       -2.932   0.996   1.403  0.00  0.00    -0.690 NA
ATOM     20  O   LIG    1       -4.535   1.382   3.109  0.00  0.00    -0.300 OA
BRANCH  15  21
ATOM     21  C   LIG    1       -6.539   2.188   4.435  0.00  0.00    +0.140 C 
BRANCH  21  23
ATOM     22  C   LIG    1       -8.623   3.178   5.395  0.00  0.00    +0.000 C 
ATOM     23  C   LIG    1       -7.746   3.083   4.145  0.00  0.00    +0.030 C 
ENDBRANCH  21  23
ENDBRANCH  15  21
ENDBRANCH  14  19
ENDBRANCH   1  14
TORSDOF 5
