REMARK  Name = ZINC570000002ysJ.0
REMARK                            x       y       z     vdW  Elec       q    Type
REMARK                         _______ _______ _______ _____ _____    ______ ____
ROOT
ATOM      1  C   LIG    1       -0.018   1.468   0.010  0.00  0.00    +0.360 C 
ENDROOT
BRANCH   1   3
ATOM      2  C   LIG    1       -0.761   3.352   1.292  0.00  0.00    +0.220 C 
ATOM      3  O   LIG    1       -0.687   1.929   1.186  0.00  0.00    -0.390 OA
ENDBRANCH   1   3
BRANCH   1   4
ATOM      4  C   LIG    1        0.002  -0.004   0.002  0.00  0.00    +0.210 C 
ATOM      5  N   LIG    1        0.018  -1.140  -0.004  0.00  0.00    -0.400 NA
ENDBRANCH   1   4
TORSDOF 2
