REMARK  Name = ZINCvU0000000HEO.0
REMARK                            x       y       z     vdW  Elec       q    Type
REMARK                         _______ _______ _______ _____ _____    ______ ____
ROOT
ATOM      1  C   LIG    1       -4.211   1.034  -1.239  0.00  0.00    +0.140 C 
ATOM      2  C   LIG    1       -4.578   1.389   0.179  0.00  0.00    +0.200 A 
ATOM      3  C   LIG    1       -3.695   1.145   1.192  0.00  0.00    -0.260 A 
ATOM      4  C   LIG    1       -4.057   1.490   2.506  0.00  0.00    +0.530 A 
ATOM      5  N   LIG    1       -5.268   2.045   2.722  0.00  0.00    -0.620 N 
ATOM      6  H   LIG    1       -5.539   2.290   3.621  0.00  0.00    +0.420 HD
ATOM      7  C   LIG    1       -6.110   2.259   1.673  0.00  0.00    +0.360 A 
ATOM      8  O   LIG    1       -3.290   1.290   3.434  0.00  0.00    -0.530 OA
ATOM      9  N   LIG    1       -5.763   1.933   0.443  0.00  0.00    -0.540 NA
ENDROOT
BRANCH   7  10
ATOM     10  S   LIG    1       -7.690   2.984   1.964  0.00  0.00    +0.000 S 
BRANCH  10  11
ATOM     11  C   LIG    1       -8.334   3.021   0.273  0.00  0.00    +0.170 C 
BRANCH  11  12
ATOM     12  C   LIG    1       -9.717   3.619   0.276  0.00  0.00    -0.090 A 
ATOM     13  C   LIG    1      -10.823   2.804   0.427  0.00  0.00    +0.030 A 
ATOM     14  C   LIG    1      -12.092   3.353   0.435  0.00  0.00    +0.010 A 
ATOM     15  C   LIG    1      -12.255   4.717   0.280  0.00  0.00    +0.020 A 
ATOM     16  C   LIG    1      -11.149   5.532   0.124  0.00  0.00    +0.010 A 
ATOM     17  C   LIG    1       -9.881   4.984   0.122  0.00  0.00    +0.030 A 
ENDBRANCH  11  12
ENDBRANCH  10  11
ENDBRANCH   7  10
BRANCH   3  18
ATOM     18  C   LIG    1       -2.353   0.523   0.905  0.00  0.00    +0.140 C 
BRANCH  18  19
ATOM     19  C   LIG    1       -1.304   1.625   0.743  0.00  0.00    +0.060 C 
BRANCH  19  20
ATOM     20  C   LIG    1        0.038   1.003   0.456  0.00  0.00    +0.520 C 
ATOM     21  N   LIG    1        1.118   1.788   0.270  0.00  0.00    -0.730 N 
ATOM     22  H   LIG    1        1.032   2.752   0.325  0.00  0.00    +0.400 HD
ATOM     23  O   LIG    1        0.145  -0.203   0.388  0.00  0.00    -0.530 OA
BRANCH  21  24
ATOM     24  C   LIG    1        2.422   1.183  -0.015  0.00  0.00    +0.290 C 
ATOM     25  C   LIG    1        2.564   0.965  -1.522  0.00  0.00    +0.040 C 
BRANCH  24  26
ATOM     26  C   LIG    1        3.517   2.101   0.466  0.00  0.00    -0.080 A 
ATOM     27  C   LIG    1        3.295   3.463   0.539  0.00  0.00    +0.050 A 
ATOM     28  C   LIG    1        4.298   4.305   0.980  0.00  0.00    +0.040 A 
ATOM     29  C   LIG    1        5.526   3.784   1.348  0.00  0.00    -0.030 A 
ATOM     30  C   LIG    1        5.749   2.421   1.276  0.00  0.00    +0.050 A 
ATOM     31 CL   LIG    1        6.786   4.842   1.902  0.00  0.00    -0.050 Cl
ATOM     32  C   LIG    1        4.743   1.578   0.839  0.00  0.00    -0.020 A 
ATOM     33 CL   LIG    1        5.019  -0.133   0.754  0.00  0.00    -0.040 Cl
ENDBRANCH  24  26
ENDBRANCH  21  24
ENDBRANCH  19  20
ENDBRANCH  18  19
ENDBRANCH   3  18
TORSDOF 8
