REMARK  Name = ZINCtV00001bB3lX.0
REMARK                            x       y       z     vdW  Elec       q    Type
REMARK                         _______ _______ _______ _____ _____    ______ ____
ROOT
ATOM      1  C   LIG    1       -1.490   5.880  -0.136  0.00  0.00    +0.100 A 
ATOM      2  C   LIG    1       -1.737   7.234  -0.231  0.00  0.00    +0.000 A 
ATOM      3  C   LIG    1       -0.753   8.151   0.162  0.00  0.00    -0.090 A 
ATOM      4  C   LIG    1        0.476   7.687   0.648  0.00  0.00    +0.060 A 
ATOM      5  C   LIG    1        0.711   6.333   0.745  0.00  0.00    -0.040 A 
ATOM      6  C   LIG    1       -0.263   5.426   0.350  0.00  0.00    +0.130 A 
ENDROOT
BRANCH   3   7
ATOM      7  C   LIG    1       -1.008   9.591   0.063  0.00  0.00    +0.190 C 
ATOM      8  C   LIG    1       -0.049  10.421  -0.441  0.00  0.00    -0.160 C 
ATOM      9  C   LIG    1       -0.042  11.894  -0.429  0.00  0.00    +0.560 C 
ATOM     10  N   LIG    1        1.089  12.308  -1.026  0.00  0.00    -0.650 N 
ATOM     11  H   LIG    1        1.335  13.239  -1.144  0.00  0.00    +0.420 HD
ATOM     12  C   LIG    1        1.857  11.233  -1.457  0.00  0.00    +0.150 A 
ATOM     13  C   LIG    1        3.079  11.176  -2.118  0.00  0.00    +0.010 A 
ATOM     14  C   LIG    1        3.638   9.955  -2.439  0.00  0.00    +0.070 A 
ATOM     15  C   LIG    1        2.992   8.775  -2.109  0.00  0.00    -0.060 A 
ATOM     16  C   LIG    1        1.776   8.812  -1.452  0.00  0.00    +0.090 A 
ATOM     17 CL   LIG    1        3.709   7.249  -2.521  0.00  0.00    -0.060 Cl
ATOM     18  O   LIG    1       -0.907  12.610   0.041  0.00  0.00    -0.500 OA
ATOM     19  C   LIG    1        1.207  10.037  -1.125  0.00  0.00    -0.090 A 
ENDBRANCH   3   7
BRANCH   1  21
ATOM     20  C   LIG    1       -3.675   5.521  -1.003  0.00  0.00    +0.240 C 
ATOM     21  O   LIG    1       -2.443   4.987  -0.515  0.00  0.00    -0.300 OA
ENDBRANCH   1  21
BRANCH   6  22
ATOM     22  O   LIG    1       -0.023   4.093   0.442  0.00  0.00    -0.290 OA
BRANCH  22  23
ATOM     23  C   LIG    1        1.253   3.697   0.948  0.00  0.00    +0.260 C 
BRANCH  23  24
ATOM     24  C   LIG    1        1.337   2.192   0.978  0.00  0.00    -0.080 A 
ATOM     25  C   LIG    1        0.266   1.432   0.551  0.00  0.00    +0.060 A 
ATOM     26  C   LIG    1        0.342   0.052   0.578  0.00  0.00    +0.020 A 
ATOM     27  C   LIG    1        1.491  -0.568   1.033  0.00  0.00    +0.030 A 
ATOM     28  C   LIG    1        2.564   0.192   1.460  0.00  0.00    +0.030 A 
ATOM     29  C   LIG    1        2.488   1.573   1.433  0.00  0.00    -0.030 A 
ATOM     30 CL   LIG    1        3.834   2.527   1.970  0.00  0.00    -0.070 Cl
ENDBRANCH  23  24
ENDBRANCH  22  23
ENDBRANCH   6  22
TORSDOF 5
