REMARK  Name = ZINCpe00000xXmA0.0
REMARK                            x       y       z     vdW  Elec       q    Type
REMARK                         _______ _______ _______ _____ _____    ______ ____
ROOT
ATOM      1  O   LIG    1        1.619   3.082   0.851  0.00  0.00    -0.290 OA
ENDROOT
BRANCH   1   4
ATOM      2  C   LIG    1        4.481   4.589  -0.814  0.00  0.00    +0.140 A 
ATOM      3  C   LIG    1        3.439   3.720  -0.563  0.00  0.00    -0.100 A 
ATOM      4  C   LIG    1        2.653   3.915   0.569  0.00  0.00    +0.170 A 
ATOM      5  C   LIG    1        2.951   4.990   1.403  0.00  0.00    -0.050 A 
ATOM      6  C   LIG    1        4.014   5.811   1.086  0.00  0.00    +0.310 A 
ATOM      7  N   LIG    1        4.736   5.593   0.003  0.00  0.00    -0.490 NA
BRANCH   2   8
ATOM      8  C   LIG    1        5.339   4.388  -2.037  0.00  0.00    +0.340 C 
BRANCH   8  11
ATOM      9  C   LIG    1        4.935   6.072  -5.451  0.00  0.00    +0.110 C 
ATOM     10  C   LIG    1        5.452   5.210  -4.328  0.00  0.00    +0.510 C 
ATOM     11  N   LIG    1        4.837   5.226  -3.129  0.00  0.00    -0.730 N 
ATOM     12  H   LIG    1        4.061   5.791  -2.989  0.00  0.00    +0.400 HD
ATOM     13  O   LIG    1        6.421   4.503  -4.503  0.00  0.00    -0.540 OA
ENDBRANCH   8  11
ENDBRANCH   2   8
ENDBRANCH   1   4
BRANCH   1  14
ATOM     14  C   LIG    1        1.305   2.086  -0.124  0.00  0.00    +0.140 C 
ATOM     15  C   LIG    1        2.096   0.780   0.152  0.00  0.00    +0.020 C 
ATOM     16  C   LIG    1        1.176  -0.286  -0.495  0.00  0.00    +0.190 C 
ATOM     17  N   LIG    1       -0.198   0.179  -0.211  0.00  0.00    -0.520 NA
ATOM     18  C   LIG    1       -0.166   1.636   0.008  0.00  0.00    +0.220 C 
BRANCH  17  19
ATOM     19  C   LIG    1       -1.109  -0.168  -1.310  0.00  0.00    +0.190 C 
BRANCH  19  20
ATOM     20  C   LIG    1       -0.932  -1.644  -1.673  0.00  0.00    +0.010 C 
ATOM     21  C   LIG    1       -1.370  -2.515  -0.494  0.00  0.00    +0.050 C 
BRANCH  20  22
ATOM     22  C   LIG    1       -1.788  -1.975  -2.897  0.00  0.00    -0.340 C 
BRANCH  22  23
ATOM     23  S   LIG    1       -1.466  -3.683  -3.416  0.00  0.00    +2.420 S 
ATOM     24  O   LIG    1       -1.919  -4.560  -2.394  0.00  0.00    -0.930 OA
ATOM     25  O   LIG    1       -0.120  -3.774  -3.863  0.00  0.00    -0.940 OA
ATOM     26  C   LIG    1       -2.564  -3.852  -4.850  0.00  0.00    -0.270 C 
ENDBRANCH  22  23
ENDBRANCH  20  22
ENDBRANCH  19  20
ENDBRANCH  17  19
ENDBRANCH   1  14
TORSDOF 8
