REMARK  Name = ZINCrg000000rbsj.0
REMARK                            x       y       z     vdW  Elec       q    Type
REMARK                         _______ _______ _______ _____ _____    ______ ____
ROOT
ATOM      1  C   LIG    1        2.334   7.226  -3.779  0.00  0.00    +0.030 C 
ATOM      2  C   LIG    1        1.164   7.855  -3.020  0.00  0.00    +0.180 C 
ENDROOT
BRANCH   2   3
ATOM      3  N   LIG    1        1.313   9.317  -3.017  0.00  0.00    -0.520 NA
ATOM      4  C   LIG    1        0.951   9.886  -4.322  0.00  0.00    +0.200 C 
ATOM      5  C   LIG    1        1.043  11.412  -4.253  0.00  0.00    +0.220 C 
ATOM      6  N   LIG    1        2.407  11.802  -3.872  0.00  0.00    -0.460 N 
ATOM      7  C   LIG    1        2.769  11.233  -2.566  0.00  0.00    +0.230 C 
ATOM      8  C   LIG    1        2.678   9.706  -2.635  0.00  0.00    +0.210 C 
BRANCH   6   9
ATOM      9  C   LIG    1        2.547  13.179  -3.869  0.00  0.00    +0.490 A 
ATOM     10  N   LIG    1        2.957  13.785  -2.764  0.00  0.00    -0.550 NA
ATOM     11  C   LIG    1        3.107  15.098  -2.729  0.00  0.00    +0.340 A 
ATOM     12  C   LIG    1        2.818  15.842  -3.863  0.00  0.00    -0.110 A 
ATOM     13  C   LIG    1        2.386  15.177  -4.999  0.00  0.00    +0.340 A 
ATOM     14  N   LIG    1        2.263  13.860  -4.969  0.00  0.00    -0.530 NA
ENDBRANCH   6   9
ENDBRANCH   2   3
BRANCH   2  15
ATOM     15  C   LIG    1        1.155   7.348  -1.601  0.00  0.00    +0.520 C 
ATOM     16  N   LIG    1        0.735   6.095  -1.336  0.00  0.00    -0.730 N 
ATOM     17  H   LIG    1        0.438   5.520  -2.058  0.00  0.00    +0.400 HD
ATOM     18  O   LIG    1        1.527   8.067  -0.698  0.00  0.00    -0.520 OA
BRANCH  16  19
ATOM     19  C   LIG    1        0.726   5.602   0.044  0.00  0.00    +0.330 C 
BRANCH  19  20
ATOM     20  C   LIG    1        0.216   4.184   0.067  0.00  0.00    -0.100 A 
ATOM     21  C   LIG    1       -1.137   3.940   0.215  0.00  0.00    +0.050 A 
ATOM     22  C   LIG    1       -1.610   2.641   0.232  0.00  0.00    +0.040 A 
ATOM     23  C   LIG    1       -0.728   1.580   0.110  0.00  0.00    +0.040 A 
ATOM     24  O   LIG    1       -0.931   0.231   0.099  0.00  0.00    -0.310 OA
ATOM     25  C   LIG    1        0.359  -0.355   0.351  0.00  0.00    +0.430 C 
ATOM     26  O   LIG    1        1.285   0.630  -0.144  0.00  0.00    -0.310 OA
ATOM     27  C   LIG    1        0.635   1.826  -0.039  0.00  0.00    +0.030 A 
ATOM     28  C   LIG    1        1.102   3.130  -0.060  0.00  0.00    +0.060 A 
ENDBRANCH  19  20
ENDBRANCH  16  19
ENDBRANCH   2  15
TORSDOF 5
