REMARK  Name = ZINCrH00000No4AF.0
REMARK                            x       y       z     vdW  Elec       q    Type
REMARK                         _______ _______ _______ _____ _____    ______ ____
ROOT
ATOM      1  N   LIG    1       -3.957  -0.615  -0.099  0.00  0.00    -0.970 N 
ATOM      2  H   LIG    1       -4.779  -0.110   0.005  0.00  0.00    +0.400 HD
ENDROOT
BRANCH   1   3
ATOM      3  S   LIG    1       -4.004  -2.268  -0.170  0.00  0.00    +2.720 S 
ATOM      4  O   LIG    1       -3.317  -2.639  -1.357  0.00  0.00    -0.930 OA
ATOM      5  O   LIG    1       -5.347  -2.644   0.100  0.00  0.00    -0.940 OA
BRANCH   3  10
ATOM      6  C   LIG    1       -0.697  -4.346   4.430  0.00  0.00    +0.150 C 
ATOM      7  C   LIG    1       -1.523  -3.827   3.281  0.00  0.00    +0.040 A 
ATOM      8  C   LIG    1       -2.874  -3.591   3.452  0.00  0.00    +0.020 A 
ATOM      9  C   LIG    1       -3.632  -3.115   2.398  0.00  0.00    +0.190 A 
ATOM     10  C   LIG    1       -3.038  -2.875   1.174  0.00  0.00    -0.690 A 
ATOM     11  C   LIG    1       -1.688  -3.116   1.001  0.00  0.00    +0.230 A 
ATOM     12  C   LIG    1       -0.929  -3.587   2.056  0.00  0.00    -0.070 A 
BRANCH  12  13
ATOM     13  N   LIG    1        0.518  -3.840   1.873  0.00  0.00    +0.030 N 
ATOM     14  O   LIG    1        1.160  -4.374   2.759  0.00  0.00    -0.150 OA
ATOM     15  O   LIG    1        1.066  -3.514   0.835  0.00  0.00    -0.150 OA
ENDBRANCH  12  13
ENDBRANCH   3  10
ENDBRANCH   1   3
BRANCH   1  16
ATOM     16  N   LIG    1       -2.731   0.056  -0.190  0.00  0.00    -0.240 NA
ATOM     17  C   LIG    1       -2.694   1.354  -0.135  0.00  0.00    +0.170 C 
ATOM     18  C   LIG    1       -3.971   2.137   0.026  0.00  0.00    +0.110 C 
BRANCH  17  19
ATOM     19  C   LIG    1       -1.406   2.058  -0.231  0.00  0.00    -0.060 A 
ATOM     20  C   LIG    1       -1.335   3.434  -0.053  0.00  0.00    +0.060 A 
ATOM     21  C   LIG    1       -0.119   4.097  -0.149  0.00  0.00    +0.000 A 
ATOM     22  C   LIG    1        1.040   3.435  -0.413  0.00  0.00    +0.050 A 
ATOM     23  C   LIG    1        1.045   2.042  -0.599  0.00  0.00    -0.060 A 
ATOM     24  C   LIG    1        2.234   1.345  -0.872  0.00  0.00    +0.020 A 
ATOM     25  C   LIG    1        2.198  -0.005  -1.047  0.00  0.00    +0.020 A 
ATOM     26  C   LIG    1        0.999  -0.708  -0.959  0.00  0.00    +0.030 A 
ATOM     27  C   LIG    1       -0.173  -0.063  -0.695  0.00  0.00    +0.040 A 
ATOM     28  C   LIG    1       -0.173   1.324  -0.509  0.00  0.00    -0.030 A 
ENDBRANCH  17  19
ENDBRANCH   1  16
TORSDOF 5
