REMARK  Name = ZINCrg00001Jdv56.0
REMARK                            x       y       z     vdW  Elec       q    Type
REMARK                         _______ _______ _______ _____ _____    ______ ____
ROOT
ATOM      1  C   LIG    1        0.655   1.277   1.051  0.00  0.00    +0.250 C 
ATOM      2  C   LIG    1        1.386   2.303   0.176  0.00  0.00    +0.310 C 
ATOM      3  N   LIG    1        0.616   2.500  -1.060  0.00  0.00    -0.600 N 
ATOM      4  C   LIG    1        0.288   1.329  -1.885  0.00  0.00    +0.220 C 
ATOM      5  C   LIG    1       -0.443   0.303  -1.010  0.00  0.00    +0.290 C 
ATOM      6  C   LIG    1       -0.613   1.754  -3.046  0.00  0.00    +0.070 C 
ATOM      7  C   LIG    1        0.222   3.734  -1.433  0.00  0.00    +0.570 C 
ATOM      8  O   LIG    1       -0.386   3.889  -2.474  0.00  0.00    -0.510 OA
ATOM      9  N   LIG    1        0.328   0.106   0.226  0.00  0.00    -0.600 N 
ATOM     10  C   LIG    1        0.727  -1.127   0.596  0.00  0.00    +0.560 C 
ATOM     11  O   LIG    1        1.345  -1.280   1.632  0.00  0.00    -0.490 OA
ENDROOT
BRANCH   7  12
ATOM     12  C   LIG    1        0.530   4.902  -0.575  0.00  0.00    -0.090 A 
ATOM     13  C   LIG    1        1.717   4.958   0.161  0.00  0.00    -0.020 A 
ATOM     14  C   LIG    1        1.967   6.069   0.945  0.00  0.00    +0.270 A 
ATOM     15  N   LIG    1        1.100   7.059   1.010  0.00  0.00    -0.470 NA
ATOM     16  C   LIG    1       -0.033   7.043   0.337  0.00  0.00    +0.270 A 
ATOM     17  C   LIG    1       -0.360   5.975  -0.475  0.00  0.00    +0.030 A 
ENDBRANCH   7  12
BRANCH  10  18
ATOM     18  C   LIG    1        0.413  -2.295  -0.259  0.00  0.00    -0.080 A 
ATOM     19  C   LIG    1       -0.773  -2.346  -0.998  0.00  0.00    +0.000 A 
ATOM     20  C   LIG    1       -1.024  -3.453  -1.786  0.00  0.00    +0.270 A 
ATOM     21  N   LIG    1       -0.169  -4.455  -1.837  0.00  0.00    -0.470 NA
ATOM     22  C   LIG    1        0.958  -4.449  -1.153  0.00  0.00    +0.280 A 
ATOM     23  C   LIG    1        1.291  -3.380  -0.344  0.00  0.00    +0.030 A 
ENDBRANCH  10  18
BRANCH   1  24
ATOM     24  C   LIG    1        1.543   0.859   2.194  0.00  0.00    +0.480 C 
ATOM     25  O   LIG    1        2.660   0.452   1.975  0.00  0.00    -0.480 OA
BRANCH  24  27
ATOM     26  C   LIG    1        2.003   0.517   4.508  0.00  0.00    +0.270 C 
ATOM     27  O   LIG    1        1.094   0.937   3.457  0.00  0.00    -0.360 OA
ENDBRANCH  24  27
ENDBRANCH   1  24
TORSDOF 4
