REMARK  Name = ZINCpk000004F5BE.0
REMARK                            x       y       z     vdW  Elec       q    Type
REMARK                         _______ _______ _______ _____ _____    ______ ____
ROOT
ATOM      1  N   LIG    1        5.272   3.571  -1.068  0.00  0.00    -0.740 N 
ATOM      2  H   LIG    1        5.128   3.579  -2.027  0.00  0.00    +0.390 HD
ATOM      3  C   LIG    1        4.225   3.432  -0.230  0.00  0.00    +0.720 C 
ATOM      4  N   LIG    1        2.978   3.302  -0.725  0.00  0.00    -0.610 N 
ATOM      5  C   LIG    1        2.566   3.276  -2.167  0.00  0.00    +0.250 C 
ATOM      6  C   LIG    1        1.009   3.399  -2.156  0.00  0.00    +0.040 C 
ATOM      7  C   LIG    1        0.793   4.081  -0.812  0.00  0.00    -0.030 C 
ATOM      8  C   LIG    1       -0.135   3.660   0.293  0.00  0.00    +0.050 C 
ATOM      9  C   LIG    1        1.153   3.900   1.151  0.00  0.00    +0.080 C 
ATOM     10  C   LIG    1        1.765   3.146   0.020  0.00  0.00    +0.210 C 
ATOM     11  O   LIG    1        4.406   3.422   0.972  0.00  0.00    -0.580 OA
ENDROOT
BRANCH   1  17
ATOM     12  C   LIG    1       11.243   4.878  -2.009  0.00  0.00    +0.100 C 
ATOM     13  C   LIG    1       10.326   5.447  -0.957  0.00  0.00    +0.510 C 
ATOM     14  N   LIG    1        9.265   4.733  -0.531  0.00  0.00    -0.620 N 
ATOM     15  C   LIG    1        9.055   3.354  -0.995  0.00  0.00    +0.290 C 
ATOM     16  C   LIG    1        7.641   3.238  -1.573  0.00  0.00    +0.010 C 
ATOM     17  C   LIG    1        6.627   3.712  -0.530  0.00  0.00    +0.250 C 
ATOM     18  C   LIG    1        6.891   5.181  -0.190  0.00  0.00    +0.010 C 
ATOM     19  C   LIG    1        8.296   5.318   0.405  0.00  0.00    +0.280 C 
ATOM     20  O   LIG    1       10.542   6.546  -0.494  0.00  0.00    -0.540 OA
ENDBRANCH   1  17
BRANCH  10  21
ATOM     21  C   LIG    1        1.334   1.702   0.031  0.00  0.00    -0.220 A 
ATOM     22  C   LIG    1        1.531   0.804  -0.962  0.00  0.00    +0.230 A 
ATOM     23  N   LIG    1        0.999  -0.371  -0.566  0.00  0.00    -0.380 N 
ATOM     24  N   LIG    1        0.457  -0.189   0.713  0.00  0.00    -0.290 NA
ATOM     25  C   LIG    1        0.990  -1.616  -1.337  0.00  0.00    +0.360 C 
ATOM     26  C   LIG    1        0.658   1.053   1.069  0.00  0.00    +0.250 A 
ENDBRANCH  10  21
TORSDOF 2
