REMARK  Name = ZINCvU0000000AEr.0
REMARK                            x       y       z     vdW  Elec       q    Type
REMARK                         _______ _______ _______ _____ _____    ______ ____
ROOT
ATOM      1  O   LIG    1       -0.868  -3.088   1.234  0.00  0.00    -0.500 OA
ATOM      2  C   LIG    1       -1.733  -3.936   1.311  0.00  0.00    +0.540 C 
ATOM      3  N   LIG    1       -1.581  -5.114   0.675  0.00  0.00    -0.610 N 
ATOM      4  C   LIG    1       -2.661  -6.110   0.675  0.00  0.00    +0.270 C 
ATOM      5  C   LIG    1       -2.971  -6.502  -0.773  0.00  0.00    +0.010 C 
ATOM      6  C   LIG    1       -1.684  -6.970  -1.457  0.00  0.00    +0.020 C 
ATOM      7  C   LIG    1       -0.665  -5.829  -1.473  0.00  0.00    +0.050 C 
ATOM      8  C   LIG    1       -0.332  -5.427  -0.033  0.00  0.00    +0.320 C 
ENDROOT
BRANCH   8   9
ATOM      9  C   LIG    1        0.562  -4.214  -0.040  0.00  0.00    +0.240 A 
ATOM     10  N   LIG    1        0.362  -3.130  -0.737  0.00  0.00    -0.450 NA
ATOM     11  C   LIG    1        1.364  -2.259  -0.500  0.00  0.00    +0.050 A 
ATOM     12  C   LIG    1        2.211  -2.837   0.392  0.00  0.00    +0.140 A 
ATOM     13  N   LIG    1        1.698  -4.071   0.678  0.00  0.00    -0.560 N 
ATOM     14  H   LIG    1        2.079  -4.725   1.284  0.00  0.00    +0.420 HD
BRANCH  11  15
ATOM     15  C   LIG    1        1.511  -0.910  -1.099  0.00  0.00    +0.040 A 
ATOM     16  C   LIG    1        0.563  -0.441  -2.006  0.00  0.00    +0.020 A 
ATOM     17  C   LIG    1        0.704   0.815  -2.562  0.00  0.00    +0.040 A 
ATOM     18  C   LIG    1        1.784   1.608  -2.222  0.00  0.00    -0.030 A 
ATOM     19  C   LIG    1        2.731   1.147  -1.321  0.00  0.00    +0.100 A 
ATOM     20  F   LIG    1        3.785   1.926  -0.992  0.00  0.00    -0.140 F 
ATOM     21  C   LIG    1        2.599  -0.109  -0.758  0.00  0.00    -0.020 A 
ENDBRANCH  11  15
ENDBRANCH   8   9
BRANCH   2  22
ATOM     22  C   LIG    1       -2.977  -3.670   2.119  0.00  0.00    -0.050 C 
ATOM     23  C   LIG    1       -3.951  -2.616   1.589  0.00  0.00    +0.080 C 
ATOM     24  C   LIG    1       -3.090  -2.314   2.817  0.00  0.00    +0.050 C 
BRANCH  24  25
ATOM     25  C   LIG    1       -3.778  -2.277   4.158  0.00  0.00    -0.030 A 
ATOM     26  C   LIG    1       -3.092  -1.836   5.274  0.00  0.00    +0.050 A 
ATOM     27  C   LIG    1       -3.721  -1.800   6.504  0.00  0.00    +0.030 A 
ATOM     28  C   LIG    1       -5.039  -2.206   6.620  0.00  0.00    +0.070 A 
ATOM     29  C   LIG    1       -5.727  -2.649   5.500  0.00  0.00    +0.070 A 
ATOM     30  F   LIG    1       -7.014  -3.046   5.610  0.00  0.00    -0.130 F 
ATOM     31  F   LIG    1       -5.655  -2.172   7.822  0.00  0.00    -0.130 F 
ATOM     32  C   LIG    1       -5.096  -2.678   4.269  0.00  0.00    +0.020 A 
ENDBRANCH  24  25
ENDBRANCH   2  22
TORSDOF 4
