REMARK  Name = ZINCpk0000050VIw.0
REMARK                            x       y       z     vdW  Elec       q    Type
REMARK                         _______ _______ _______ _____ _____    ______ ____
ROOT
ATOM      1  N   LIG    1       -5.077  -0.562   1.721  0.00  0.00    -0.570 N 
ATOM      2  C   LIG    1       -5.371  -0.898   2.991  0.00  0.00    +0.520 C 
ATOM      3  C   LIG    1       -5.995  -2.238   3.289  0.00  0.00    +0.100 C 
ATOM      4  C   LIG    1       -6.926  -2.627   2.139  0.00  0.00    +0.290 C 
ATOM      5  N   LIG    1       -6.246  -2.403   0.862  0.00  0.00    -0.720 N 
ATOM      6  H   LIG    1       -6.402  -3.013   0.124  0.00  0.00    +0.420 HD
ATOM      7  O   LIG    1       -5.134  -0.124   3.893  0.00  0.00    -0.480 OA
ATOM      8  C   LIG    1       -5.414  -1.363   0.698  0.00  0.00    +0.710 C 
ATOM      9  O   LIG    1       -4.952  -1.144  -0.405  0.00  0.00    -0.550 OA
ENDROOT
BRANCH   4  10
ATOM     10  C   LIG    1       -7.297  -4.082   2.263  0.00  0.00    -0.120 A 
ATOM     11  C   LIG    1       -6.418  -5.058   1.829  0.00  0.00    +0.060 A 
ATOM     12  C   LIG    1       -6.755  -6.393   1.947  0.00  0.00    -0.010 A 
ATOM     13  C   LIG    1       -7.976  -6.753   2.489  0.00  0.00    +0.110 A 
ATOM     14  C   LIG    1       -8.858  -5.775   2.919  0.00  0.00    -0.010 A 
ATOM     15  F   LIG    1       -8.309  -8.058   2.599  0.00  0.00    -0.140 F 
ATOM     16  C   LIG    1       -8.517  -4.441   2.805  0.00  0.00    +0.070 A 
ENDBRANCH   4  10
BRANCH   1  17
ATOM     17  C   LIG    1       -4.383   0.700   1.452  0.00  0.00    +0.310 C 
BRANCH  17  18
ATOM     18  C   LIG    1       -2.871   0.465   1.474  0.00  0.00    +0.000 C 
BRANCH  18  19
ATOM     19  C   LIG    1       -2.146   1.783   1.192  0.00  0.00    +0.300 C 
BRANCH  19  20
ATOM     20  N   LIG    1       -0.698   1.558   1.213  0.00  0.00    -1.000 NA
ATOM     21  C   LIG    1       -0.013   1.086   0.008  0.00  0.00    +0.300 C 
BRANCH  20  22
ATOM     22  S   LIG    1        0.163   1.838   2.600  0.00  0.00    +2.600 S 
ATOM     23  O   LIG    1        1.293   0.985   2.489  0.00  0.00    -0.950 OA
ATOM     24  O   LIG    1       -0.786   1.665   3.643  0.00  0.00    -0.950 OA
BRANCH  22  26
ATOM     25  C   LIG    1        1.476   3.962   3.716  0.00  0.00    +0.070 C 
ATOM     26  C   LIG    1        0.663   3.578   2.478  0.00  0.00    -0.370 C 
ENDBRANCH  22  26
ENDBRANCH  20  22
ENDBRANCH  19  20
ENDBRANCH  18  19
ENDBRANCH  17  18
ENDBRANCH   1  17
TORSDOF 7
