REMARK  Name = ZINCpk00000l5kLM.0
REMARK                            x       y       z     vdW  Elec       q    Type
REMARK                         _______ _______ _______ _____ _____    ______ ____
ROOT
ATOM      1  C   LIG    1       -0.816   1.624   1.221  0.00  0.00    +0.250 C 
ATOM      2  C   LIG    1       -0.013   1.086   0.008  0.00  0.00    +0.020 C 
ATOM      3  C   LIG    1       -0.838   1.637  -1.182  0.00  0.00    +0.260 C 
ATOM      4  N   LIG    1       -1.288   2.970  -0.744  0.00  0.00    -0.620 N 
ATOM      5  C   LIG    1       -1.627   3.991  -1.556  0.00  0.00    +0.540 C 
ATOM      6  O   LIG    1       -1.985   5.049  -1.083  0.00  0.00    -0.530 OA
ATOM      7  C   LIG    1       -1.307   3.002   0.726  0.00  0.00    +0.250 C 
ENDROOT
BRANCH   5   8
ATOM      8  C   LIG    1       -1.561   3.818  -3.051  0.00  0.00    -0.010 C 
ATOM      9  C   LIG    1       -2.559   2.728  -3.515  0.00  0.00    +0.040 C 
ATOM     10  C   LIG    1       -2.813   3.105  -4.999  0.00  0.00    +0.050 C 
ATOM     11  C   LIG    1       -2.827   4.644  -4.999  0.00  0.00    -0.130 C 
ATOM     12  C   LIG    1       -2.768   5.426  -6.307  0.00  0.00    +0.010 C 
ATOM     13  C   LIG    1       -4.054   5.413  -5.478  0.00  0.00    +0.020 C 
ATOM     14  C   LIG    1       -2.037   5.101  -3.765  0.00  0.00    +0.080 C 
ENDBRANCH   5   8
BRANCH   1  17
ATOM     15  O   LIG    1       -0.274  -0.344   2.983  0.00  0.00    -0.520 OA
ATOM     16  C   LIG    1        0.259   0.724   3.214  0.00  0.00    +0.560 C 
ATOM     17  N   LIG    1        0.051   1.772   2.393  0.00  0.00    -0.720 N 
ATOM     18  H   LIG    1        0.476   2.625   2.577  0.00  0.00    +0.400 HD
BRANCH  16  19
ATOM     19  C   LIG    1        1.135   0.874   4.399  0.00  0.00    -0.090 A 
ATOM     20  C   LIG    1        1.757   2.093   4.683  0.00  0.00    +0.000 A 
ATOM     21  C   LIG    1        2.567   2.188   5.799  0.00  0.00    +0.270 A 
ATOM     22  N   LIG    1        2.755   1.150   6.589  0.00  0.00    -0.460 NA
ATOM     23  CA  LIG    1        2.188  -0.017   6.357  0.00  0.00    +0.120 A 
ATOM     24  C   LIG    1        1.359  -0.200   5.267  0.00  0.00    +0.070 A 
BRANCH  23  25
ATOM     25  C   LIG    1        2.442  -1.167   7.298  0.00  0.00    +0.270 C 
BRANCH  25  26
ATOM     26  O   LIG    1        1.727  -2.319   6.846  0.00  0.00    -0.570 OA
ATOM     27  H   LIG    1        1.844  -3.099   7.406  0.00  0.00    +0.390 HD
ENDBRANCH  25  26
ENDBRANCH  23  25
ENDBRANCH  16  19
ENDBRANCH   1  17
TORSDOF 5
