REMARK  Name = ZINCpk00000y6zev.0
REMARK                            x       y       z     vdW  Elec       q    Type
REMARK                         _______ _______ _______ _____ _____    ______ ____
ROOT
ATOM      1  C   LIG    1        2.358   6.208  -1.421  0.00  0.00    +0.130 C 
ATOM      2  C   LIG    1        3.048   6.273  -2.801  0.00  0.00    +0.050 C 
ATOM      3  C   LIG    1        3.304   4.803  -3.191  0.00  0.00    +0.190 C 
ATOM      4  C   LIG    1        2.748   3.973  -2.014  0.00  0.00    +0.190 C 
ATOM      5  F   LIG    1        4.676   4.572  -3.343  0.00  0.00    -0.200 F 
ATOM      6  N   LIG    1        1.740   4.858  -1.375  0.00  0.00    -0.480 NA
ENDROOT
BRANCH   1   8
ATOM      7  O   LIG    1        0.133   6.962  -1.200  0.00  0.00    -0.510 OA
ATOM      8  C   LIG    1        1.300   7.275  -1.309  0.00  0.00    +0.530 C 
ATOM      9  N   LIG    1        1.650   8.576  -1.330  0.00  0.00    -0.620 N 
ATOM     10  C   LIG    1        3.059   8.979  -1.455  0.00  0.00    +0.240 C 
ATOM     11  C   LIG    1        3.163  10.012  -2.589  0.00  0.00    +0.220 C 
ATOM     12  O   LIG    1        2.221  11.062  -2.354  0.00  0.00    -0.380 OA
ATOM     13  C   LIG    1        0.856  10.636  -2.361  0.00  0.00    +0.220 C 
ATOM     14  C   LIG    1        0.634   9.635  -1.222  0.00  0.00    +0.260 C 
ENDBRANCH   1   8
BRANCH   6  15
ATOM     15  C   LIG    1        1.480   4.445   0.010  0.00  0.00    +0.300 C 
BRANCH  15  16
ATOM     16  C   LIG    1        0.638   3.195   0.012  0.00  0.00    +0.020 A 
ATOM     17  C   LIG    1        1.107   1.932   0.002  0.00  0.00    -0.050 A 
ATOM     18  C   LIG    1       -0.013   1.076   0.008  0.00  0.00    -0.010 A 
ATOM     19  C   LIG    1       -1.114   1.872   0.017  0.00  0.00    +0.060 A 
ATOM     20  O   LIG    1       -0.705   3.155   0.024  0.00  0.00    -0.150 OA
BRANCH  19  21
ATOM     21  C   LIG    1       -2.519   1.409   0.021  0.00  0.00    +0.150 A 
ATOM     22  N   LIG    1       -2.922   0.155   0.011  0.00  0.00    -0.270 NA
ATOM     23  N   LIG    1       -4.323   0.149   0.021  0.00  0.00    -0.470 N 
ATOM     24  H   LIG    1       -4.889  -0.639   0.019  0.00  0.00    +0.440 HD
ATOM     25  C   LIG    1       -4.750   1.430   0.030  0.00  0.00    +0.240 A 
ATOM     26  C   LIG    1       -3.664   2.233   0.030  0.00  0.00    -0.100 A 
ENDBRANCH  19  21
ENDBRANCH  15  16
ENDBRANCH   6  15
TORSDOF 4
