REMARK  Name = ZINCvU00000007bF.0
REMARK                            x       y       z     vdW  Elec       q    Type
REMARK                         _______ _______ _______ _____ _____    ______ ____
ROOT
ATOM      1  O   LIG    1       -2.322   1.734   0.023  0.00  0.00    -0.510 OA
ATOM      2  C   LIG    1       -1.215   2.235   0.020  0.00  0.00    +0.590 C 
ATOM      3  N   LIG    1       -1.082   3.576   0.027  0.00  0.00    -0.720 N 
ATOM      4  H   LIG    1       -0.199   3.977   0.025  0.00  0.00    +0.400 HD
ENDROOT
BRANCH   2   5
ATOM      5  C   LIG    1       -0.017   1.377   0.010  0.00  0.00    -0.220 A 
ATOM      6  C   LIG    1        0.002  -0.004   0.002  0.00  0.00    +0.050 A 
ATOM      7  N   LIG    1        1.291  -0.388  -0.012  0.00  0.00    -0.280 N 
ATOM      8  N   LIG    1        2.095   0.757  -0.014  0.00  0.00    -0.250 NA
ATOM      9  C   LIG    1        1.328   1.812  -0.001  0.00  0.00    +0.300 A 
BRANCH   7  10
ATOM     10  C   LIG    1        1.752  -1.712  -0.023  0.00  0.00    +0.120 A 
ATOM     11  C   LIG    1        1.060  -2.695   0.672  0.00  0.00    +0.040 A 
ATOM     12  C   LIG    1        1.512  -4.000   0.655  0.00  0.00    +0.060 A 
ATOM     13  C   LIG    1        2.660  -4.326  -0.045  0.00  0.00    -0.020 A 
ATOM     14  C   LIG    1        3.354  -3.348  -0.735  0.00  0.00    +0.060 A 
ATOM     15 CL   LIG    1        3.230  -5.966  -0.058  0.00  0.00    -0.050 Cl
ATOM     16  C   LIG    1        2.903  -2.042  -0.726  0.00  0.00    +0.070 A 
ENDBRANCH   7  10
BRANCH   6  17
ATOM     17  C   LIG    1       -1.200  -0.913   0.009  0.00  0.00    +0.530 C 
ATOM     18  F   LIG    1       -0.889  -2.102  -0.660  0.00  0.00    -0.170 F 
ATOM     19  F   LIG    1       -2.267  -0.280  -0.638  0.00  0.00    -0.120 F 
ATOM     20  F   LIG    1       -1.560  -1.201   1.330  0.00  0.00    -0.160 F 
ENDBRANCH   6  17
ENDBRANCH   2   5
BRANCH   3  21
ATOM     21  C   LIG    1       -2.273   4.430   0.037  0.00  0.00    +0.410 C 
BRANCH  21  22
ATOM     22  C   LIG    1       -1.854   5.877   0.043  0.00  0.00    +0.020 A 
ATOM     23  N   LIG    1       -1.650   6.587  -1.012  0.00  0.00    -0.440 NA
ATOM     24  C   LIG    1       -1.288   7.849  -0.831  0.00  0.00    +0.110 A 
ATOM     25  C   LIG    1       -1.175   8.209   0.463  0.00  0.00    -0.060 A 
ATOM     26  S   LIG    1       -1.575   6.805   1.451  0.00  0.00    +0.170 S 
BRANCH  24  27
ATOM     27  C   LIG    1       -1.026   8.782  -1.954  0.00  0.00    -0.030 A 
ATOM     28  C   LIG    1       -0.649  10.099  -1.695  0.00  0.00    +0.020 A 
ATOM     29  C   LIG    1       -0.401  10.962  -2.744  0.00  0.00    +0.010 A 
ATOM     30  C   LIG    1       -0.537  10.525  -4.049  0.00  0.00    +0.020 A 
ATOM     31  C   LIG    1       -0.916   9.220  -4.312  0.00  0.00    +0.010 A 
ATOM     32  C   LIG    1       -1.161   8.348  -3.271  0.00  0.00    +0.040 A 
ENDBRANCH  24  27
ENDBRANCH  21  22
ENDBRANCH   3  21
TORSDOF 6
