REMARK  Name = ZINCpe000000Yp7v.0
REMARK                            x       y       z     vdW  Elec       q    Type
REMARK                         _______ _______ _______ _____ _____    ______ ____
ROOT
ATOM      1  N   LIG    1       -0.016   1.344   0.009  0.00  0.00    -0.710 N 
ATOM      2  H   LIG    1        0.817   1.840   0.004  0.00  0.00    +0.410 HD
ATOM      3  C   LIG    1        0.002  -0.004   0.002  0.00  0.00    +0.610 C 
ATOM      4  O   LIG    1       -1.043  -0.626   0.009  0.00  0.00    -0.530 OA
ENDROOT
BRANCH   3   5
ATOM      5  C   LIG    1        1.290  -0.724  -0.014  0.00  0.00    -0.110 A 
ATOM      6  C   LIG    1        1.445  -2.081  -0.023  0.00  0.00    +0.310 A 
ATOM      7  N   LIG    1        2.772  -2.322  -0.037  0.00  0.00    -0.360 N 
ATOM      8  N   LIG    1        3.410  -1.074  -0.037  0.00  0.00    -0.050 NA
ATOM      9  N   LIG    1        2.507  -0.156  -0.029  0.00  0.00    -0.210 NA
BRANCH   7  10
ATOM     10  C   LIG    1        3.421  -3.635  -0.051  0.00  0.00    +0.350 C 
BRANCH  10  11
ATOM     11  C   LIG    1        4.377  -3.720  -1.242  0.00  0.00    -0.150 C 
ATOM     12  C   LIG    1        3.691  -4.117  -2.563  0.00  0.00    +0.210 C 
ATOM     13  O   LIG    1        4.828  -4.981  -2.763  0.00  0.00    -0.370 OA
ATOM     14  C   LIG    1        5.293  -2.500  -1.361  0.00  0.00    +0.090 C 
ATOM     15  C   LIG    1        5.116  -5.066  -1.353  0.00  0.00    +0.240 C 
ENDBRANCH  10  11
ENDBRANCH   7  10
ENDBRANCH   3   5
BRANCH   1  16
ATOM     16  C   LIG    1       -1.295   2.059   0.019  0.00  0.00    +0.370 C 
BRANCH  16  26
ATOM     17  C   LIG    1       -0.991   3.903  -2.458  0.00  0.00    +0.360 C 
ATOM     18  N   LIG    1       -0.910   4.337  -1.061  0.00  0.00    -0.370 N 
ATOM     19  N   LIG    1       -0.683   5.648  -0.617  0.00  0.00    -0.280 NA
ATOM     20  C   LIG    1       -0.678   5.640   0.684  0.00  0.00    +0.080 A 
ATOM     21  C   LIG    1       -0.478   6.802   1.627  0.00  0.00    +0.120 C 
ATOM     22  C   LIG    1       -0.966   6.380   3.018  0.00  0.00    +0.020 C 
ATOM     23  C   LIG    1       -0.333   5.041   3.404  0.00  0.00    +0.010 C 
ATOM     24  C   LIG    1       -0.954   3.915   2.568  0.00  0.00    +0.100 C 
ATOM     25  C   LIG    1       -0.905   4.322   1.116  0.00  0.00    -0.210 A 
ATOM     26  C   LIG    1       -1.040   3.544   0.026  0.00  0.00    +0.060 A 
ENDBRANCH  16  26
ENDBRANCH   1  16
TORSDOF 5
