REMARK  Name = ZINCvU0000000GJR.0
REMARK                            x       y       z     vdW  Elec       q    Type
REMARK                         _______ _______ _______ _____ _____    ______ ____
ROOT
ATOM      1  C   LIG    1        5.949   3.552  -2.474  0.00  0.00    +0.430 C 
ATOM      2  C   LIG    1        5.389   3.204  -1.265  0.00  0.00    -0.300 C 
ATOM      3  C   LIG    1        4.115   2.479  -1.202  0.00  0.00    +0.580 C 
ATOM      4  N   LIG    1        3.572   2.148  -0.019  0.00  0.00    -0.510 N 
ATOM      5  C   LIG    1        4.151   2.442   1.156  0.00  0.00    +0.570 C 
ATOM      6  C   LIG    1        5.431   3.161   1.213  0.00  0.00    -0.160 A 
ATOM      7  C   LIG    1        6.037   3.469   2.431  0.00  0.00    +0.110 A 
ATOM      8  C   LIG    1        7.239   4.145   2.442  0.00  0.00    -0.010 A 
ATOM      9  C   LIG    1        7.851   4.522   1.257  0.00  0.00    +0.060 A 
ATOM     10  C   LIG    1        7.268   4.226   0.041  0.00  0.00    -0.010 A 
ATOM     11  O   LIG    1        3.606   2.108   2.191  0.00  0.00    -0.490 OA
ATOM     12  O   LIG    1        3.541   2.179  -2.233  0.00  0.00    -0.520 OA
ATOM     13  C   LIG    1        6.056   3.546   0.009  0.00  0.00    +0.040 A 
ENDROOT
BRANCH   4  14
ATOM     14  C   LIG    1        2.352   1.460  -0.011  0.00  0.00    +0.110 A 
ATOM     15  C   LIG    1        1.156   2.165   0.022  0.00  0.00    +0.030 A 
ATOM     16  C   LIG    1       -0.045   1.483   0.030  0.00  0.00    +0.010 A 
ATOM     17  C   LIG    1       -0.058   0.101   0.005  0.00  0.00    -0.070 A 
ATOM     18  C   LIG    1        1.131  -0.604  -0.027  0.00  0.00    +0.020 A 
ATOM     19  C   LIG    1       -1.371  -0.639   0.015  0.00  0.00    +0.090 C 
ATOM     20  C   LIG    1        2.336   0.071  -0.036  0.00  0.00    -0.060 A 
ATOM     21  C   LIG    1        3.631  -0.698  -0.072  0.00  0.00    +0.080 C 
ENDBRANCH   4  14
BRANCH   1  22
ATOM     22  N   LIG    1        5.390   3.113  -3.634  0.00  0.00    -0.620 N 
ATOM     23  H   LIG    1        4.556   2.617  -3.613  0.00  0.00    +0.430 HD
BRANCH  22  27
ATOM     24  C   LIG    1        7.253   3.892  -7.263  0.00  0.00    -0.200 A 
ATOM     25  C   LIG    1        6.049   3.177  -7.231  0.00  0.00    +0.120 A 
ATOM     26  C   LIG    1        5.440   2.923  -6.036  0.00  0.00    -0.020 A 
ATOM     27  C   LIG    1        6.014   3.374  -4.849  0.00  0.00    +0.180 A 
ATOM     28  C   LIG    1        7.208   4.090  -4.877  0.00  0.00    -0.040 A 
ATOM     29  C   LIG    1        7.827   4.343  -6.068  0.00  0.00    +0.110 A 
BRANCH  24  31
ATOM     30  C   LIG    1        9.207   4.938  -8.579  0.00  0.00    +0.070 C 
ATOM     31  C   LIG    1        7.911   4.168  -8.546  0.00  0.00    +0.390 C 
ATOM     32  O   LIG    1        7.412   3.777  -9.581  0.00  0.00    -0.460 OA
ENDBRANCH  24  31
ENDBRANCH  22  27
ENDBRANCH   1  22
TORSDOF 4
