REMARK  Name = ZINCrD000000fO2r.0
REMARK                            x       y       z     vdW  Elec       q    Type
REMARK                         _______ _______ _______ _____ _____    ______ ____
ROOT
ATOM      1  C   LIG    1        2.500   1.327  -0.013  0.00  0.00    +0.590 C 
ATOM      2  N   LIG    1        2.780   0.009  -0.030  0.00  0.00    -0.730 N 
ATOM      3  H   LIG    1        2.059  -0.640  -0.033  0.00  0.00    +0.390 HD
ATOM      4  O   LIG    1        3.404   2.141  -0.010  0.00  0.00    -0.520 OA
ENDROOT
BRANCH   1   9
ATOM      5  C   LIG    1       -0.729   3.057   0.030  0.00  0.00    -0.260 A 
ATOM      6  C   LIG    1       -1.114   1.726   0.011  0.00  0.00    +0.100 A 
ATOM      7  N   LIG    1       -0.009   0.966  -0.000  0.00  0.00    -0.530 N 
ATOM      8  H   LIG    1        0.005  -0.004  -0.012  0.00  0.00    +0.420 HD
ATOM      9  C   LIG    1        1.103   1.780   0.002  0.00  0.00    -0.070 A 
ATOM     10  C   LIG    1       -2.533   1.218   0.007  0.00  0.00    +0.160 C 
ATOM     11  C   LIG    1        0.686   3.077   0.020  0.00  0.00    -0.020 A 
ATOM     12  C   LIG    1        1.565   4.301   0.029  0.00  0.00    +0.120 C 
BRANCH   5  14
ATOM     13  C   LIG    1       -2.152   4.741   1.361  0.00  0.00    +0.070 C 
ATOM     14  C   LIG    1       -1.618   4.222   0.050  0.00  0.00    +0.430 C 
ATOM     15  O   LIG    1       -1.925   4.769  -0.989  0.00  0.00    -0.450 OA
ENDBRANCH   5  14
ENDBRANCH   1   9
BRANCH   2  16
ATOM     16  C   LIG    1        4.173  -0.444  -0.045  0.00  0.00    +0.280 C 
BRANCH  16  17
ATOM     17  C   LIG    1        4.213  -1.973  -0.063  0.00  0.00    -0.020 C 
ATOM     18  C   LIG    1        3.671  -2.507  -1.405  0.00  0.00    +0.030 C 
ATOM     19  C   LIG    1        4.849  -3.285  -2.032  0.00  0.00    +0.190 C 
ATOM     20  N   LIG    1        5.703  -3.665  -0.877  0.00  0.00    -0.460 N 
ATOM     21  C   LIG    1        5.672  -2.473   0.011  0.00  0.00    +0.200 C 
BRANCH  20  22
ATOM     22  C   LIG    1        7.008  -3.948  -1.291  0.00  0.00    +0.120 A 
ATOM     23  C   LIG    1        8.071  -3.206  -0.794  0.00  0.00    +0.000 A 
ATOM     24  C   LIG    1        9.361  -3.490  -1.199  0.00  0.00    +0.050 A 
ATOM     25  C   LIG    1        9.595  -4.506  -2.109  0.00  0.00    +0.040 A 
ATOM     26  C   LIG    1        8.534  -5.245  -2.612  0.00  0.00    +0.090 A 
ATOM     27  F   LIG    1        8.764  -6.237  -3.501  0.00  0.00    -0.120 F 
ATOM     28  F   LIG    1       10.856  -4.778  -2.508  0.00  0.00    -0.130 F 
ATOM     29  C   LIG    1        7.242  -4.968  -2.205  0.00  0.00    +0.010 A 
ENDBRANCH  20  22
ENDBRANCH  16  17
ENDBRANCH   2  16
TORSDOF 5
