REMARK  Name = ZINCqH0000033mN5.0
REMARK                            x       y       z     vdW  Elec       q    Type
REMARK                         _______ _______ _______ _____ _____    ______ ____
ROOT
ATOM      1  N   LIG    1       -1.396   3.279  -0.083  0.00  0.00    -0.620 N 
ATOM      2  C   LIG    1       -1.249   1.943   0.019  0.00  0.00    +0.710 C 
ATOM      3  N   LIG    1       -0.017   1.398   0.010  0.00  0.00    -0.680 N 
ATOM      4  H   LIG    1        0.766   1.969  -0.009  0.00  0.00    +0.410 HD
ATOM      5  O   LIG    1       -2.229   1.230   0.119  0.00  0.00    -0.570 OA
ATOM      6  C   LIG    1       -0.215   4.138  -0.204  0.00  0.00    +0.300 C 
ENDROOT
BRANCH   3   7
ATOM      7  C   LIG    1        0.133   0.004   0.022  0.00  0.00    +0.120 A 
ATOM      8  C   LIG    1       -0.767  -0.785   0.724  0.00  0.00    +0.100 A 
ATOM      9  C   LIG    1       -0.621  -2.159   0.731  0.00  0.00    +0.010 A 
ATOM     10  C   LIG    1        0.428  -2.749   0.047  0.00  0.00    +0.120 A 
ATOM     11  C   LIG    1        1.331  -1.965  -0.650  0.00  0.00    -0.020 A 
ATOM     12  F   LIG    1        0.571  -4.093   0.060  0.00  0.00    -0.130 F 
ATOM     13  C   LIG    1        1.187  -0.590  -0.664  0.00  0.00    +0.100 A 
ATOM     14  F   LIG    1        2.067   0.176  -1.344  0.00  0.00    -0.130 F 
ENDBRANCH   3   7
BRANCH   1  15
ATOM     15  C   LIG    1       -2.735   3.872  -0.073  0.00  0.00    +0.360 C 
BRANCH  15  18
ATOM     16  N   LIG    1       -4.971   4.937   2.795  0.00  0.00    -0.480 N 
ATOM     17  C   LIG    1       -4.588   4.700   1.398  0.00  0.00    +0.220 C 
ATOM     18  C   LIG    1       -3.139   4.195   1.367  0.00  0.00    +0.120 C 
ATOM     19  O   LIG    1       -2.300   5.233   1.884  0.00  0.00    -0.300 OA
ATOM     20  C   LIG    1       -2.722   5.850   3.022  0.00  0.00    +0.090 A 
ATOM     21  C   LIG    1       -1.821   6.630   3.732  0.00  0.00    +0.000 A 
ATOM     22  C   LIG    1       -2.220   7.277   4.886  0.00  0.00    +0.030 A 
ATOM     23  C   LIG    1       -3.520   7.149   5.336  0.00  0.00    -0.010 A 
ATOM     24  C   LIG    1       -4.423   6.374   4.636  0.00  0.00    +0.040 A 
ATOM     25  C   LIG    1       -4.030   5.717   3.474  0.00  0.00    +0.030 A 
BRANCH  16  27
ATOM     26  C   LIG    1       -5.841   3.952   4.861  0.00  0.00    +0.040 C 
ATOM     27  C   LIG    1       -5.209   3.669   3.497  0.00  0.00    +0.170 C 
ENDBRANCH  16  27
ENDBRANCH  15  18
ENDBRANCH   1  15
TORSDOF 4
