REMARK  Name = ZINCpk00000y1RA5.0
REMARK                            x       y       z     vdW  Elec       q    Type
REMARK                         _______ _______ _______ _____ _____    ______ ____
ROOT
ATOM      1  C   LIG    1        1.834  -1.817  -0.026  0.00  0.00    +0.600 C 
ATOM      2  N   LIG    1        0.957  -2.835   0.079  0.00  0.00    -0.600 N 
ATOM      3  C   LIG    1       -0.490  -2.580   0.097  0.00  0.00    +0.280 C 
ATOM      4  C   LIG    1       -1.149  -3.423  -0.999  0.00  0.00    +0.040 C 
ATOM      5  C   LIG    1       -0.769  -4.891  -0.813  0.00  0.00    +0.170 C 
ATOM      6  O   LIG    1       -1.209  -5.353   0.466  0.00  0.00    -0.380 OA
ATOM      7  C   LIG    1       -0.894  -6.726   0.717  0.00  0.00    +0.220 C 
ATOM      8  C   LIG    1        0.620  -6.925   0.615  0.00  0.00    +0.150 C 
ATOM      9  N   LIG    1        1.085  -6.476  -0.706  0.00  0.00    -0.530 NA
ATOM     10  C   LIG    1        2.528  -6.704  -0.862  0.00  0.00    +0.190 C 
ATOM     11  C   LIG    1        0.750  -5.057  -0.915  0.00  0.00    +0.140 C 
ATOM     12  C   LIG    1        1.427  -4.224   0.172  0.00  0.00    +0.270 C 
ATOM     13  O   LIG    1        3.021  -2.049  -0.156  0.00  0.00    -0.540 OA
ENDROOT
BRANCH   1  16
ATOM     14  N   LIG    1        1.189   1.742  -0.309  0.00  0.00    -0.290 N 
ATOM     15  C   LIG    1        1.940   0.663  -0.600  0.00  0.00    +0.320 A 
ATOM     16  C   LIG    1        1.355  -0.424   0.018  0.00  0.00    -0.260 A 
ATOM     17  C   LIG    1        0.210   0.049   0.699  0.00  0.00    +0.290 A 
ATOM     18  N   LIG    1        0.122   1.335   0.498  0.00  0.00    -0.250 NA
BRANCH  14  22
ATOM     19  C   LIG    1        1.078   5.236  -0.943  0.00  0.00    +0.100 A 
ATOM     20  C   LIG    1        2.186   5.189  -1.688  0.00  0.00    -0.070 A 
ATOM     21  S   LIG    1        2.745   3.519  -1.729  0.00  0.00    +0.180 S 
ATOM     22  C   LIG    1        1.434   3.045  -0.740  0.00  0.00    +0.260 A 
ATOM     23  N   LIG    1        0.697   4.072  -0.454  0.00  0.00    -0.460 NA
BRANCH  19  25
ATOM     24  C   LIG    1       -1.139   6.334  -1.106  0.00  0.00    +0.030 C 
ATOM     25  C   LIG    1        0.321   6.514  -0.687  0.00  0.00    +0.130 C 
ENDBRANCH  19  25
ENDBRANCH  14  22
ENDBRANCH   1  16
TORSDOF 3
