REMARK  Name = ZINCrH000004suJZ.0
REMARK                            x       y       z     vdW  Elec       q    Type
REMARK                         _______ _______ _______ _____ _____    ______ ____
ROOT
ATOM      1  N   LIG    1       -3.845   2.491   2.643  0.00  0.00    -0.630 N 
ATOM      2  H   LIG    1       -4.136   2.800   3.515  0.00  0.00    +0.420 HD
ATOM      3  C   LIG    1       -4.742   2.335   1.649  0.00  0.00    +0.490 C 
ATOM      4  O   LIG    1       -4.378   1.948   0.559  0.00  0.00    -0.430 OA
ENDROOT
BRANCH   1   9
ATOM      5  C   LIG    1       -0.013   1.086   0.008  0.00  0.00    +0.170 C 
ATOM      6  C   LIG    1       -0.718   1.572   1.248  0.00  0.00    +0.150 A 
ATOM      7  C   LIG    1       -0.073   1.818   2.408  0.00  0.00    -0.230 A 
ATOM      8  S   LIG    1       -1.265   2.363   3.586  0.00  0.00    +0.160 S 
ATOM      9  C   LIG    1       -2.505   2.209   2.418  0.00  0.00    +0.270 A 
ATOM     10  N   LIG    1       -2.012   1.797   1.290  0.00  0.00    -0.470 NA
BRANCH   7  11
ATOM     11  C   LIG    1        1.374   1.659   2.648  0.00  0.00    +0.220 A 
ATOM     12  C   LIG    1        1.905   1.954   3.906  0.00  0.00    -0.040 A 
ATOM     13  C   LIG    1        3.263   1.800   4.114  0.00  0.00    +0.080 A 
ATOM     14  C   LIG    1        4.051   1.356   3.060  0.00  0.00    -0.040 A 
ATOM     15  C   LIG    1        3.461   1.083   1.840  0.00  0.00    +0.270 A 
ATOM     16  N   LIG    1        2.163   1.232   1.667  0.00  0.00    -0.470 NA
ENDBRANCH   7  11
ENDBRANCH   1   9
BRANCH   3  17
ATOM     17  C   LIG    1       -6.197   2.641   1.893  0.00  0.00    +0.180 C 
ATOM     18  C   LIG    1       -6.821   1.619   2.874  0.00  0.00    +0.100 C 
ATOM     19  C   LIG    1       -7.415   0.584   1.938  0.00  0.00    +0.120 C 
ATOM     20  N   LIG    1       -7.468   1.093   0.753  0.00  0.00    -0.260 NA
ATOM     21  O   LIG    1       -6.978   2.419   0.701  0.00  0.00    -0.150 OA
BRANCH  19  22
ATOM     22  C   LIG    1       -7.856  -0.773   2.318  0.00  0.00    -0.020 A 
ATOM     23  C   LIG    1       -8.388  -1.632   1.354  0.00  0.00    +0.050 A 
ATOM     24  C   LIG    1       -8.800  -2.899   1.715  0.00  0.00    +0.050 A 
ATOM     25  C   LIG    1       -8.687  -3.320   3.027  0.00  0.00    +0.010 A 
ATOM     26  C   LIG    1       -8.160  -2.473   3.990  0.00  0.00    +0.100 A 
ATOM     27  F   LIG    1       -8.052  -2.891   5.270  0.00  0.00    -0.130 F 
ATOM     28  C   LIG    1       -7.739  -1.204   3.640  0.00  0.00    +0.020 A 
ENDBRANCH  19  22
ENDBRANCH   3  17
TORSDOF 4
