REMARK  Name = ZINCpe000000SXVr.0
REMARK                            x       y       z     vdW  Elec       q    Type
REMARK                         _______ _______ _______ _____ _____    ______ ____
ROOT
ATOM      1  C   LIG    1        2.945   3.467  -0.008  0.00  0.00    +0.520 C 
ATOM      2  N   LIG    1        1.632   3.162   0.003  0.00  0.00    -0.610 N 
ATOM      3  H   LIG    1        0.969   3.870   0.013  0.00  0.00    +0.430 HD
ATOM      4  O   LIG    1        3.773   2.580  -0.021  0.00  0.00    -0.490 OA
ENDROOT
BRANCH   2   5
ATOM      5  C   LIG    1        1.225   1.824   0.000  0.00  0.00    +0.300 A 
ATOM      6  N   LIG    1       -0.017   1.397   0.010  0.00  0.00    -0.300 NA
ATOM      7  N   LIG    1        0.002  -0.004   0.002  0.00  0.00    -0.310 N 
ATOM      8  C   LIG    1        1.300  -0.405  -0.013  0.00  0.00    +0.260 A 
ATOM      9  C   LIG    1        2.074   0.704  -0.014  0.00  0.00    -0.070 A 
BRANCH   7  10
ATOM     10  C   LIG    1       -1.120  -0.844   0.008  0.00  0.00    +0.160 A 
ATOM     11  C   LIG    1       -0.957  -2.223  -0.007  0.00  0.00    -0.010 A 
ATOM     12  C   LIG    1       -2.064  -3.047   0.004  0.00  0.00    +0.040 A 
ATOM     13  C   LIG    1       -3.335  -2.501   0.019  0.00  0.00    +0.000 A 
ATOM     14  C   LIG    1       -3.500  -1.129   0.028  0.00  0.00    +0.040 A 
ATOM     15  C   LIG    1       -2.397  -0.298   0.023  0.00  0.00    +0.020 A 
ENDBRANCH   7  10
ENDBRANCH   2   5
BRANCH   1  18
ATOM     16  N   LIG    1        4.692   5.200  -0.017  0.00  0.00    -0.700 N 
ATOM     17  H   LIG    1        5.354   4.492  -0.027  0.00  0.00    +0.410 HD
ATOM     18  C   LIG    1        3.379   4.895  -0.005  0.00  0.00    +0.520 C 
ATOM     19  O   LIG    1        2.550   5.782   0.007  0.00  0.00    -0.500 OA
BRANCH  16  20
ATOM     20  C   LIG    1        5.118   6.602  -0.014  0.00  0.00    +0.310 C 
BRANCH  20  21
ATOM     21  C   LIG    1        6.647   6.670  -0.028  0.00  0.00    +0.060 C 
BRANCH  21  24
ATOM     22  N   LIG    1        8.398   8.417  -0.036  0.00  0.00    -0.730 N 
ATOM     23  H   LIG    1        9.061   7.708  -0.047  0.00  0.00    +0.400 HD
ATOM     24  C   LIG    1        7.085   8.112  -0.025  0.00  0.00    +0.520 C 
ATOM     25  O   LIG    1        6.257   8.998  -0.012  0.00  0.00    -0.530 OA
BRANCH  22  27
ATOM     26  C   LIG    1       10.230   9.922   0.563  0.00  0.00    +0.030 C 
ATOM     27  C   LIG    1        8.825   9.818  -0.034  0.00  0.00    +0.220 C 
ATOM     28  C   LIG    1        8.839  10.350  -1.468  0.00  0.00    +0.020 C 
ENDBRANCH  22  27
ENDBRANCH  21  24
ENDBRANCH  20  21
ENDBRANCH  16  20
ENDBRANCH   1  18
TORSDOF 7
