REMARK  Name = ZINCpk00000y6uTh.0
REMARK                            x       y       z     vdW  Elec       q    Type
REMARK                         _______ _______ _______ _____ _____    ______ ____
ROOT
ATOM      1  C   LIG    1        1.274   1.761  -2.491  0.00  0.00    +0.210 C 
ATOM      2  C   LIG    1       -0.152   1.203  -2.531  0.00  0.00    +0.340 C 
ATOM      3  O   LIG    1       -0.835   1.567  -1.350  0.00  0.00    -0.380 OA
ATOM      4  C   LIG    1       -0.258   1.083  -0.135  0.00  0.00    +0.140 C 
ATOM      5  C   LIG    1       -1.079   1.582   1.060  0.00  0.00    +0.250 C 
ATOM      6  O   LIG    1       -0.981   3.008   1.124  0.00  0.00    -0.370 OA
ATOM      7  C   LIG    1        0.359   3.491   1.243  0.00  0.00    +0.270 C 
ATOM      8  O   LIG    1        1.132   3.037   0.129  0.00  0.00    -0.360 OA
ATOM      9  C   LIG    1        0.349   5.021   1.267  0.00  0.00    +0.100 C 
ATOM     10  C   LIG    1        0.977   2.965   2.540  0.00  0.00    +0.010 C 
ATOM     11  C   LIG    1        1.173   1.613  -0.001  0.00  0.00    +0.150 C 
ATOM     12  C   LIG    1        1.982   1.230  -1.241  0.00  0.00    +0.190 C 
ENDROOT
BRANCH   1  15
ATOM     13  C   LIG    1        2.216   5.454  -2.850  0.00  0.00    +0.100 C 
ATOM     14  C   LIG    1        2.266   3.949  -2.900  0.00  0.00    +0.520 C 
ATOM     15  N   LIG    1        1.225   3.225  -2.442  0.00  0.00    -0.690 N 
ATOM     16  H   LIG    1        0.445   3.672  -2.080  0.00  0.00    +0.410 HD
ATOM     17  O   LIG    1        3.242   3.389  -3.352  0.00  0.00    -0.560 OA
ENDBRANCH   1  15
BRANCH  12  18
ATOM     18  O   LIG    1        2.087  -0.193  -1.320  0.00  0.00    -0.560 OA
ATOM     19  H   LIG    1        2.588  -0.508  -2.085  0.00  0.00    +0.400 HD
ENDBRANCH  12  18
BRANCH   2  20
ATOM     20  O   LIG    1       -0.838   1.728  -3.669  0.00  0.00    -0.280 OA
BRANCH  20  21
ATOM     21  C   LIG    1       -2.086   1.250  -3.913  0.00  0.00    +0.130 A 
ATOM     22  C   LIG    1       -2.637   0.290  -3.076  0.00  0.00    -0.040 A 
ATOM     23  C   LIG    1       -3.908  -0.192  -3.322  0.00  0.00    +0.070 A 
ATOM     24  C   LIG    1       -4.628   0.275  -4.408  0.00  0.00    -0.070 A 
ATOM     25  C   LIG    1       -4.078   1.228  -5.246  0.00  0.00    +0.070 A 
ATOM     26 CL   LIG    1       -6.223  -0.337  -4.719  0.00  0.00    -0.070 Cl
ATOM     27  C   LIG    1       -2.809   1.716  -5.001  0.00  0.00    +0.010 A 
ENDBRANCH  20  21
ENDBRANCH   2  20
TORSDOF 4
