REMARK  Name = ZINCrH00000No58K.0
REMARK                            x       y       z     vdW  Elec       q    Type
REMARK                         _______ _______ _______ _____ _____    ______ ____
ROOT
ATOM      1  C   LIG    1       -0.017   1.388   0.010  0.00  0.00    +0.110 A 
ATOM      2  C   LIG    1        1.175   2.094   0.002  0.00  0.00    -0.020 A 
ATOM      3  C   LIG    1        2.380   1.415  -0.013  0.00  0.00    -0.080 A 
ATOM      4  C   LIG    1        2.399   0.034  -0.021  0.00  0.00    +0.040 A 
ATOM      5  C   LIG    1        1.213  -0.677  -0.013  0.00  0.00    -0.040 A 
ATOM      6  C   LIG    1        0.002  -0.004   0.002  0.00  0.00    +0.110 A 
ENDROOT
BRANCH   1   7
ATOM      7  O   LIG    1       -1.203   2.053   0.019  0.00  0.00    -0.300 OA
BRANCH   7   9
ATOM      8  C   LIG    1       -2.566   4.048   0.036  0.00  0.00    +0.070 C 
ATOM      9  C   LIG    1       -1.146   3.481   0.026  0.00  0.00    +0.170 C 
ENDBRANCH   7   9
ENDBRANCH   1   7
BRANCH   3  10
ATOM     10  C   LIG    1        3.676   2.185  -0.021  0.00  0.00    +0.260 C 
BRANCH  10  11
ATOM     11  N   LIG    1        4.082   2.442  -1.405  0.00  0.00    -0.150 NA
ATOM     12  N   LIG    1        4.217   3.607  -1.806  0.00  0.00    -0.190 NA
BRANCH  12  13
ATOM     13  C   LIG    1        4.597   3.848  -3.101  0.00  0.00    +0.260 A 
ATOM     14  N   LIG    1        4.826   2.828  -3.920  0.00  0.00    -0.440 NA
ATOM     15  C   LIG    1        5.188   3.015  -5.171  0.00  0.00    +0.310 A 
ATOM     16  C   LIG    1        5.356   4.294  -5.680  0.00  0.00    -0.060 A 
ATOM     17  C   LIG    1        5.133   5.389  -4.858  0.00  0.00    +0.110 A 
ATOM     18 CL   LIG    1        5.840   4.523  -7.332  0.00  0.00    -0.030 Cl
ATOM     19  C   LIG    1        4.747   5.163  -3.546  0.00  0.00    -0.020 A 
ATOM     20 CL   LIG    1        4.454   6.495  -2.472  0.00  0.00    -0.020 Cl
ENDBRANCH  12  13
ENDBRANCH  10  11
ENDBRANCH   3  10
BRANCH   6  21
ATOM     21  O   LIG    1       -1.165  -0.702   0.009  0.00  0.00    -0.280 OA
BRANCH  21  22
ATOM     22  C   LIG    1       -1.069  -2.127   0.000  0.00  0.00    +0.220 C 
BRANCH  22  23
ATOM     23  C   LIG    1       -2.453  -2.724   0.010  0.00  0.00    +0.520 C 
ATOM     24  N   LIG    1       -2.610  -4.062   0.004  0.00  0.00    -0.620 N 
ATOM     25  C   LIG    1       -1.435  -4.938  -0.011  0.00  0.00    +0.280 C 
ATOM     26  C   LIG    1       -3.955  -4.643   0.013  0.00  0.00    +0.290 C 
ATOM     27  O   LIG    1       -3.426  -2.000   0.023  0.00  0.00    -0.510 OA
ENDBRANCH  22  23
ENDBRANCH  21  22
ENDBRANCH   6  21
TORSDOF 8
