REMARK  Name = ZINCqH0000050tIp.0
REMARK                            x       y       z     vdW  Elec       q    Type
REMARK                         _______ _______ _______ _____ _____    ______ ____
ROOT
ATOM      1  N   LIG    1        1.999   5.519   0.988  0.00  0.00    -0.630 N 
ATOM      2  C   LIG    1        1.855   6.309   2.071  0.00  0.00    +0.710 C 
ATOM      3  N   LIG    1        2.864   6.429   2.956  0.00  0.00    -0.730 N 
ATOM      4  H   LIG    1        3.694   5.947   2.815  0.00  0.00    +0.390 HD
ATOM      5  O   LIG    1        0.815   6.913   2.248  0.00  0.00    -0.590 OA
ATOM      6  C   LIG    1        3.252   4.790   0.775  0.00  0.00    +0.280 C 
ENDROOT
BRANCH   1   7
ATOM      7  C   LIG    1        0.903   5.388   0.026  0.00  0.00    +0.350 C 
ATOM      8  C   LIG    1        1.419   5.698  -1.381  0.00  0.00    +0.040 C 
BRANCH   7  13
ATOM      9  C   LIG    1       -0.104   0.009   0.157  0.00  0.00    +0.150 C 
ATOM     10  C   LIG    1       -0.096   1.515   0.125  0.00  0.00    -0.180 A 
ATOM     11  C   LIG    1       -1.181   2.290   0.121  0.00  0.00    +0.000 A 
ATOM     12  C   LIG    1       -0.926   3.651   0.092  0.00  0.00    +0.020 A 
ATOM     13  C   LIG    1        0.366   3.980   0.064  0.00  0.00    -0.190 A 
ATOM     14  S   LIG    1        1.347   2.521   0.080  0.00  0.00    +0.100 S 
ENDBRANCH   7  13
ENDBRANCH   1   7
BRANCH   3  15
ATOM     15  C   LIG    1        2.708   7.288   4.133  0.00  0.00    +0.340 C 
BRANCH  15  16
ATOM     16  C   LIG    1        3.970   7.248   4.955  0.00  0.00    -0.090 A 
ATOM     17  C   LIG    1        4.035   6.453   6.082  0.00  0.00    +0.040 A 
ATOM     18  C   LIG    1        5.195   6.412   6.835  0.00  0.00    +0.010 A 
ATOM     19  C   LIG    1        6.288   7.175   6.468  0.00  0.00    +0.020 A 
ATOM     20  C   LIG    1        6.227   7.977   5.345  0.00  0.00    -0.030 A 
ATOM     21  C   LIG    1        5.066   8.016   4.584  0.00  0.00    +0.100 A 
BRANCH  21  22
ATOM     22  N   LIG    1        5.001   8.826   3.448  0.00  0.00    -0.500 N 
ATOM     23  C   LIG    1        5.968   8.386   2.431  0.00  0.00    +0.160 C 
ATOM     24  C   LIG    1        5.822   9.261   1.184  0.00  0.00    +0.220 C 
ATOM     25  O   LIG    1        6.003  10.633   1.546  0.00  0.00    -0.380 OA
ATOM     26  C   LIG    1        5.078  11.095   2.534  0.00  0.00    +0.220 C 
ATOM     27  C   LIG    1        5.217  10.238   3.795  0.00  0.00    +0.160 C 
ENDBRANCH  21  22
ENDBRANCH  15  16
ENDBRANCH   3  15
TORSDOF 5
