REMARK  Name = ZINCrg00001JduMY.0
REMARK                            x       y       z     vdW  Elec       q    Type
REMARK                         _______ _______ _______ _____ _____    ______ ____
ROOT
ATOM      1  C   LIG    1       -2.090  -0.583   1.201  0.00  0.00    +0.190 C 
ENDROOT
BRANCH   1   2
ATOM      2  N   LIG    1       -3.255  -1.478   1.208  0.00  0.00    -0.530 NA
ATOM      3  C   LIG    1       -2.850  -2.867   1.460  0.00  0.00    +0.190 C 
BRANCH   2   4
ATOM      4  C   LIG    1       -4.254  -1.034   2.189  0.00  0.00    +0.220 C 
BRANCH   4   6
ATOM      5  N   LIG    1       -6.589  -1.581   2.795  0.00  0.00    -0.620 N 
ATOM      6  C   LIG    1       -5.527  -1.818   2.000  0.00  0.00    +0.520 C 
ATOM      7  O   LIG    1       -5.595  -2.664   1.133  0.00  0.00    -0.500 OA
BRANCH   5   9
ATOM      8  C   LIG    1       -6.952   0.790   3.275  0.00  0.00    +0.020 C 
ATOM      9  C   LIG    1       -6.506  -0.560   3.842  0.00  0.00    +0.280 C 
ENDBRANCH   5   9
BRANCH   5  10
ATOM     10  C   LIG    1       -7.826  -2.343   2.611  0.00  0.00    +0.330 C 
BRANCH  10  11
ATOM     11  C   LIG    1       -7.783  -3.603   3.479  0.00  0.00    +0.430 C 
ATOM     12  F   LIG    1       -6.690  -4.390   3.103  0.00  0.00    -0.170 F 
ATOM     13  F   LIG    1       -8.965  -4.331   3.303  0.00  0.00    -0.180 F 
ATOM     14  F   LIG    1       -7.655  -3.239   4.823  0.00  0.00    -0.180 F 
ENDBRANCH  10  11
ENDBRANCH   5  10
ENDBRANCH   4   6
ENDBRANCH   2   4
ENDBRANCH   1   2
BRANCH   1  15
ATOM     15  C   LIG    1       -1.193  -0.922   0.009  0.00  0.00    +0.140 C 
BRANCH  15  16
ATOM     16  C   LIG    1        0.002  -0.004   0.002  0.00  0.00    -0.010 A 
ATOM     17  C   LIG    1        1.305  -0.371  -0.012  0.00  0.00    +0.140 A 
ATOM     18  N   LIG    1        2.020   0.778  -0.013  0.00  0.00    -0.300 N 
ATOM     19  N   LIG    1        1.195   1.766   0.000  0.00  0.00    -0.060 NA
ATOM     20  N   LIG    1       -0.016   1.333   0.009  0.00  0.00    -0.260 NA
BRANCH  18  21
ATOM     21  C   LIG    1        3.481   0.880  -0.026  0.00  0.00    +0.330 C 
BRANCH  21  22
ATOM     22  C   LIG    1        3.922   1.747  -1.207  0.00  0.00    +0.210 C 
BRANCH  22  23
ATOM     23  C   LIG    1        5.449   1.751  -1.295  0.00  0.00    +0.430 C 
ATOM     24  F   LIG    1        5.983   2.271  -0.111  0.00  0.00    -0.180 F 
ATOM     25  F   LIG    1        5.852   2.544  -2.375  0.00  0.00    -0.170 F 
ATOM     26  F   LIG    1        5.910   0.443  -1.479  0.00  0.00    -0.180 F 
ENDBRANCH  22  23
BRANCH  22  27
ATOM     27  O   LIG    1        3.452   3.083  -1.019  0.00  0.00    -0.510 OA
ATOM     28  H   LIG    1        3.782   3.507  -0.215  0.00  0.00    +0.390 HD
ENDBRANCH  22  27
ENDBRANCH  21  22
ENDBRANCH  18  21
ENDBRANCH  15  16
ENDBRANCH   1  15
TORSDOF 12
