REMARK  Name = ZINCrD000001YLML.0
REMARK                            x       y       z     vdW  Elec       q    Type
REMARK                         _______ _______ _______ _____ _____    ______ ____
ROOT
ATOM      1  C   LIG    1       -1.304   2.131  -0.015  0.00  0.00    +0.560 C 
ATOM      2  N   LIG    1       -2.466   1.447  -0.023  0.00  0.00    -0.720 N 
ATOM      3  H   LIG    1       -2.457   0.477  -0.030  0.00  0.00    +0.400 HD
ATOM      4  O   LIG    1       -1.316   3.347  -0.006  0.00  0.00    -0.530 OA
ENDROOT
BRANCH   1   7
ATOM      5  C   LIG    1        2.386   1.428  -0.023  0.00  0.00    +0.120 A 
ATOM      6  C   LIG    1        1.185   2.113  -0.015  0.00  0.00    +0.110 A 
ATOM      7  C   LIG    1       -0.019   1.405  -0.018  0.00  0.00    -0.120 A 
ATOM      8  C   LIG    1       -0.005   0.008  -0.028  0.00  0.00    +0.040 A 
ATOM      9  C   LIG    1        1.195  -0.670  -0.036  0.00  0.00    +0.010 A 
ATOM     10  C   LIG    1        2.392   0.032  -0.034  0.00  0.00    +0.100 A 
BRANCH   5  12
ATOM     11  C   LIG    1        3.645   3.385   0.480  0.00  0.00    +0.540 C 
ATOM     12  N   LIG    1        3.596   2.134  -0.020  0.00  0.00    -0.660 N 
ATOM     13  H   LIG    1        4.398   1.723  -0.378  0.00  0.00    +0.420 HD
ATOM     14  O   LIG    1        2.665   3.863   1.019  0.00  0.00    -0.510 OA
BRANCH  11  16
ATOM     15  C   LIG    1        4.931   5.405   0.866  0.00  0.00    +0.160 C 
ATOM     16  C   LIG    1        4.883   4.171   0.373  0.00  0.00    -0.090 C 
ENDBRANCH  11  16
ENDBRANCH   5  12
BRANCH  10  17
ATOM     17  O   LIG    1        3.572  -0.640  -0.043  0.00  0.00    -0.490 OA
ATOM     18  H   LIG    1        3.911  -0.828  -0.929  0.00  0.00    +0.390 HD
ENDBRANCH  10  17
ENDBRANCH   1   7
BRANCH   2  19
ATOM     19  C   LIG    1       -3.741   2.168  -0.021  0.00  0.00    +0.330 C 
BRANCH  19  20
ATOM     20  C   LIG    1       -4.877   1.178  -0.031  0.00  0.00    -0.140 A 
ATOM     21  C   LIG    1       -5.401   0.736  -1.232  0.00  0.00    +0.070 A 
ATOM     22  C   LIG    1       -6.436  -0.176  -1.247  0.00  0.00    -0.010 A 
ATOM     23  C   LIG    1       -6.970  -0.652  -0.051  0.00  0.00    +0.120 A 
ATOM     24  O   LIG    1       -7.974  -1.545   0.162  0.00  0.00    -0.300 OA
ATOM     25  C   LIG    1       -8.464  -1.395   1.506  0.00  0.00    +0.170 C 
ATOM     26  C   LIG    1       -7.227  -0.856   2.263  0.00  0.00    +0.020 C 
ATOM     27  C   LIG    1       -7.639   0.165   3.326  0.00  0.00    +0.040 C 
ATOM     28  C   LIG    1       -8.908  -2.744   2.075  0.00  0.00    +0.070 C 
ATOM     29  C   LIG    1       -6.443  -0.191   1.149  0.00  0.00    -0.170 A 
ATOM     30  C   LIG    1       -5.404   0.713   1.161  0.00  0.00    +0.080 A 
ENDBRANCH  19  20
ENDBRANCH   2  19
TORSDOF 6
