REMARK  Name = ZINCtV00000L6kQB.0
REMARK                            x       y       z     vdW  Elec       q    Type
REMARK                         _______ _______ _______ _____ _____    ______ ____
ROOT
ATOM      1  C   LIG    1       -4.484   0.944  -1.811  0.00  0.00    +0.020 C 
ATOM      2  C   LIG    1       -5.522   0.600  -0.740  0.00  0.00    +0.090 C 
ENDROOT
BRANCH   1   3
ATOM      3  C   LIG    1       -3.414   1.820  -1.211  0.00  0.00    +0.540 C 
ATOM      4  N   LIG    1       -2.372   1.262  -0.564  0.00  0.00    -0.720 N 
ATOM      5  H   LIG    1       -2.310   0.297  -0.484  0.00  0.00    +0.400 HD
ATOM      6  O   LIG    1       -3.492   3.026  -1.310  0.00  0.00    -0.520 OA
BRANCH   4   7
ATOM      7  C   LIG    1       -1.332   2.113   0.020  0.00  0.00    +0.290 C 
ATOM      8  C   LIG    1       -1.742   2.522   1.436  0.00  0.00    +0.040 C 
BRANCH   7   9
ATOM      9  C   LIG    1       -0.032   1.353   0.073  0.00  0.00    -0.080 A 
ATOM     10  C   LIG    1       -0.041  -0.026   0.161  0.00  0.00    +0.050 A 
ATOM     11  C   LIG    1        1.151  -0.725   0.204  0.00  0.00    +0.040 A 
ATOM     12  C   LIG    1        2.354  -0.044   0.160  0.00  0.00    -0.020 A 
ATOM     13  C   LIG    1        2.364   1.337   0.072  0.00  0.00    +0.050 A 
ATOM     14 CL   LIG    1        3.851  -0.921   0.215  0.00  0.00    -0.050 Cl
ATOM     15  C   LIG    1        1.171   2.035   0.029  0.00  0.00    -0.020 A 
ATOM     16 CL   LIG    1        1.183   3.768  -0.082  0.00  0.00    -0.040 Cl
ENDBRANCH   7   9
ENDBRANCH   4   7
ENDBRANCH   1   3
BRANCH   1  17
ATOM     17  S   LIG    1       -5.291   1.824  -3.172  0.00  0.00    +0.020 S 
BRANCH  17  24
ATOM     18  C   LIG    1       -9.681  -4.783  -4.966  0.00  0.00    +0.090 C 
ATOM     19  C   LIG    1       -8.792  -3.660  -4.496  0.00  0.00    -0.080 A 
ATOM     20  C   LIG    1       -8.833  -2.458  -5.135  0.00  0.00    +0.030 A 
ATOM     21  C   LIG    1       -8.006  -1.411  -4.699  0.00  0.00    -0.100 A 
ATOM     22  C   LIG    1       -8.020  -0.153  -5.336  0.00  0.00    -0.010 A 
ATOM     23  C   LIG    1       -7.192   0.819  -4.863  0.00  0.00    -0.020 A 
ATOM     24  C   LIG    1       -6.355   0.553  -3.769  0.00  0.00    +0.140 A 
ATOM     25  N   LIG    1       -6.342  -0.626  -3.182  0.00  0.00    -0.480 NA
ATOM     26  C   LIG    1       -8.929   0.108  -6.509  0.00  0.00    +0.120 C 
ATOM     27  C   LIG    1       -7.138  -1.618  -3.599  0.00  0.00    +0.140 A 
ATOM     28  C   LIG    1       -7.124  -2.872  -2.965  0.00  0.00    -0.060 A 
ATOM     29  C   LIG    1       -6.209  -3.116  -1.792  0.00  0.00    +0.110 C 
ATOM     30  C   LIG    1       -7.939  -3.865  -3.414  0.00  0.00    +0.030 A 
ENDBRANCH  17  24
ENDBRANCH   1  17
TORSDOF 5
