REMARK  Name = ZINCtV00000L6kqb.1
REMARK                            x       y       z     vdW  Elec       q    Type
REMARK                         _______ _______ _______ _____ _____    ______ ____
ROOT
ATOM      1  C   LIG    1       -7.099  -2.739  -1.072  0.00  0.00    -0.060 A 
ATOM      2  C   LIG    1       -8.054  -2.360  -2.006  0.00  0.00    +0.010 A 
ATOM      3  C   LIG    1       -7.690  -1.577  -3.085  0.00  0.00    +0.090 A 
ATOM      4  C   LIG    1       -6.371  -1.167  -3.240  0.00  0.00    -0.140 A 
ATOM      5  S   LIG    1       -5.937  -0.173  -4.626  0.00  0.00    +0.040 S 
ATOM      6  C   LIG    1       -4.187  -0.339  -4.716  0.00  0.00    -0.130 A 
ATOM      7  C   LIG    1       -3.531  -0.002  -5.893  0.00  0.00    +0.070 A 
ATOM      8  C   LIG    1       -2.158  -0.129  -5.985  0.00  0.00    +0.030 A 
ATOM      9  C   LIG    1       -1.434  -0.593  -4.902  0.00  0.00    +0.050 A 
ATOM     10  C   LIG    1       -2.079  -0.929  -3.728  0.00  0.00    -0.020 A 
ATOM     11  C   LIG    1       -3.460  -0.804  -3.624  0.00  0.00    +0.150 A 
ATOM     12  N   LIG    1       -4.078  -1.149  -2.423  0.00  0.00    -0.490 N 
ATOM     13  C   LIG    1       -3.336  -1.100  -1.298  0.00  0.00    +0.520 C 
ATOM     14  O   LIG    1       -3.788  -1.524  -0.255  0.00  0.00    -0.480 OA
ATOM     15  C   LIG    1       -5.409  -1.548  -2.307  0.00  0.00    +0.160 A 
ATOM     16  C   LIG    1       -5.782  -2.330  -1.222  0.00  0.00    +0.070 A 
ENDROOT
BRANCH   1  18
ATOM     17  C   LIG    1       -9.338  -3.991   0.046  0.00  0.00    +0.140 C 
ATOM     18  S   LIG    1       -7.561  -3.738   0.304  0.00  0.00    -0.090 S 
ENDBRANCH   1  18
BRANCH  13  19
ATOM     19  C   LIG    1       -1.946  -0.519  -1.337  0.00  0.00    +0.230 C 
BRANCH  19  20
ATOM     20  N   LIG    1       -1.646   0.120  -0.049  0.00  0.00    -0.670 NA
ATOM     21  H   LIG    1       -1.760  -0.532   0.713  0.00  0.00    +0.360 HD
BRANCH  20  22
ATOM     22  C   LIG    1       -0.296   0.699  -0.050  0.00  0.00    +0.190 C 
ATOM     23  C   LIG    1       -0.343   2.101  -0.660  0.00  0.00    +0.050 C 
BRANCH  22  24
ATOM     24  C   LIG    1        0.215   0.783   1.365  0.00  0.00    -0.090 A 
ATOM     25  C   LIG    1       -0.635   1.168   2.385  0.00  0.00    +0.050 A 
ATOM     26  C   LIG    1       -0.168   1.241   3.684  0.00  0.00    +0.030 A 
ATOM     27  C   LIG    1        1.153   0.940   3.962  0.00  0.00    -0.030 A 
ATOM     28  C   LIG    1        2.005   0.560   2.939  0.00  0.00    +0.020 A 
ATOM     29 CL   LIG    1        1.742   1.038   5.592  0.00  0.00    -0.070 Cl
ATOM     30  C   LIG    1        1.536   0.483   1.642  0.00  0.00    +0.030 A 
ENDBRANCH  22  24
ENDBRANCH  20  22
ENDBRANCH  19  20
ENDBRANCH  13  19
TORSDOF 5
