REMARK  Name = ZINCrg000000q2Qu.0
REMARK                            x       y       z     vdW  Elec       q    Type
REMARK                         _______ _______ _______ _____ _____    ______ ____
ROOT
ATOM      1  C   LIG    1        7.843  -0.791   1.686  0.00  0.00    +0.280 C 
ENDROOT
BRANCH   1   2
ATOM      2  N   LIG    1        8.426  -2.124   1.511  0.00  0.00    -1.100 NA
ATOM      3  H   LIG    1        7.886  -2.914   1.671  0.00  0.00    +0.430 HD
BRANCH   2   4
ATOM      4  S   LIG    1       10.006  -2.282   1.042  0.00  0.00    +2.710 S 
ATOM      5  O   LIG    1       10.181  -1.422  -0.075  0.00  0.00    -0.950 OA
ATOM      6  O   LIG    1       10.274  -3.677   0.999  0.00  0.00    -0.930 OA
BRANCH   4   8
ATOM      7  C   LIG    1       11.051  -2.159   3.595  0.00  0.00    -0.160 A 
ATOM      8  C   LIG    1       11.003  -1.624   2.338  0.00  0.00    -0.610 A 
ATOM      9  C   LIG    1       11.806  -0.519   2.187  0.00  0.00    +0.090 A 
ATOM     10  C   LIG    1       12.492  -0.162   3.279  0.00  0.00    -0.070 A 
ATOM     11  S   LIG    1       12.161  -1.216   4.580  0.00  0.00    +0.320 S 
BRANCH   7  12
ATOM     12  C   LIG    1       10.300  -3.332   4.049  0.00  0.00    +0.530 C 
ATOM     13  O   LIG    1        9.480  -3.850   3.315  0.00  0.00    -0.470 OA
BRANCH  12  15
ATOM     14  C   LIG    1        9.738  -5.000   5.663  0.00  0.00    +0.290 C 
ATOM     15  O   LIG    1       10.518  -3.837   5.280  0.00  0.00    -0.350 OA
ENDBRANCH  12  15
ENDBRANCH   7  12
ENDBRANCH   4   8
ENDBRANCH   2   4
ENDBRANCH   1   2
BRANCH   1  16
ATOM     16  C   LIG    1        6.318  -0.902   1.724  0.00  0.00    +0.020 C 
BRANCH  16  17
ATOM     17  C   LIG    1        5.710   0.490   1.907  0.00  0.00    +0.320 C 
BRANCH  17  18
ATOM     18  N   LIG    1        4.249   0.383   1.944  0.00  0.00    -0.580 N 
ATOM     19  C   LIG    1        3.535   0.200   3.063  0.00  0.00    +0.700 C 
ATOM     20  N   LIG    1        2.208   0.137   2.821  0.00  0.00    -0.710 N 
ATOM     21  H   LIG    1        1.502   0.010   3.473  0.00  0.00    +0.440 HD
ATOM     22  C   LIG    1        2.054   0.298   1.379  0.00  0.00    +0.110 C 
ATOM     23  C   LIG    1        1.170   1.503   1.025  0.00  0.00    +0.050 C 
ATOM     24  C   LIG    1       -0.269   0.947   1.097  0.00  0.00    +0.030 C 
ATOM     25  C   LIG    1       -0.163  -0.578   0.916  0.00  0.00    +0.030 C 
ATOM     26  C   LIG    1        1.337  -0.900   0.739  0.00  0.00    +0.050 C 
ATOM     27  O   LIG    1        4.026   0.102   4.170  0.00  0.00    -0.540 OA
ATOM     28  C   LIG    1        3.453   0.458   0.853  0.00  0.00    +0.540 C 
ATOM     29  O   LIG    1        3.794   0.618  -0.299  0.00  0.00    -0.450 OA
ENDBRANCH  17  18
ENDBRANCH  16  17
ENDBRANCH   1  16
TORSDOF 8
