REMARK  Name = ZINCrH000004tYd7.0
REMARK                            x       y       z     vdW  Elec       q    Type
REMARK                         _______ _______ _______ _____ _____    ______ ____
ROOT
ATOM      1  O   LIG    1       -2.750   7.250  -1.520  0.00  0.00    -0.510 OA
ATOM      2  C   LIG    1       -3.265   8.052  -0.770  0.00  0.00    +0.520 C 
ATOM      3  N   LIG    1       -4.426   8.644  -1.111  0.00  0.00    -0.620 N 
ATOM      4  C   LIG    1       -5.071   9.615  -0.214  0.00  0.00    +0.280 C 
ATOM      5  C   LIG    1       -5.384  10.884  -1.022  0.00  0.00    +0.190 C 
ATOM      6  N   LIG    1       -6.168  10.521  -2.210  0.00  0.00    -0.480 N 
ATOM      7  C   LIG    1       -5.402   9.647  -3.108  0.00  0.00    +0.190 C 
ATOM      8  C   LIG    1       -5.087   8.331  -2.388  0.00  0.00    +0.300 C 
ENDROOT
BRANCH   6   9
ATOM      9  C   LIG    1       -6.614  11.662  -2.883  0.00  0.00    +0.120 A 
ATOM     10  C   LIG    1       -6.112  12.911  -2.544  0.00  0.00    -0.030 A 
ATOM     11  C   LIG    1       -6.551  14.036  -3.215  0.00  0.00    +0.040 A 
ATOM     12  C   LIG    1       -7.499  13.921  -4.215  0.00  0.00    +0.000 A 
ATOM     13  C   LIG    1       -8.006  12.679  -4.552  0.00  0.00    +0.050 A 
ATOM     14  C   LIG    1       -7.567  11.549  -3.889  0.00  0.00    -0.050 A 
ATOM     15 CL   LIG    1       -8.204   9.991  -4.313  0.00  0.00    -0.060 Cl
ENDBRANCH   6   9
BRANCH   2  16
ATOM     16  C   LIG    1       -2.606   8.387   0.543  0.00  0.00    +0.150 C 
BRANCH  16  17
ATOM     17  C   LIG    1       -1.330   7.596   0.681  0.00  0.00    +0.080 A 
ATOM     18  C   LIG    1       -0.151   8.183   0.914  0.00  0.00    -0.060 A 
ATOM     19  S   LIG    1        1.080   6.926   1.016  0.00  0.00    +0.110 S 
ATOM     20  C   LIG    1       -0.152   5.703   0.716  0.00  0.00    +0.110 A 
ATOM     21  N   LIG    1       -1.308   6.288   0.580  0.00  0.00    -0.400 NA
BRANCH  20  22
ATOM     22  C   LIG    1        0.087   4.246   0.637  0.00  0.00    +0.190 A 
ATOM     23  C   LIG    1        1.379   3.747   0.802  0.00  0.00    -0.010 A 
ATOM     24  C   LIG    1        1.586   2.380   0.725  0.00  0.00    +0.070 A 
ATOM     25  C   LIG    1        0.495   1.557   0.487  0.00  0.00    -0.020 A 
ATOM     26  C   LIG    1       -0.759   2.120   0.328  0.00  0.00    +0.270 A 
ATOM     27  N   LIG    1       -0.931   3.423   0.411  0.00  0.00    -0.440 NA
ENDBRANCH  20  22
ENDBRANCH  16  17
ENDBRANCH   2  16
TORSDOF 4
