REMARK  Name = ZINCpk00000xI9xW.0
REMARK                            x       y       z     vdW  Elec       q    Type
REMARK                         _______ _______ _______ _____ _____    ______ ____
ROOT
ATOM      1  C   LIG    1        1.332  -0.672   0.034  0.00  0.00    -0.250 C 
ATOM      2  C   LIG    1        0.115  -0.142  -0.213  0.00  0.00    +0.260 C 
ATOM      3  N   LIG    1       -0.070   1.210  -0.253  0.00  0.00    -0.640 N 
ATOM      4  H   LIG    1       -0.961   1.546  -0.438  0.00  0.00    +0.430 HD
ATOM      5  C   LIG    1        0.911   2.100  -0.056  0.00  0.00    +0.710 C 
ATOM      6  N   LIG    1        2.180   1.724   0.202  0.00  0.00    -0.710 N 
ATOM      7  H   LIG    1        2.875   2.385   0.341  0.00  0.00    +0.440 HD
ATOM      8  O   LIG    1        0.650   3.286  -0.111  0.00  0.00    -0.550 OA
ATOM      9  C   LIG    1        2.485   0.284   0.265  0.00  0.00    +0.380 C 
ENDROOT
BRANCH   9  10
ATOM     10  C   LIG    1        3.065  -0.008   1.624  0.00  0.00    -0.210 A 
ATOM     11  C   LIG    1        4.162  -0.732   1.853  0.00  0.00    +0.050 A 
ATOM     12  C   LIG    1        4.507  -0.863   3.187  0.00  0.00    +0.000 A 
ATOM     13  C   LIG    1        3.686  -0.254   4.042  0.00  0.00    -0.050 A 
ATOM     14  S   LIG    1        2.396   0.546   3.154  0.00  0.00    +0.110 S 
ENDBRANCH   9  10
BRANCH   1  15
ATOM     15  C   LIG    1        1.525  -2.073   0.075  0.00  0.00    +0.540 C 
ATOM     16  O   LIG    1        0.566  -2.821   0.030  0.00  0.00    -0.500 OA
BRANCH  15  17
ATOM     17  O   LIG    1        2.773  -2.580   0.164  0.00  0.00    -0.340 OA
BRANCH  17  19
ATOM     18  C   LIG    1        4.371  -4.388   0.302  0.00  0.00    +0.070 C 
ATOM     19  C   LIG    1        2.893  -4.003   0.201  0.00  0.00    +0.200 C 
ENDBRANCH  17  19
ENDBRANCH  15  17
ENDBRANCH   1  15
BRANCH   2  20
ATOM     20  C   LIG    1       -1.058  -1.058  -0.449  0.00  0.00    +0.180 C 
BRANCH  20  21
ATOM     21  S   LIG    1       -2.029  -1.198   1.072  0.00  0.00    +0.050 S 
BRANCH  21  22
ATOM     22  C   LIG    1       -3.297  -2.293   0.526  0.00  0.00    +0.280 A 
ATOM     23  N   LIG    1       -3.410  -2.807  -0.681  0.00  0.00    -0.560 NA
ATOM     24  C   LIG    1       -4.490  -3.592  -0.737  0.00  0.00    +0.490 A 
ATOM     25  N   LIG    1       -5.080  -3.589   0.434  0.00  0.00    -0.360 NA
ATOM     26  N   LIG    1       -4.322  -2.757   1.273  0.00  0.00    -0.460 N 
ATOM     27  H   LIG    1       -4.500  -2.554   2.205  0.00  0.00    +0.450 HD
BRANCH  24  28
ATOM     28  N   LIG    1       -4.921  -4.301  -1.859  0.00  0.00    -0.820 N 
ATOM     29  H   LIG    1       -5.719  -4.849  -1.810  0.00  0.00    +0.420 HD
ATOM     30  H   LIG    1       -4.421  -4.246  -2.689  0.00  0.00    +0.420 HD
ENDBRANCH  24  28
ENDBRANCH  21  22
ENDBRANCH  20  21
ENDBRANCH   2  20
TORSDOF 8
