REMARK  Name = ZINCqH0000007r0O.0
REMARK                            x       y       z     vdW  Elec       q    Type
REMARK                         _______ _______ _______ _____ _____    ______ ____
ROOT
ATOM      1  C   LIG    1       -1.217   3.418   0.675  0.00  0.00    +0.550 C 
ATOM      2  N   LIG    1       -1.206   2.100   0.031  0.00  0.00    -0.740 N 
ATOM      3  H   LIG    1       -2.011   1.739  -0.373  0.00  0.00    +0.410 HD
ATOM      4  C   LIG    1       -0.017   1.379   0.010  0.00  0.00    +0.240 A 
ATOM      5  C   LIG    1        0.002  -0.004   0.002  0.00  0.00    -0.050 A 
ATOM      6  C   LIG    1        1.212  -0.671  -0.009  0.00  0.00    +0.080 A 
ATOM      7  C   LIG    1        2.406   0.033  -0.011  0.00  0.00    -0.040 A 
ATOM      8  C   LIG    1        2.404   1.413  -0.006  0.00  0.00    +0.110 A 
ATOM      9  C   LIG    1        1.192   2.098   0.002  0.00  0.00    -0.200 A 
ATOM     10  C   LIG    1        1.133   3.571  -0.002  0.00  0.00    +0.570 C 
ATOM     11  O   LIG    1        2.125   4.226  -0.261  0.00  0.00    -0.530 OA
ATOM     12  N   LIG    1       -0.034   4.184   0.284  0.00  0.00    -0.610 N 
ENDROOT
BRANCH   1  16
ATOM     13  C   LIG    1       -1.230   2.903   4.917  0.00  0.00    +0.130 A 
ATOM     14  C   LIG    1       -0.648   4.030   4.356  0.00  0.00    -0.080 A 
ATOM     15  C   LIG    1       -0.646   4.194   2.984  0.00  0.00    +0.050 A 
ATOM     16  C   LIG    1       -1.221   3.236   2.171  0.00  0.00    -0.160 A 
ATOM     17  C   LIG    1       -1.807   2.114   2.728  0.00  0.00    +0.080 A 
ATOM     18  C   LIG    1       -1.807   1.943   4.099  0.00  0.00    -0.120 A 
ATOM     19  C   LIG    1       -2.440   0.717   4.705  0.00  0.00    +0.100 C 
BRANCH  13  21
ATOM     20  C   LIG    1       -0.621   3.768   7.047  0.00  0.00    +0.250 C 
ATOM     21  O   LIG    1       -1.234   2.739   6.266  0.00  0.00    -0.310 OA
ENDBRANCH  13  21
ENDBRANCH   1  16
BRANCH  12  22
ATOM     22  C   LIG    1       -0.119   5.645   0.201  0.00  0.00    +0.320 C 
BRANCH  22  23
ATOM     23  C   LIG    1       -0.541   6.051  -1.212  0.00  0.00    +0.130 C 
ATOM     24  C   LIG    1       -0.515   7.589  -1.360  0.00  0.00    +0.010 C 
ATOM     25  C   LIG    1       -1.732   7.900  -2.260  0.00  0.00    +0.010 C 
ATOM     26  C   LIG    1       -2.348   6.514  -2.550  0.00  0.00    +0.200 C 
ATOM     27  O   LIG    1       -1.916   5.680  -1.453  0.00  0.00    -0.370 OA
ENDBRANCH  22  23
ENDBRANCH  12  22
TORSDOF 4
