REMARK  Name = ZINC650000002yp6.0
REMARK                            x       y       z     vdW  Elec       q    Type
REMARK                         _______ _______ _______ _____ _____    ______ ____
ROOT
ATOM      1  C   LIG    1        1.139   3.547   0.010  0.00  0.00    +0.190 C 
ATOM      2  C   LIG    1        2.521   4.189  -0.125  0.00  0.00    +0.090 C 
ENDROOT
BRANCH   1   3
ATOM      3  N   LIG    1        0.522   3.974   1.274  0.00  0.00    -0.630 N 
ATOM      4  H   LIG    1       -0.389   3.551   1.363  0.00  0.00    +0.440 HD
ATOM      5  H   LIG    1        0.429   4.979   1.280  0.00  0.00    +0.440 HD
ATOM      6  H   LIG    1        1.104   3.685   2.046  0.00  0.00    +0.430 HD
ENDBRANCH   1   3
BRANCH   1   7
ATOM      7  C   LIG    1        1.280   2.024   0.001  0.00  0.00    +0.210 C 
BRANCH   7   9
ATOM      8  C   LIG    1        0.002  -0.004   0.002  0.00  0.00    +0.240 C 
ATOM      9  O   LIG    1       -0.017   1.425   0.010  0.00  0.00    -0.400 OA
ENDBRANCH   7   9
ENDBRANCH   1   7
TORSDOF 3
