REMARK  Name = ZINCrH000004vH1C.0
REMARK                            x       y       z     vdW  Elec       q    Type
REMARK                         _______ _______ _______ _____ _____    ______ ____
ROOT
ATOM      1  C   LIG    1       -1.754  -2.084  -5.327  0.00  0.00    +0.110 A 
ATOM      2  C   LIG    1       -2.861  -1.642  -5.979  0.00  0.00    +0.090 A 
ATOM      3  C   LIG    1       -3.336  -2.701  -6.791  0.00  0.00    -0.110 A 
ATOM      4  C   LIG    1       -4.418  -2.829  -7.670  0.00  0.00    +0.080 A 
ATOM      5  C   LIG    1       -4.628  -4.010  -8.322  0.00  0.00    -0.010 A 
ATOM      6  C   LIG    1       -3.777  -5.089  -8.122  0.00  0.00    +0.050 A 
ATOM      7  C   LIG    1       -2.705  -4.987  -7.262  0.00  0.00    -0.010 A 
ATOM      8  C   LIG    1       -2.471  -3.794  -6.586  0.00  0.00    +0.120 A 
ATOM      9  N   LIG    1       -1.510  -3.394  -5.686  0.00  0.00    -0.480 N 
ENDROOT
BRANCH   1  13
ATOM     10  C   LIG    1       -0.180   0.253  -3.151  0.00  0.00    +0.170 A 
ATOM     11  N   LIG    1        0.567  -0.805  -3.028  0.00  0.00    -0.370 NA
ATOM     12  O   LIG    1        0.144  -1.707  -3.720  0.00  0.00    +0.080 OA
ATOM     13  C   LIG    1       -0.949  -1.295  -4.383  0.00  0.00    +0.240 A 
ATOM     14  N   LIG    1       -1.159  -0.039  -4.020  0.00  0.00    -0.430 NA
BRANCH  10  15
ATOM     15  C   LIG    1        0.021   1.571  -2.449  0.00  0.00    +0.430 C 
BRANCH  15  22
ATOM     16  O   LIG    1       -2.460   2.335  -2.240  0.00  0.00    -0.530 OA
ATOM     17  C   LIG    1       -1.971   1.998  -1.182  0.00  0.00    +0.520 C 
ATOM     18  C   LIG    1       -2.818   2.091   0.054  0.00  0.00    +0.070 C 
ATOM     19  C   LIG    1       -2.208   1.239   1.170  0.00  0.00    +0.020 C 
ATOM     20  C   LIG    1       -0.720   1.575   1.273  0.00  0.00    +0.030 C 
ATOM     21  C   LIG    1       -0.013   1.086   0.008  0.00  0.00    +0.250 C 
ATOM     22  N   LIG    1       -0.710   1.565  -1.179  0.00  0.00    -0.600 N 
ENDBRANCH  15  22
ENDBRANCH  10  15
ENDBRANCH   1  13
BRANCH   9  23
ATOM     23  C   LIG    1       -0.408  -4.223  -5.190  0.00  0.00    +0.350 C 
BRANCH  23  24
ATOM     24  C   LIG    1       -0.856  -4.965  -3.929  0.00  0.00    +0.440 C 
ATOM     25  F   LIG    1       -1.220  -4.037  -2.947  0.00  0.00    -0.180 F 
ATOM     26  F   LIG    1        0.196  -5.756  -3.455  0.00  0.00    -0.170 F 
ATOM     27  F   LIG    1       -1.953  -5.779  -4.231  0.00  0.00    -0.170 F 
ENDBRANCH  23  24
ENDBRANCH   9  23
TORSDOF 5
