REMARK  Name = ZINCqH0000051J6I.0
REMARK                            x       y       z     vdW  Elec       q    Type
REMARK                         _______ _______ _______ _____ _____    ______ ____
ROOT
ATOM      1  O   LIG    1        5.426   1.593  -0.041  0.00  0.00    -0.480 OA
ATOM      2  C   LIG    1        4.714   2.583  -0.029  0.00  0.00    +0.560 A 
ATOM      3  C   LIG    1        3.306   2.461  -0.016  0.00  0.00    -0.080 A 
ATOM      4  C   LIG    1        2.548   3.628  -0.003  0.00  0.00    +0.120 A 
ATOM      5  C   LIG    1        1.144   3.191   0.008  0.00  0.00    -0.120 A 
ATOM      6  C   LIG    1       -0.079   3.858   0.023  0.00  0.00    +0.100 A 
ATOM      7  C   LIG    1       -1.251   3.134   0.030  0.00  0.00    +0.000 A 
ATOM      8  C   LIG    1       -1.216   1.748   0.017  0.00  0.00    +0.070 A 
ATOM      9  C   LIG    1       -0.013   1.076   0.008  0.00  0.00    +0.020 A 
ATOM     10  C   LIG    1        1.182   1.787   0.000  0.00  0.00    +0.090 A 
ATOM     11  N   LIG    1        3.157   4.824  -0.002  0.00  0.00    -0.490 NA
ATOM     12  C   LIG    1        4.457   4.919  -0.014  0.00  0.00    +0.570 A 
ATOM     13  O   LIG    1        2.475   1.399  -0.014  0.00  0.00    -0.160 OA
ATOM     14  N   LIG    1        5.254   3.821  -0.027  0.00  0.00    -0.520 N 
ENDROOT
BRANCH  14  15
ATOM     15  C   LIG    1        6.710   3.979  -0.040  0.00  0.00    +0.390 C 
BRANCH  15  16
ATOM     16  C   LIG    1        7.222   4.026   1.377  0.00  0.00    -0.140 A 
ATOM     17  C   LIG    1        7.529   5.240   1.960  0.00  0.00    +0.100 A 
ATOM     18  C   LIG    1        7.994   5.284   3.263  0.00  0.00    -0.070 A 
ATOM     19  C   LIG    1        8.163   4.112   3.978  0.00  0.00    +0.090 A 
ATOM     20  C   LIG    1        7.864   2.895   3.395  0.00  0.00    -0.200 A 
ATOM     21  C   LIG    1        8.056   1.623   4.183  0.00  0.00    +0.300 C 
ATOM     22  O   LIG    1        7.350   0.558   3.540  0.00  0.00    -0.380 OA
ATOM     23  C   LIG    1        7.609   0.482   2.133  0.00  0.00    +0.430 C 
ATOM     24  O   LIG    1        7.088   1.659   1.509  0.00  0.00    -0.290 OA
ATOM     25 CL   LIG    1        8.371   6.811   3.998  0.00  0.00    -0.060 Cl
ATOM     26  C   LIG    1        7.391   2.849   2.093  0.00  0.00    +0.160 A 
ENDBRANCH  15  16
ENDBRANCH  14  15
TORSDOF 2
