REMARK  Name = ZINCpk00000KfLES.0
REMARK                            x       y       z     vdW  Elec       q    Type
REMARK                         _______ _______ _______ _____ _____    ______ ____
ROOT
ATOM      1  C   LIG    1       -0.419  -4.945  -0.021  0.00  0.00    +0.120 A 
ATOM      2  C   LIG    1       -0.544  -4.269   1.187  0.00  0.00    -0.010 A 
ATOM      3  C   LIG    1       -0.814  -2.914   1.193  0.00  0.00    +0.060 A 
ATOM      4  C   LIG    1       -0.961  -2.232  -0.001  0.00  0.00    -0.140 A 
ATOM      5  C   LIG    1       -0.843  -2.903  -1.204  0.00  0.00    +0.060 A 
ATOM      6  C   LIG    1       -0.567  -4.256  -1.218  0.00  0.00    -0.040 A 
ENDROOT
BRANCH   1  11
ATOM      7  C   LIG    1        0.395  -8.286  -1.380  0.00  0.00    +0.000 C 
ATOM      8  C   LIG    1       -0.622  -9.108  -0.582  0.00  0.00    +0.030 C 
ATOM      9  C   LIG    1       -0.738  -8.529   0.830  0.00  0.00    +0.040 C 
ATOM     10  C   LIG    1       -1.149  -7.058   0.741  0.00  0.00    +0.190 C 
ATOM     11  N   LIG    1       -0.144  -6.314  -0.030  0.00  0.00    -0.490 N 
ATOM     12  C   LIG    1       -0.048  -6.822  -1.405  0.00  0.00    +0.220 C 
BRANCH   7  16
ATOM     13  N   LIG    1        0.840 -10.090  -3.013  0.00  0.00    -0.850 N 
ATOM     14  H   LIG    1        0.890 -10.429  -3.920  0.00  0.00    +0.400 HD
ATOM     15  H   LIG    1        1.055 -10.670  -2.266  0.00  0.00    +0.400 HD
ATOM     16  C   LIG    1        0.472  -8.813  -2.790  0.00  0.00    +0.520 C 
ATOM     17  O   LIG    1        0.203  -8.087  -3.724  0.00  0.00    -0.540 OA
ENDBRANCH   7  16
ENDBRANCH   1  11
BRANCH   4  18
ATOM     18  C   LIG    1       -1.256  -0.754   0.010  0.00  0.00    +0.340 C 
BRANCH  18  19
ATOM     19  N   LIG    1        0.002  -0.004   0.002  0.00  0.00    -0.740 N 
ATOM     20  H   LIG    1        0.849  -0.478  -0.009  0.00  0.00    +0.400 HD
ATOM     21  C   LIG    1       -0.016   1.344   0.009  0.00  0.00    +0.710 C 
ATOM     22  N   LIG    1        1.142   2.033   0.002  0.00  0.00    -0.660 N 
ATOM     23  H   LIG    1        1.988   1.560  -0.009  0.00  0.00    +0.410 HD
ATOM     24  O   LIG    1       -1.077   1.937   0.018  0.00  0.00    -0.580 OA
BRANCH  22  25
ATOM     25  C   LIG    1        1.123   3.442   0.010  0.00  0.00    +0.020 A 
ATOM     26  C   LIG    1        2.209   4.256   0.004  0.00  0.00    +0.200 A 
ATOM     27  N   LIG    1        1.760   5.538   0.015  0.00  0.00    -0.480 N 
ATOM     28  H   LIG    1        2.311   6.336   0.014  0.00  0.00    +0.440 HD
ATOM     29  N   LIG    1        0.360   5.503   0.028  0.00  0.00    -0.280 NA
ATOM     30  C   LIG    1       -0.022   4.252   0.019  0.00  0.00    +0.270 A 
ENDBRANCH  22  25
ENDBRANCH  18  19
ENDBRANCH   4  18
TORSDOF 5
