REMARK  Name = ZINCpe00000FU7PV.0
REMARK                            x       y       z     vdW  Elec       q    Type
REMARK                         _______ _______ _______ _____ _____    ______ ____
ROOT
ATOM      1  C   LIG    1       -0.983   1.332  -2.144  0.00  0.00    +0.600 C 
ATOM      2  N   LIG    1       -0.603   1.688  -0.900  0.00  0.00    -0.660 N 
ATOM      3  C   LIG    1        0.199   1.080   0.175  0.00  0.00    +0.360 C 
ATOM      4  C   LIG    1       -0.595   1.924   1.161  0.00  0.00    -0.590 C 
ATOM      5  C   LIG    1        0.169   2.491   2.357  0.00  0.00    +0.030 C 
ATOM      6  C   LIG    1       -0.841   2.809   3.478  0.00  0.00    +0.110 C 
ATOM      7  C   LIG    1       -1.784   1.583   3.595  0.00  0.00    -0.280 C 
ATOM      8  S   LIG    1       -2.095   1.148   1.840  0.00  0.00    +2.410 S 
ATOM      9  O   LIG    1       -2.013  -0.261   1.677  0.00  0.00    -0.920 OA
ATOM     10  O   LIG    1       -3.241   1.849   1.376  0.00  0.00    -0.910 OA
ATOM     11  C   LIG    1       -0.808   2.855  -0.025  0.00  0.00    +0.370 C 
ATOM     12  O   LIG    1       -0.569   0.299  -2.633  0.00  0.00    -0.510 OA
ENDROOT
BRANCH   1  20
ATOM     13  C   LIG    1       -0.615   1.632  -4.998  0.00  0.00    +0.120 C 
ATOM     14  C   LIG    1       -1.734   2.350  -4.289  0.00  0.00    -0.060 A 
ATOM     15  C   LIG    1       -2.600   3.157  -5.002  0.00  0.00    +0.090 A 
ATOM     16  C   LIG    1       -3.627   3.822  -4.350  0.00  0.00    +0.020 A 
ATOM     17  C   LIG    1       -3.793   3.678  -2.984  0.00  0.00    +0.040 A 
ATOM     18  C   LIG    1       -2.938   2.870  -2.263  0.00  0.00    +0.040 A 
ATOM     19  F   LIG    1       -2.443   3.303  -6.336  0.00  0.00    -0.130 F 
ATOM     20  C   LIG    1       -1.902   2.198  -2.912  0.00  0.00    -0.110 A 
ENDBRANCH   1  20
BRANCH   5  21
ATOM     21  C   LIG    1        0.887   3.752   1.949  0.00  0.00    +0.530 C 
ATOM     22  N   LIG    1        2.234   3.778   1.909  0.00  0.00    -0.620 N 
ATOM     23  C   LIG    1        2.998   2.554   2.163  0.00  0.00    +0.290 C 
ATOM     24  C   LIG    1        2.934   5.030   1.612  0.00  0.00    +0.300 C 
ATOM     25  O   LIG    1        0.253   4.743   1.656  0.00  0.00    -0.520 OA
ENDBRANCH   5  21
TORSDOF 2
