REMARK  Name = ZINCqH00000050ba.0
REMARK                            x       y       z     vdW  Elec       q    Type
REMARK                         _______ _______ _______ _____ _____    ______ ____
ROOT
ATOM      1  N   LIG    1        2.507   7.749   0.018  0.00  0.00    -0.660 N 
ATOM      2  H   LIG    1        1.662   7.848   0.484  0.00  0.00    +0.410 HD
ATOM      3  C   LIG    1        2.745   6.644  -0.716  0.00  0.00    +0.590 C 
ATOM      4  O   LIG    1        3.763   6.561  -1.378  0.00  0.00    -0.500 OA
ENDROOT
BRANCH   3   5
ATOM      5  C   LIG    1        1.777   5.539  -0.716  0.00  0.00    -0.230 A 
ATOM      6  C   LIG    1        1.919   4.403  -1.407  0.00  0.00    +0.140 A 
ATOM      7  C   LIG    1        0.876   3.474  -1.268  0.00  0.00    -0.120 A 
ATOM      8  C   LIG    1        0.739   2.196  -1.865  0.00  0.00    +0.150 A 
ATOM      9  C   LIG    1       -0.366   1.425  -1.605  0.00  0.00    -0.010 A 
ATOM     10  C   LIG    1       -1.366   1.888  -0.759  0.00  0.00    +0.090 A 
ATOM     11  C   LIG    1       -1.252   3.121  -0.163  0.00  0.00    +0.040 A 
ATOM     12  F   LIG    1        1.700   1.735  -2.695  0.00  0.00    -0.130 F 
ATOM     13  C   LIG    1       -0.136   3.926  -0.412  0.00  0.00    -0.100 A 
ATOM     14  S   LIG    1        0.275   5.528   0.191  0.00  0.00    +0.140 S 
ENDBRANCH   3   5
BRANCH   1  18
ATOM     15  C   LIG    1        5.398  10.741   0.281  0.00  0.00    +0.120 A 
ATOM     16  C   LIG    1        4.052  11.074   0.303  0.00  0.00    +0.010 A 
ATOM     17  C   LIG    1        3.093  10.084   0.216  0.00  0.00    +0.040 A 
ATOM     18  C   LIG    1        3.478   8.754   0.106  0.00  0.00    +0.110 A 
ATOM     19  C   LIG    1        4.826   8.420   0.089  0.00  0.00    +0.060 A 
ATOM     20  C   LIG    1        5.783   9.412   0.171  0.00  0.00    -0.060 A 
BRANCH  15  21
ATOM     21  O   LIG    1        6.341  11.716   0.367  0.00  0.00    -0.290 OA
BRANCH  21  22
ATOM     22  C   LIG    1        7.708  11.302   0.338  0.00  0.00    +0.220 C 
BRANCH  22  25
ATOM     23  C   LIG    1       10.811  13.535   0.541  0.00  0.00    +0.300 C 
ATOM     24  N   LIG    1        9.942  12.360   0.438  0.00  0.00    -0.620 N 
ATOM     25  C   LIG    1        8.602  12.510   0.444  0.00  0.00    +0.510 C 
ATOM     26  O   LIG    1        8.116  13.618   0.536  0.00  0.00    -0.510 OA
ATOM     27  C   LIG    1       10.528  11.023   0.327  0.00  0.00    +0.280 C 
ENDBRANCH  22  25
ENDBRANCH  21  22
ENDBRANCH  15  21
ENDBRANCH   1  18
TORSDOF 5
