REMARK  Name = ZINCkj000005kvoe.0
REMARK                            x       y       z     vdW  Elec       q    Type
REMARK                         _______ _______ _______ _____ _____    ______ ____
ROOT
ATOM      1  C   LIG    1       -9.407   6.183   0.124  0.00  0.00    +0.130 C 
ATOM      2  C   LIG    1       -7.916   5.963   0.108  0.00  0.00    +0.040 C 
ATOM      3  C   LIG    1       -7.072   7.024   0.104  0.00  0.00    +0.000 C 
ATOM      4  C   LIG    1       -5.673   6.799   0.089  0.00  0.00    +0.360 C 
ATOM      5  N   LIG    1       -4.651   7.624   0.084  0.00  0.00    -0.420 NA
ATOM      6  N   LIG    1       -3.474   6.862   0.074  0.00  0.00    -0.320 NA
ATOM      7  C   LIG    1       -3.829   5.561   0.066  0.00  0.00    +0.520 C 
ATOM      8  N   LIG    1       -2.998   4.519   0.053  0.00  0.00    -0.670 NA
ATOM      9  H   LIG    1       -4.701   8.592   0.090  0.00  0.00    +0.470 HD
ATOM     10  N   LIG    1       -5.192   5.505   0.078  0.00  0.00    -0.400 N 
ATOM     11  C   LIG    1       -6.066   4.447   0.081  0.00  0.00    +0.330 C 
ATOM     12  C   LIG    1       -7.395   4.653   0.095  0.00  0.00    +0.000 C 
ENDROOT
BRANCH   8  13
ATOM     13  C   LIG    1       -1.676   4.719   0.042  0.00  0.00    +0.550 C 
ATOM     14  O   LIG    1       -1.230   5.855   0.043  0.00  0.00    -0.520 OA
BRANCH  13  15
ATOM     15  C   LIG    1       -0.759   3.568   0.028  0.00  0.00    +0.050 A 
ATOM     16  C   LIG    1        0.603   3.630   0.015  0.00  0.00    +0.010 A 
ATOM     17  C   LIG    1        1.068   2.304   0.004  0.00  0.00    +0.030 A 
ATOM     18  C   LIG    1       -0.018   1.503   0.010  0.00  0.00    -0.120 A 
ATOM     19  O   LIG    1       -1.118   2.269   0.019  0.00  0.00    -0.140 OA
BRANCH  18  20
ATOM     20  C   LIG    1        0.002  -0.004   0.002  0.00  0.00    +0.410 C 
BRANCH  20  21
ATOM     21  N   LIG    1        0.022  -0.501   1.384  0.00  0.00    -0.640 N 
ATOM     22  H   LIG    1       -0.802  -0.179   1.869  0.00  0.00    +0.440 HD
ATOM     23  H   LIG    1        0.846  -0.156   1.854  0.00  0.00    +0.440 HD
ATOM     24  H   LIG    1        0.036  -1.510   1.379  0.00  0.00    +0.440 HD
ENDBRANCH  20  21
ENDBRANCH  18  20
ENDBRANCH  13  15
ENDBRANCH   8  13
TORSDOF 4
