REMARK  Name = ZINCrH000004oJjd.0
REMARK                            x       y       z     vdW  Elec       q    Type
REMARK                         _______ _______ _______ _____ _____    ______ ____
ROOT
ATOM      1  C   LIG    1       -3.498   3.028  -1.246  0.00  0.00    +0.050 C 
ATOM      2  C   LIG    1       -2.814   1.921  -0.442  0.00  0.00    +0.250 C 
ATOM      3  C   LIG    1       -3.183   2.057   1.039  0.00  0.00    +0.170 C 
ATOM      4  N   LIG    1       -2.405   1.091   1.825  0.00  0.00    -0.530 NA
ATOM      5  C   LIG    1       -0.960   1.367   1.738  0.00  0.00    +0.170 C 
ATOM      6  C   LIG    1       -0.505   1.204   0.284  0.00  0.00    +0.270 C 
ATOM      7  N   LIG    1       -1.354   2.045  -0.573  0.00  0.00    -0.620 N 
ATOM      8  C   LIG    1       -0.810   2.906  -1.455  0.00  0.00    +0.710 C 
ATOM      9  N   LIG    1        0.518   3.138  -1.439  0.00  0.00    -0.680 N 
ATOM     10  H   LIG    1        1.094   2.616  -0.859  0.00  0.00    +0.410 HD
ATOM     11  O   LIG    1       -1.516   3.475  -2.265  0.00  0.00    -0.560 OA
ENDROOT
BRANCH   9  12
ATOM     12  C   LIG    1        1.065   4.130  -2.260  0.00  0.00    +0.210 A 
ATOM     13  C   LIG    1        0.422   4.492  -3.437  0.00  0.00    -0.010 A 
ATOM     14  C   LIG    1        0.960   5.476  -4.244  0.00  0.00    +0.070 A 
ATOM     15  C   LIG    1        2.143   6.094  -3.889  0.00  0.00    -0.100 A 
ATOM     16  C   LIG    1        2.793   5.733  -2.717  0.00  0.00    +0.150 A 
ATOM     17  C   LIG    1        2.254   4.751  -1.901  0.00  0.00    -0.060 A 
BRANCH  16  18
ATOM     18  O   LIG    1        3.957   6.342  -2.369  0.00  0.00    -0.310 OA
BRANCH  18  19
ATOM     19  C   LIG    1        4.455   7.346  -3.256  0.00  0.00    +0.190 C 
BRANCH  19  20
ATOM     20  C   LIG    1        5.763   7.913  -2.702  0.00  0.00    +0.260 C 
ATOM     21  F   LIG    1        6.739   6.911  -2.692  0.00  0.00    -0.210 F 
ENDBRANCH  19  20
ENDBRANCH  18  19
ENDBRANCH  16  18
ENDBRANCH   9  12
BRANCH   4  22
ATOM     22  C   LIG    1       -2.851   1.069   3.224  0.00  0.00    +0.220 C 
BRANCH  22  23
ATOM     23  C   LIG    1       -1.883   0.260   4.048  0.00  0.00    -0.090 A 
ATOM     24  C   LIG    1       -2.081  -1.099   4.211  0.00  0.00    +0.020 A 
ATOM     25  C   LIG    1       -1.190  -1.841   4.963  0.00  0.00    +0.000 A 
ATOM     26  C   LIG    1       -0.106  -1.224   5.560  0.00  0.00    +0.000 A 
ATOM     27  C   LIG    1        0.089   0.135   5.401  0.00  0.00    +0.000 A 
ATOM     28  C   LIG    1       -0.799   0.877   4.645  0.00  0.00    +0.000 A 
ENDBRANCH  22  23
ENDBRANCH   4  22
TORSDOF 6
