REMARK  Name = ZINCvU0000000Efx.0
REMARK                            x       y       z     vdW  Elec       q    Type
REMARK                         _______ _______ _______ _____ _____    ______ ____
ROOT
ATOM      1  C   LIG    1        0.356   9.506  -1.109  0.00  0.00    +0.210 C 
ENDROOT
BRANCH   1   2
ATOM      2  C   LIG    1        0.229   8.010  -0.979  0.00  0.00    +0.080 A 
ATOM      3  C   LIG    1        0.868   7.170  -1.798  0.00  0.00    -0.040 A 
ATOM      4  S   LIG    1        0.463   5.521  -1.322  0.00  0.00    +0.110 S 
ATOM      5  C   LIG    1       -0.557   6.150  -0.030  0.00  0.00    +0.130 A 
ATOM      6  N   LIG    1       -0.522   7.452  -0.057  0.00  0.00    -0.450 NA
BRANCH   5   7
ATOM      7  C   LIG    1       -1.332   5.332   0.926  0.00  0.00    -0.030 A 
ATOM      8  C   LIG    1       -2.106   5.950   1.909  0.00  0.00    +0.080 A 
ATOM      9  C   LIG    1       -2.829   5.185   2.800  0.00  0.00    -0.040 A 
ATOM     10  C   LIG    1       -2.789   3.801   2.723  0.00  0.00    +0.120 A 
ATOM     11  C   LIG    1       -2.018   3.178   1.744  0.00  0.00    +0.100 A 
ATOM     12  C   LIG    1       -1.287   3.938   0.851  0.00  0.00    -0.010 A 
BRANCH  11  13
ATOM     13  O   LIG    1       -1.980   1.820   1.671  0.00  0.00    -0.300 OA
ATOM     14  C   LIG    1       -1.169   1.248   0.643  0.00  0.00    +0.250 C 
ENDBRANCH  11  13
BRANCH  10  15
ATOM     15  O   LIG    1       -3.503   3.052   3.603  0.00  0.00    -0.300 OA
ATOM     16  C   LIG    1       -4.272   3.756   4.581  0.00  0.00    +0.240 C 
ENDBRANCH  10  15
ENDBRANCH   5   7
ENDBRANCH   1   2
BRANCH   1  17
ATOM     17  S   LIG    1       -0.927  10.126  -2.224  0.00  0.00    +0.030 S 
BRANCH  17  19
ATOM     18  N   LIG    1       -1.211  12.831  -2.875  0.00  0.00    -0.450 N 
ATOM     19  C   LIG    1       -0.554  11.848  -2.194  0.00  0.00    +0.160 A 
ATOM     20  N   LIG    1        0.414  12.424  -1.515  0.00  0.00    -0.290 NA
ATOM     21  N   LIG    1        0.402  13.693  -1.721  0.00  0.00    -0.250 NA
ATOM     22  C   LIG    1       -0.573  14.004  -2.543  0.00  0.00    +0.210 A 
BRANCH  22  23
ATOM     23  C   LIG    1       -0.916  15.358  -3.026  0.00  0.00    +0.030 A 
ATOM     24  C   LIG    1        0.006  16.408  -2.939  0.00  0.00    +0.020 A 
ATOM     25  C   LIG    1       -0.355  17.654  -3.407  0.00  0.00    +0.280 A 
ATOM     26  N   LIG    1       -1.553  17.865  -3.919  0.00  0.00    -0.480 NA
ATOM     27  C   LIG    1       -2.453  16.905  -4.014  0.00  0.00    +0.270 A 
ATOM     28  C   LIG    1       -2.175  15.628  -3.577  0.00  0.00    -0.040 A 
ENDBRANCH  22  23
BRANCH  18  29
ATOM     29  C   LIG    1       -2.359  12.671  -3.772  0.00  0.00    +0.300 C 
BRANCH  29  31
ATOM     30  C   LIG    1       -4.851  12.540  -3.892  0.00  0.00    +0.040 C 
ATOM     31  C   LIG    1       -3.652  12.707  -2.956  0.00  0.00    +0.010 C 
ENDBRANCH  29  31
ENDBRANCH  18  29
ENDBRANCH  17  19
ENDBRANCH   1  17
TORSDOF 9
