REMARK  Name = ZINCqH0000000xme.0
REMARK                            x       y       z     vdW  Elec       q    Type
REMARK                         _______ _______ _______ _____ _____    ______ ____
ROOT
ATOM      1  N   LIG    1       -0.119   7.812  -0.142  0.00  0.00    -0.710 N 
ATOM      2  H   LIG    1       -0.707   8.113   0.569  0.00  0.00    +0.420 HD
ENDROOT
BRANCH   1   6
ATOM      3  C   LIG    1        1.524  10.563  -2.781  0.00  0.00    -0.230 A 
ATOM      4  C   LIG    1        1.715   9.191  -2.987  0.00  0.00    +0.170 A 
ATOM      5  C   LIG    1        1.173   8.289  -2.116  0.00  0.00    -0.060 A 
ATOM      6  C   LIG    1        0.431   8.732  -1.024  0.00  0.00    +0.310 A 
ATOM      7  C   LIG    1        0.234  10.096  -0.818  0.00  0.00    -0.130 A 
ATOM      8  C   LIG    1        0.777  11.005  -1.681  0.00  0.00    +0.210 A 
BRANCH   3  10
ATOM      9  C   LIG    1        2.909  11.059  -4.896  0.00  0.00    +0.090 C 
ATOM     10  C   LIG    1        2.105  11.536  -3.714  0.00  0.00    +0.400 C 
ATOM     11  O   LIG    1        1.938  12.724  -3.533  0.00  0.00    -0.460 OA
ENDBRANCH   3  10
BRANCH   7  12
ATOM     12  N   LIG    1       -0.561  10.561   0.341  0.00  0.00    +0.030 N 
ATOM     13  O   LIG    1       -0.480   9.979   1.408  0.00  0.00    -0.180 OA
ATOM     14  O   LIG    1       -1.297  11.525   0.227  0.00  0.00    -0.140 OA
ENDBRANCH   7  12
ENDBRANCH   1   6
BRANCH   1  15
ATOM     15  C   LIG    1        0.188   6.387  -0.284  0.00  0.00    +0.260 C 
BRANCH  15  16
ATOM     16  C   LIG    1       -0.540   5.597   0.806  0.00  0.00    +0.280 C 
BRANCH  16  17
ATOM     17  N   LIG    1       -0.233   4.171   0.663  0.00  0.00    -0.720 N 
ATOM     18  H   LIG    1        0.354   3.870  -0.048  0.00  0.00    +0.410 HD
BRANCH  17  19
ATOM     19  C   LIG    1       -0.784   3.250   1.546  0.00  0.00    +0.450 A 
ATOM     20  N   LIG    1       -1.585   3.667   2.515  0.00  0.00    -0.540 NA
ATOM     21  C   LIG    1       -2.128   2.826   3.374  0.00  0.00    +0.350 A 
ATOM     22  C   LIG    1       -1.877   1.471   3.293  0.00  0.00    -0.080 A 
ATOM     23  C   LIG    1       -1.047   0.992   2.288  0.00  0.00    +0.170 A 
ATOM     24  C   LIG    1       -0.488   1.898   1.405  0.00  0.00    -0.310 A 
BRANCH  24  25
ATOM     25  C   LIG    1        0.424   1.426   0.302  0.00  0.00    +0.520 C 
ATOM     26  F   LIG    1       -0.123   1.778  -0.937  0.00  0.00    -0.180 F 
ATOM     27  F   LIG    1        1.679   2.028   0.446  0.00  0.00    -0.180 F 
ATOM     28  F   LIG    1        0.562   0.036   0.373  0.00  0.00    -0.170 F 
ENDBRANCH  24  25
ENDBRANCH  17  19
ENDBRANCH  16  17
ENDBRANCH  15  16
ENDBRANCH   1  15
TORSDOF 8
