REMARK  Name = ZINCvU0000000GXj.0
REMARK                            x       y       z     vdW  Elec       q    Type
REMARK                         _______ _______ _______ _____ _____    ______ ____
ROOT
ATOM      1  C   LIG    1       -0.227   1.771  -2.675  0.00  0.00    +0.070 C 
ATOM      2  C   LIG    1       -0.907   1.554  -1.354  0.00  0.00    -0.120 C 
ATOM      3  C   LIG    1       -2.192   1.678  -1.278  0.00  0.00    -0.040 C 
ATOM      4  C   LIG    1       -2.997   1.433  -0.043  0.00  0.00    +0.040 C 
ATOM      5  C   LIG    1       -2.175   1.244   1.222  0.00  0.00    -0.030 C 
ATOM      6  C   LIG    1       -0.741   1.745   1.100  0.00  0.00    +0.010 C 
ATOM      7  C   LIG    1       -0.694   3.274   1.094  0.00  0.00    +0.030 C 
ATOM      8  C   LIG    1       -3.996   2.580   0.152  0.00  0.00    +0.030 C 
ATOM      9  C   LIG    1       -0.072   1.196  -0.159  0.00  0.00    +0.080 C 
ENDROOT
BRANCH   5  10
ATOM     10  C   LIG    1       -2.163  -0.248   1.595  0.00  0.00    +0.250 C 
BRANCH  10  11
ATOM     11  O   LIG    1       -3.523  -0.701   1.823  0.00  0.00    -0.370 OA
BRANCH  11  12
ATOM     12  C   LIG    1       -3.688  -1.994   2.161  0.00  0.00    +0.650 C 
ATOM     13  N   LIG    1       -4.926  -2.478   2.387  0.00  0.00    -0.710 N 
ATOM     14  H   LIG    1       -5.697  -1.896   2.306  0.00  0.00    +0.410 HD
ATOM     15  O   LIG    1       -2.722  -2.723   2.262  0.00  0.00    -0.570 OA
BRANCH  13  16
ATOM     16  C   LIG    1       -5.105  -3.885   2.755  0.00  0.00    +0.250 C 
ATOM     17  C   LIG    1       -5.161  -4.740   1.487  0.00  0.00    +0.010 C 
ATOM     18  C   LIG    1       -5.348  -6.210   1.871  0.00  0.00    +0.020 C 
ATOM     19  C   LIG    1       -6.654  -6.370   2.652  0.00  0.00    +0.010 C 
ATOM     20  C   LIG    1       -6.599  -5.514   3.920  0.00  0.00    +0.020 C 
ATOM     21  C   LIG    1       -6.411  -4.045   3.536  0.00  0.00    +0.010 C 
ENDBRANCH  13  16
ENDBRANCH  11  12
ENDBRANCH  10  11
ENDBRANCH   5  10
BRANCH   5  22
ATOM     22  C   LIG    1       -2.863   2.008   2.370  0.00  0.00    +0.250 C 
BRANCH  22  23
ATOM     23  O   LIG    1       -2.107   1.823   3.596  0.00  0.00    -0.370 OA
BRANCH  23  24
ATOM     24  C   LIG    1       -2.577   2.429   4.702  0.00  0.00    +0.650 C 
ATOM     25  N   LIG    1       -1.922   2.298   5.873  0.00  0.00    -0.710 N 
ATOM     26  H   LIG    1       -1.112   1.766   5.918  0.00  0.00    +0.410 HD
ATOM     27  O   LIG    1       -3.592   3.095   4.645  0.00  0.00    -0.570 OA
BRANCH  25  28
ATOM     28  C   LIG    1       -2.434   2.958   7.077  0.00  0.00    +0.250 C 
ATOM     29  C   LIG    1       -1.926   4.400   7.122  0.00  0.00    +0.010 C 
ATOM     30  C   LIG    1       -2.461   5.089   8.380  0.00  0.00    +0.020 C 
ATOM     31  C   LIG    1       -1.974   4.337   9.620  0.00  0.00    +0.010 C 
ATOM     32  C   LIG    1       -2.482   2.895   9.574  0.00  0.00    +0.020 C 
ATOM     33  C   LIG    1       -1.947   2.205   8.317  0.00  0.00    +0.010 C 
ENDBRANCH  25  28
ENDBRANCH  23  24
ENDBRANCH  22  23
ENDBRANCH   5  22
TORSDOF 8
