REMARK  Name = ZINCqH0000005gAg.0
REMARK                            x       y       z     vdW  Elec       q    Type
REMARK                         _______ _______ _______ _____ _____    ______ ____
ROOT
ATOM      1  C   LIG    1        0.804   5.999   1.397  0.00  0.00    +0.280 C 
ATOM      2  N   LIG    1        1.388   4.953   2.241  0.00  0.00    -0.620 N 
ATOM      3  C   LIG    1        1.431   3.679   1.802  0.00  0.00    +0.520 C 
ATOM      4  O   LIG    1        1.831   2.799   2.534  0.00  0.00    -0.510 OA
ENDROOT
BRANCH   3   5
ATOM      5  C   LIG    1        0.981   3.349   0.402  0.00  0.00    +0.130 C 
ATOM      6  C   LIG    1        2.168   3.464  -0.587  0.00  0.00    +0.050 C 
ATOM      7  C   LIG    1        1.710   2.527  -1.736  0.00  0.00    +0.010 C 
ATOM      8  C   LIG    1        0.971   1.396  -0.989  0.00  0.00    +0.180 C 
ATOM      9  N   LIG    1        0.555   1.935   0.319  0.00  0.00    -0.500 NA
BRANCH   9  10
ATOM     10  C   LIG    1       -0.897   1.811   0.501  0.00  0.00    +0.220 C 
BRANCH  10  11
ATOM     11  C   LIG    1       -1.260   0.359   0.673  0.00  0.00    -0.090 A 
ATOM     12  C   LIG    1       -1.571  -0.411  -0.433  0.00  0.00    +0.050 A 
ATOM     13  C   LIG    1       -1.899  -1.744  -0.277  0.00  0.00    -0.010 A 
ATOM     14  C   LIG    1       -1.925  -2.307   0.988  0.00  0.00    +0.100 A 
ATOM     15  C   LIG    1       -1.619  -1.534   2.095  0.00  0.00    -0.010 A 
ATOM     16  F   LIG    1       -2.251  -3.609   1.142  0.00  0.00    -0.140 F 
ATOM     17  C   LIG    1       -1.286  -0.202   1.936  0.00  0.00    +0.070 A 
ENDBRANCH  10  11
ENDBRANCH   9  10
ENDBRANCH   3   5
BRANCH   2  18
ATOM     18  C   LIG    1        1.926   5.291   3.561  0.00  0.00    +0.350 C 
BRANCH  18  19
ATOM     19  C   LIG    1        3.384   5.650   3.432  0.00  0.00    -0.090 A 
ATOM     20  C   LIG    1        3.755   6.961   3.200  0.00  0.00    +0.050 A 
ATOM     21  C   LIG    1        5.091   7.293   3.082  0.00  0.00    +0.020 A 
ATOM     22  C   LIG    1        6.060   6.311   3.196  0.00  0.00    +0.070 A 
ATOM     23  C   LIG    1        5.688   4.996   3.429  0.00  0.00    +0.070 A 
ATOM     24  F   LIG    1        6.633   4.036   3.540  0.00  0.00    -0.130 F 
ATOM     25  F   LIG    1        7.367   6.634   3.079  0.00  0.00    -0.130 F 
ATOM     26  C   LIG    1        4.350   4.668   3.552  0.00  0.00    +0.050 A 
ENDBRANCH  18  19
ENDBRANCH   2  18
TORSDOF 5
