REMARK  Name = ZINCpe00000RbfX0.0
REMARK                            x       y       z     vdW  Elec       q    Type
REMARK                         _______ _______ _______ _____ _____    ______ ____
ROOT
ATOM      1  N   LIG    1       -2.826   1.380   0.037  0.00  0.00    -1.000 NA
ATOM      2  C   LIG    1       -2.178   1.033  -1.236  0.00  0.00    +0.290 C 
ATOM      3  C   LIG    1       -0.752   1.593  -1.232  0.00  0.00    +0.040 C 
ATOM      4  C   LIG    1       -0.013   1.086   0.008  0.00  0.00    +0.040 C 
ATOM      5  C   LIG    1       -0.729   1.579   1.268  0.00  0.00    +0.260 C 
ATOM      6  C   LIG    1       -2.154   1.019   1.293  0.00  0.00    +0.300 C 
ENDROOT
BRANCH   5   7
ATOM      7  N   LIG    1       -0.002   1.120   2.454  0.00  0.00    -0.300 N 
ATOM      8  C   LIG    1        0.639  -0.057   2.577  0.00  0.00    +0.420 A 
ATOM      9  N   LIG    1        1.164  -0.099   3.775  0.00  0.00    -0.480 NA
ATOM     10  C   LIG    1        0.839   1.050   4.394  0.00  0.00    +0.140 A 
ATOM     11  N   LIG    1        0.125   1.772   3.558  0.00  0.00    -0.240 NA
BRANCH  10  12
ATOM     12  C   LIG    1        1.217   1.434   5.771  0.00  0.00    +0.620 C 
ATOM     13  O   LIG    1        0.862   2.506   6.223  0.00  0.00    -0.520 OA
ATOM     14  N   LIG    1        1.955   0.596   6.526  0.00  0.00    -0.830 N 
ATOM     15  H   LIG    1        2.203   0.848   7.429  0.00  0.00    +0.410 HD
ATOM     16  H   LIG    1        2.238  -0.259   6.166  0.00  0.00    +0.410 HD
ENDBRANCH  10  12
ENDBRANCH   5   7
BRANCH   1  17
ATOM     17  S   LIG    1       -4.285   2.163   0.055  0.00  0.00    +2.600 S 
ATOM     18  O   LIG    1       -4.320   2.868  -1.178  0.00  0.00    -0.940 OA
ATOM     19  O   LIG    1       -4.296   2.855   1.296  0.00  0.00    -0.940 OA
BRANCH  17  20
ATOM     20  C   LIG    1       -5.514   0.829   0.060  0.00  0.00    -0.300 C 
BRANCH  20  27
ATOM     21  C   LIG    1       -6.867   1.410  -2.426  0.00  0.00    +0.100 C 
ATOM     22  C   LIG    1       -7.546   1.700  -1.113  0.00  0.00    -0.070 A 
ATOM     23  C   LIG    1       -8.817   2.244  -1.098  0.00  0.00    +0.010 A 
ATOM     24  C   LIG    1       -9.441   2.510   0.107  0.00  0.00    +0.030 A 
ATOM     25  C   LIG    1       -8.794   2.231   1.296  0.00  0.00    +0.010 A 
ATOM     26  C   LIG    1       -7.525   1.683   1.281  0.00  0.00    +0.030 A 
ATOM     27  C   LIG    1       -6.899   1.422   0.077  0.00  0.00    -0.100 A 
ENDBRANCH  20  27
ENDBRANCH  17  20
ENDBRANCH   1  17
TORSDOF 5
