REMARK  Name = ZINCrg00000Ac0GM.0
REMARK                            x       y       z     vdW  Elec       q    Type
REMARK                         _______ _______ _______ _____ _____    ______ ____
ROOT
ATOM      1  N   LIG    1        2.214  -1.018  -0.892  0.00  0.00    -0.470 N 
ATOM      2  C   LIG    1        1.006  -0.458  -1.184  0.00  0.00    +0.490 A 
ATOM      3  N   LIG    1        1.153   0.811  -1.431  0.00  0.00    -0.450 NA
ATOM      4  C   LIG    1        2.460   1.145  -1.315  0.00  0.00    -0.040 A 
ATOM      5  C   LIG    1        3.193   2.335  -1.462  0.00  0.00    +0.390 A 
ATOM      6  N   LIG    1        4.507   2.298  -1.266  0.00  0.00    -0.560 NA
ATOM      7  C   LIG    1        5.119   1.173  -0.941  0.00  0.00    +0.550 A 
ATOM      8  N   LIG    1        4.473   0.036  -0.792  0.00  0.00    -0.520 NA
ATOM      9  C   LIG    1        3.157  -0.025  -0.968  0.00  0.00    +0.280 A 
ENDROOT
BRANCH   5  10
ATOM     10  N   LIG    1        2.561   3.518  -1.803  0.00  0.00    -0.410 N 
ATOM     11  C   LIG    1        2.374   3.616  -3.265  0.00  0.00    +0.220 C 
ATOM     12  C   LIG    1        2.802   5.070  -3.155  0.00  0.00    -0.110 C 
ATOM     13  C   LIG    1        3.652   5.636  -4.295  0.00  0.00    +0.280 C 
ATOM     14  N   LIG    1        2.747   6.522  -5.044  0.00  0.00    -0.730 N 
ATOM     15  H   LIG    1        2.924   6.856  -5.937  0.00  0.00    +0.410 HD
ATOM     16  C   LIG    1        1.641   6.808  -4.331  0.00  0.00    +0.520 C 
ATOM     17  O   LIG    1        0.736   7.521  -4.711  0.00  0.00    -0.530 OA
ATOM     18  C   LIG    1        1.691   6.111  -2.986  0.00  0.00    +0.090 C 
ATOM     19  C   LIG    1        3.532   4.628  -1.899  0.00  0.00    +0.240 C 
ENDBRANCH   5  10
BRANCH   1  20
ATOM     20  C   LIG    1        2.460  -2.423  -0.559  0.00  0.00    +0.300 C 
BRANCH  20  26
ATOM     21  C   LIG    1        3.841  -3.362   3.433  0.00  0.00    +0.020 C 
ATOM     22  C   LIG    1        2.736  -4.231   2.829  0.00  0.00    -0.020 C 
ATOM     23  C   LIG    1        1.382  -3.801   3.398  0.00  0.00    +0.000 C 
ATOM     24  C   LIG    1        1.125  -2.333   3.051  0.00  0.00    +0.010 C 
ATOM     25  C   LIG    1        1.116  -2.164   1.530  0.00  0.00    -0.020 C 
ATOM     26  C   LIG    1        2.469  -2.593   0.961  0.00  0.00    +0.120 C 
ATOM     27  C   LIG    1        2.727  -4.061   1.309  0.00  0.00    +0.050 C 
BRANCH  26  28
ATOM     28  O   LIG    1        3.502  -1.782   1.525  0.00  0.00    -0.530 OA
ATOM     29  H   LIG    1        3.403  -0.837   1.344  0.00  0.00    +0.360 HD
ENDBRANCH  26  28
ENDBRANCH  20  26
ENDBRANCH   1  20
TORSDOF 4
