REMARK  Name = ZINCrH00000No54A.0
REMARK                            x       y       z     vdW  Elec       q    Type
REMARK                         _______ _______ _______ _____ _____    ______ ____
ROOT
ATOM      1  O   LIG    1       -0.870   6.026   3.705  0.00  0.00    -0.540 OA
ATOM      2  C   LIG    1       -1.282   6.488   2.657  0.00  0.00    +0.550 C 
ATOM      3  N   LIG    1       -0.847   5.988   1.483  0.00  0.00    -0.730 N 
ATOM      4  H   LIG    1       -1.176   6.356   0.648  0.00  0.00    +0.400 HD
ENDROOT
BRANCH   2   5
ATOM      5  C   LIG    1       -2.248   7.585   2.671  0.00  0.00    -0.080 C 
ATOM      6  C   LIG    1       -2.683   8.086   3.848  0.00  0.00    +0.120 C 
BRANCH   6   7
ATOM      7  C   LIG    1       -3.654   9.188   3.862  0.00  0.00    -0.070 A 
ATOM      8  C   LIG    1       -4.125   9.725   2.657  0.00  0.00    +0.060 A 
ATOM      9  C   LIG    1       -5.032  10.746   2.675  0.00  0.00    +0.010 A 
ATOM     10  C   LIG    1       -5.479  11.261   3.890  0.00  0.00    -0.100 A 
ATOM     11  C   LIG    1       -5.009  10.734   5.090  0.00  0.00    +0.060 A 
ATOM     12  C   LIG    1       -4.107   9.709   5.081  0.00  0.00    +0.070 A 
BRANCH  10  13
ATOM     13  S   LIG    1       -6.644  12.584   3.907  0.00  0.00    -0.010 S 
BRANCH  13  14
ATOM     14  C   LIG    1       -6.929  12.899   2.144  0.00  0.00    +0.450 C 
ATOM     15  F   LIG    1       -5.722  13.254   1.532  0.00  0.00    -0.160 F 
ATOM     16  F   LIG    1       -7.849  13.944   2.000  0.00  0.00    -0.140 F 
ATOM     17  F   LIG    1       -7.437  11.744   1.540  0.00  0.00    -0.160 F 
ENDBRANCH  13  14
ENDBRANCH  10  13
ENDBRANCH   6   7
ENDBRANCH   2   5
BRANCH   3  18
ATOM     18  C   LIG    1        0.121   4.889   1.468  0.00  0.00    +0.270 C 
BRANCH  18  19
ATOM     19  C   LIG    1        0.445   4.513   0.021  0.00  0.00    +0.160 C 
BRANCH  19  20
ATOM     20  C   LIG    1        1.441   3.383   0.006  0.00  0.00    +0.140 A 
ATOM     21  N   LIG    1        2.744   3.500  -0.006  0.00  0.00    -0.240 NA
ATOM     22  N   LIG    1        3.296   2.337  -0.017  0.00  0.00    -0.290 NA
ATOM     23  C   LIG    1        2.359   1.403  -0.013  0.00  0.00    +0.190 A 
ATOM     24  C   LIG    1        2.394  -0.004  -0.020  0.00  0.00    +0.080 A 
ATOM     25  C   LIG    1        1.224  -0.698  -0.013  0.00  0.00    +0.060 A 
ATOM     26  C   LIG    1        0.002  -0.004   0.002  0.00  0.00    +0.030 A 
ATOM     27  C   LIG    1       -0.016   1.345   0.009  0.00  0.00    +0.230 A 
ATOM     28  N   LIG    1        1.149   2.054   0.002  0.00  0.00    -0.390 N 
ENDBRANCH  19  20
ENDBRANCH  18  19
ENDBRANCH   3  18
TORSDOF 7
