REMARK  Name = ZINCrD00000F5Ll9.0
REMARK                            x       y       z     vdW  Elec       q    Type
REMARK                         _______ _______ _______ _____ _____    ______ ____
ROOT
ATOM      1  C   LIG    1        2.489   1.321  -0.015  0.00  0.00    +0.290 C 
ENDROOT
BRANCH   1   2
ATOM      2  C   LIG    1        1.173   2.056   0.002  0.00  0.00    -0.130 A 
ATOM      3  C   LIG    1        1.153   3.438   0.010  0.00  0.00    +0.050 A 
ATOM      4  C   LIG    1       -0.054   4.112   0.025  0.00  0.00    +0.000 A 
ATOM      5  C   LIG    1       -1.242   3.405   0.032  0.00  0.00    +0.040 A 
ATOM      6  C   LIG    1       -1.224   2.023   0.019  0.00  0.00    -0.010 A 
ATOM      7  C   LIG    1       -0.016   1.347   0.009  0.00  0.00    +0.110 A 
ATOM      8  F   LIG    1        0.002  -0.004   0.002  0.00  0.00    -0.130 F 
ENDBRANCH   1   2
BRANCH   1  10
ATOM      9  C   LIG    1        3.756   2.366  -1.816  0.00  0.00    +0.560 C 
ATOM     10  N   LIG    1        3.543   2.219  -0.493  0.00  0.00    -0.720 N 
ATOM     11  H   LIG    1        4.089   2.708   0.143  0.00  0.00    +0.400 HD
ATOM     12  O   LIG    1        3.072   1.753  -2.612  0.00  0.00    -0.520 OA
BRANCH   9  17
ATOM     13  C   LIG    1        6.042   4.278  -4.110  0.00  0.00    -0.100 A 
ATOM     14  C   LIG    1        6.819   4.975  -3.192  0.00  0.00    +0.020 A 
ATOM     15  C   LIG    1        6.599   4.822  -1.836  0.00  0.00    +0.040 A 
ATOM     16  C   LIG    1        5.603   3.981  -1.384  0.00  0.00    +0.040 A 
ATOM     17  C   LIG    1        4.820   3.272  -2.298  0.00  0.00    -0.120 A 
ATOM     18  C   LIG    1        5.041   3.425  -3.666  0.00  0.00    +0.100 A 
BRANCH  13  19
ATOM     19  S   LIG    1        6.327   4.477  -5.838  0.00  0.00    -0.080 S 
BRANCH  19  20
ATOM     20  C   LIG    1        7.699   5.662  -5.891  0.00  0.00    +0.220 C 
BRANCH  20  22
ATOM     21  C   LIG    1        8.345   6.151  -8.410  0.00  0.00    +0.080 C 
ATOM     22  C   LIG    1        8.058   5.934  -7.292  0.00  0.00    -0.200 C 
ENDBRANCH  20  22
ENDBRANCH  19  20
ENDBRANCH  13  19
ENDBRANCH   9  17
ENDBRANCH   1  10
BRANCH   1  23
ATOM     23  C   LIG    1        2.826   0.846   1.399  0.00  0.00    +0.290 C 
BRANCH  23  24
ATOM     24  N   LIG    1        4.158   0.237   1.406  0.00  0.00    -0.730 N 
ATOM     25  H   LIG    1        4.673   0.189   0.585  0.00  0.00    +0.400 HD
ATOM     26  C   LIG    1        4.668  -0.256   2.551  0.00  0.00    +0.540 C 
ATOM     27  O   LIG    1        4.023  -0.196   3.580  0.00  0.00    -0.540 OA
BRANCH  26  28
ATOM     28  C   LIG    1        6.006  -0.868   2.558  0.00  0.00    -0.090 C 
ATOM     29  C   LIG    1        6.510  -1.354   3.688  0.00  0.00    +0.150 C 
ENDBRANCH  26  28
ENDBRANCH  23  24
ENDBRANCH   1  23
TORSDOF 9
