REMARK  Name = ZINCb70000002AwY.0
REMARK                            x       y       z     vdW  Elec       q    Type
REMARK                         _______ _______ _______ _____ _____    ______ ____
ROOT
ATOM      1  C   LIG    1        2.201  -0.380   1.096  0.00  0.00    -0.460 C 
ATOM      2  C   LIG    1        0.715  -0.557   1.261  0.00  0.00    +0.070 C 
ATOM      3  C   LIG    1        0.002  -0.004   0.002  0.00  0.00    +0.050 C 
ATOM      4  C   LIG    1       -0.018   1.453   0.010  0.00  0.00    +0.050 C 
ATOM      5  C   LIG    1        1.388   2.076   0.000  0.00  0.00    +0.250 C 
ATOM      6  N   LIG    1        1.868   2.109   1.360  0.00  0.00    -0.490 N 
ATOM      7  H   LIG    1        2.397   2.956   1.502  0.00  0.00    +0.440 HD
ATOM      8  H   LIG    1        1.077   2.108   1.987  0.00  0.00    +0.430 HD
ATOM      9  C   LIG    1        2.728   0.947   1.670  0.00  0.00    +0.290 C 
ENDROOT
BRANCH   1  11
ATOM     10  C   LIG    1        4.789  -1.280   1.753  0.00  0.00    -0.240 C 
ATOM     11  S   LIG    1        3.046  -1.751   1.930  0.00  0.00    +2.430 S 
ATOM     12  O   LIG    1        2.821  -2.941   1.188  0.00  0.00    -0.900 OA
ATOM     13  O   LIG    1        2.706  -1.720   3.310  0.00  0.00    -0.910 OA
ENDBRANCH   1  11
TORSDOF 1
