REMARK  Name = ZINCrH000004q5p6.0
REMARK                            x       y       z     vdW  Elec       q    Type
REMARK                         _______ _______ _______ _____ _____    ______ ____
ROOT
ATOM      1  C   LIG    1        5.306  -5.828   0.121  0.00  0.00    +0.130 C 
ATOM      2  C   LIG    1        5.044  -4.347   0.029  0.00  0.00    -0.270 A 
ATOM      3  C   LIG    1        3.794  -3.888  -0.251  0.00  0.00    +0.200 A 
ATOM      4  O   LIG    1        3.510  -2.580  -0.345  0.00  0.00    -0.190 OA
ATOM      5  C   LIG    1        4.443  -1.625  -0.167  0.00  0.00    +0.210 A 
ATOM      6  C   LIG    1        4.112  -0.266  -0.273  0.00  0.00    -0.160 A 
ATOM      7  C   LIG    1        5.101   0.700  -0.090  0.00  0.00    +0.120 A 
ATOM      8  C   LIG    1        6.400   0.328   0.203  0.00  0.00    +0.000 A 
ATOM      9  C   LIG    1        6.739  -1.006   0.310  0.00  0.00    +0.150 A 
ATOM     10  C   LIG    1        5.767  -1.987   0.126  0.00  0.00    -0.230 A 
ATOM     11  C   LIG    1        6.096  -3.423   0.232  0.00  0.00    +0.430 A 
ATOM     12  O   LIG    1        7.229  -3.797   0.485  0.00  0.00    -0.460 OA
ENDROOT
BRANCH   3  13
ATOM     13  C   LIG    1        2.709  -4.867  -0.461  0.00  0.00    -0.070 A 
ATOM     14  C   LIG    1        2.892  -5.941  -1.336  0.00  0.00    +0.050 A 
ATOM     15  C   LIG    1        1.876  -6.855  -1.523  0.00  0.00    +0.010 A 
ATOM     16  C   LIG    1        0.674  -6.704  -0.855  0.00  0.00    +0.040 A 
ATOM     17  C   LIG    1        0.483  -5.639   0.009  0.00  0.00    +0.010 A 
ATOM     18  C   LIG    1        1.493  -4.721   0.210  0.00  0.00    +0.060 A 
ENDBRANCH   3  13
BRANCH   6  19
ATOM     19  C   LIG    1        2.727   0.139  -0.580  0.00  0.00    +0.570 C 
ATOM     20  N   LIG    1        2.414   1.446  -0.680  0.00  0.00    -0.650 N 
ATOM     21  H   LIG    1        3.098   2.120  -0.550  0.00  0.00    +0.410 HD
ATOM     22  O   LIG    1        1.869  -0.707  -0.744  0.00  0.00    -0.480 OA
BRANCH  20  23
ATOM     23  C   LIG    1        1.105   1.828  -0.971  0.00  0.00    +0.300 A 
ATOM     24  C   LIG    1        0.049   0.994  -1.177  0.00  0.00    -0.100 A 
ATOM     25  C   LIG    1       -1.073   1.781  -1.444  0.00  0.00    +0.250 A 
ATOM     26  N   LIG    1       -0.718   3.039  -1.393  0.00  0.00    -0.290 NA
ATOM     27  N   LIG    1        0.650   3.101  -1.101  0.00  0.00    -0.390 N 
ATOM     28  C   LIG    1        1.448   4.321  -0.958  0.00  0.00    +0.360 C 
ENDBRANCH  20  23
ENDBRANCH   6  19
TORSDOF 3
