REMARK  Name = ZINCvU0000000FKB.0
REMARK                            x       y       z     vdW  Elec       q    Type
REMARK                         _______ _______ _______ _____ _____    ______ ____
ROOT
ATOM      1  N   LIG    1       -0.032   1.457   0.139  0.00  0.00    -0.730 N 
ATOM      2  H   LIG    1        0.786   1.950   0.312  0.00  0.00    +0.400 HD
ATOM      3  C   LIG    1       -1.188   2.120  -0.060  0.00  0.00    +0.600 C 
ATOM      4  O   LIG    1       -2.213   1.503  -0.281  0.00  0.00    -0.500 OA
ENDROOT
BRANCH   3   5
ATOM      5  C   LIG    1       -1.211   3.581  -0.009  0.00  0.00    -0.290 A 
ATOM      6  C   LIG    1       -2.337   4.377  -0.060  0.00  0.00    +0.200 A 
ATOM      7  N   LIG    1       -2.104   5.667   0.003  0.00  0.00    -0.450 NA
ATOM      8  C   LIG    1       -0.858   6.047   0.105  0.00  0.00    +0.160 A 
ATOM      9  S   LIG    1        0.194   4.635   0.136  0.00  0.00    +0.180 S 
BRANCH   6  10
ATOM     10  C   LIG    1       -3.704   3.818  -0.177  0.00  0.00    -0.040 A 
ATOM     11  C   LIG    1       -4.603   4.354  -1.100  0.00  0.00    +0.040 A 
ATOM     12  C   LIG    1       -5.873   3.825  -1.209  0.00  0.00    +0.000 A 
ATOM     13  C   LIG    1       -6.259   2.774  -0.397  0.00  0.00    +0.020 A 
ATOM     14  C   LIG    1       -5.374   2.243   0.525  0.00  0.00    -0.010 A 
ATOM     15  C   LIG    1       -4.100   2.759   0.638  0.00  0.00    +0.080 A 
ENDBRANCH   6  10
BRANCH   8  16
ATOM     16  C   LIG    1       -0.404   7.441   0.188  0.00  0.00    +0.030 A 
ATOM     17  C   LIG    1        0.890   7.857   0.295  0.00  0.00    +0.010 A 
ATOM     18  C   LIG    1        0.861   9.262   0.344  0.00  0.00    -0.050 A 
ATOM     19  C   LIG    1       -0.433   9.635   0.266  0.00  0.00    +0.210 A 
ATOM     20  O   LIG    1       -1.194   8.534   0.166  0.00  0.00    -0.150 OA
ENDBRANCH   8  16
ENDBRANCH   3   5
BRANCH   1  21
ATOM     21  C   LIG    1       -0.008  -0.006   0.088  0.00  0.00    +0.280 C 
BRANCH  21  22
ATOM     22  C   LIG    1        1.417  -0.503   0.338  0.00  0.00    +0.070 C 
BRANCH  22  26
ATOM     23  C   LIG    1        1.484  -4.777   0.197  0.00  0.00    +0.100 A 
ATOM     24  C   LIG    1        1.252  -4.124   1.396  0.00  0.00    -0.030 A 
ATOM     25  C   LIG    1        1.236  -2.742   1.440  0.00  0.00    +0.020 A 
ATOM     26  C   LIG    1        1.441  -2.009   0.286  0.00  0.00    -0.080 A 
ATOM     27  C   LIG    1        1.674  -2.654  -0.914  0.00  0.00    -0.030 A 
ATOM     28  C   LIG    1        1.696  -4.038  -0.964  0.00  0.00    +0.100 A 
BRANCH  23  30
ATOM     29  C   LIG    1        1.281  -6.828   1.383  0.00  0.00    +0.250 C 
ATOM     30  O   LIG    1        1.506  -6.136   0.153  0.00  0.00    -0.310 OA
ENDBRANCH  23  30
BRANCH  28  31
ATOM     31  O   LIG    1        1.925  -4.674  -2.144  0.00  0.00    -0.310 OA
ATOM     32  C   LIG    1        2.133  -3.852  -3.294  0.00  0.00    +0.250 C 
ENDBRANCH  28  31
ENDBRANCH  22  26
ENDBRANCH  21  22
ENDBRANCH   1  21
TORSDOF 8
