REMARK  Name = ZINCfA000000yvy0.1
REMARK                            x       y       z     vdW  Elec       q    Type
REMARK                         _______ _______ _______ _____ _____    ______ ____
ROOT
ATOM      1  C   LIG    1       -0.720   3.028   1.225  0.00  0.00    +0.230 C 
ATOM      2  C   LIG    1       -1.436   3.522   2.483  0.00  0.00    +0.100 C 
ENDROOT
BRANCH   1   3
ATOM      3  C   LIG    1        0.694   3.550   1.214  0.00  0.00    -0.130 A 
ATOM      4  C   LIG    1        1.665   2.928   1.975  0.00  0.00    +0.010 A 
ATOM      5  C   LIG    1        2.963   3.403   1.962  0.00  0.00    +0.070 A 
ATOM      6  C   LIG    1        3.288   4.507   1.194  0.00  0.00    -0.070 A 
ATOM      7  C   LIG    1        2.314   5.133   0.437  0.00  0.00    +0.070 A 
ATOM      8 BR   LIG    1        5.061   5.162   1.181  0.00  0.00    -0.020 Br
ATOM      9  C   LIG    1        1.017   4.654   0.447  0.00  0.00    +0.060 A 
ENDBRANCH   1   3
BRANCH   1  10
ATOM     10  N   LIG    1       -0.700   1.560   1.217  0.00  0.00    -0.380 N 
ATOM     11  C   LIG    1       -0.013   1.086   0.008  0.00  0.00    +0.330 C 
ATOM     12  H   LIG    1       -0.212   1.225   2.034  0.00  0.00    +0.430 HD
BRANCH  10  13
ATOM     13  C   LIG    1       -2.078   1.051   1.227  0.00  0.00    +0.270 C 
BRANCH  13  15
ATOM     14  C   LIG    1       -3.353  -1.222   1.375  0.00  0.00    +0.110 C 
ATOM     15  C   LIG    1       -2.059  -0.451   1.343  0.00  0.00    +0.350 C 
ATOM     16  O   LIG    1       -1.005  -1.038   1.409  0.00  0.00    -0.440 OA
ENDBRANCH  13  15
ENDBRANCH  10  13
ENDBRANCH   1  10
TORSDOF 4
