REMARK  Name = ZINCfA000000yvy0.2
REMARK                            x       y       z     vdW  Elec       q    Type
REMARK                         _______ _______ _______ _____ _____    ______ ____
ROOT
ATOM      1  C   LIG    1       -1.293  -0.775   0.010  0.00  0.00    +0.230 C 
ATOM      2  C   LIG    1       -1.589  -1.259   1.431  0.00  0.00    +0.100 C 
ENDROOT
BRANCH   1   3
ATOM      3  C   LIG    1        0.002  -0.004   0.002  0.00  0.00    -0.130 A 
ATOM      4  C   LIG    1       -0.017   1.378   0.010  0.00  0.00    +0.070 A 
ATOM      5  C   LIG    1        1.171   2.086   0.002  0.00  0.00    +0.070 A 
ATOM      6  C   LIG    1        2.378   1.411  -0.013  0.00  0.00    -0.070 A 
ATOM      7  C   LIG    1        2.396   0.027  -0.020  0.00  0.00    +0.070 A 
ATOM      8 BR   LIG    1        4.003   2.378  -0.022  0.00  0.00    -0.010 Br
ATOM      9  C   LIG    1        1.208  -0.679  -0.013  0.00  0.00    +0.010 A 
ENDBRANCH   1   3
BRANCH   1  10
ATOM     10  N   LIG    1       -1.179  -1.932  -0.887  0.00  0.00    -0.380 N 
ATOM     11  C   LIG    1       -2.442  -2.684  -0.879  0.00  0.00    +0.330 C 
ATOM     12  H   LIG    1       -0.430  -2.530  -0.572  0.00  0.00    +0.430 HD
BRANCH  10  13
ATOM     13  C   LIG    1       -0.895  -1.468  -2.252  0.00  0.00    +0.260 C 
BRANCH  13  15
ATOM     14  C   LIG    1       -0.342  -2.449  -4.607  0.00  0.00    +0.110 C 
ATOM     15  C   LIG    1       -0.657  -2.656  -3.147  0.00  0.00    +0.350 C 
ATOM     16  O   LIG    1       -0.718  -3.775  -2.696  0.00  0.00    -0.440 OA
ENDBRANCH  13  15
ENDBRANCH  10  13
ENDBRANCH   1  10
TORSDOF 4
