REMARK  Name = ZINCkj00000FPGUs.1
REMARK                            x       y       z     vdW  Elec       q    Type
REMARK                         _______ _______ _______ _____ _____    ______ ____
ROOT
ATOM      1  C   LIG    1       -2.123   0.951   1.348  0.00  0.00    +0.050 C 
ATOM      2  C   LIG    1       -0.730   1.580   1.268  0.00  0.00    +0.260 C 
ATOM      3  C   LIG    1       -0.013   1.086   0.008  0.00  0.00    +0.250 C 
ATOM      4  N   LIG    1       -0.723   1.572  -1.181  0.00  0.00    -0.390 N 
ATOM      5  C   LIG    1       -0.657   3.038  -1.238  0.00  0.00    +0.270 C 
ATOM      6  C   LIG    1       -1.407   3.629  -0.040  0.00  0.00    +0.310 C 
ATOM      7  C   LIG    1       -0.099   1.010  -2.386  0.00  0.00    +0.330 C 
ATOM      8  H   LIG    1       -1.688   1.282  -1.137  0.00  0.00    +0.420 HD
ATOM      9  N   LIG    1       -0.853   3.044   1.191  0.00  0.00    -0.630 N 
ATOM     10  C   LIG    1       -0.469   3.827   2.219  0.00  0.00    +0.500 C 
ATOM     11  O   LIG    1       -0.015   3.326   3.226  0.00  0.00    -0.490 OA
ENDROOT
BRANCH  10  12
ATOM     12  C   LIG    1       -0.605   5.324   2.117  0.00  0.00    +0.340 C 
BRANCH  12  13
ATOM     13  N   LIG    1       -0.123   5.944   3.354  0.00  0.00    -0.590 N 
ATOM     14  C   LIG    1       -1.049   6.181   4.463  0.00  0.00    +0.320 C 
BRANCH  13  15
ATOM     15  C   LIG    1        1.215   6.306   3.475  0.00  0.00    +0.410 A 
ATOM     16  C   LIG    1        2.066   6.174   2.383  0.00  0.00    -0.100 A 
ATOM     17  C   LIG    1        3.394   6.538   2.517  0.00  0.00    +0.120 A 
ATOM     18  C   LIG    1        3.827   7.024   3.744  0.00  0.00    -0.140 A 
ATOM     19  C   LIG    1        2.926   7.129   4.786  0.00  0.00    +0.340 A 
ATOM     20 CL   LIG    1        5.484   7.495   3.965  0.00  0.00    -0.050 Cl
ATOM     21  N   LIG    1        1.664   6.778   4.627  0.00  0.00    -0.520 NA
ENDBRANCH  13  15
ENDBRANCH  12  13
ENDBRANCH  10  12
TORSDOF 3
