REMARK  Name = ZINCkj00000FPGUs.2
REMARK                            x       y       z     vdW  Elec       q    Type
REMARK                         _______ _______ _______ _____ _____    ______ ____
ROOT
ATOM      1  C   LIG    1       -2.973   2.088   2.383  0.00  0.00    +0.080 C 
ATOM      2  C   LIG    1       -2.290   1.320   1.250  0.00  0.00    +0.230 C 
ATOM      3  C   LIG    1       -2.904   1.730  -0.093  0.00  0.00    +0.250 C 
ATOM      4  N   LIG    1       -2.157   1.095  -1.186  0.00  0.00    -0.390 N 
ATOM      5  C   LIG    1       -0.779   1.603  -1.210  0.00  0.00    +0.260 C 
ATOM      6  C   LIG    1       -0.060   1.187   0.077  0.00  0.00    +0.310 C 
ATOM      7  C   LIG    1       -2.812   1.401  -2.465  0.00  0.00    +0.330 C 
ATOM      8  H   LIG    1       -2.143   0.096  -1.047  0.00  0.00    +0.430 HD
ATOM      9  N   LIG    1       -0.852   1.646   1.228  0.00  0.00    -0.630 N 
ATOM     10  C   LIG    1       -0.279   2.346   2.228  0.00  0.00    +0.500 C 
ATOM     11  O   LIG    1       -0.924   2.631   3.215  0.00  0.00    -0.480 OA
ENDROOT
BRANCH  10  12
ATOM     12  C   LIG    1        1.161   2.776   2.118  0.00  0.00    +0.330 C 
BRANCH  12  13
ATOM     13  N   LIG    1        1.542   3.517   3.324  0.00  0.00    -0.590 N 
ATOM     14  C   LIG    1        1.368   4.970   3.376  0.00  0.00    +0.310 C 
BRANCH  13  15
ATOM     15  C   LIG    1        2.070   2.840   4.418  0.00  0.00    +0.410 A 
ATOM     16  C   LIG    1        2.330   1.477   4.324  0.00  0.00    -0.100 A 
ATOM     17  C   LIG    1        2.856   0.815   5.420  0.00  0.00    +0.130 A 
ATOM     18  C   LIG    1        3.104   1.543   6.577  0.00  0.00    -0.140 A 
ATOM     19  C   LIG    1        2.822   2.895   6.599  0.00  0.00    +0.340 A 
ATOM     20 CL   LIG    1        3.763   0.761   7.980  0.00  0.00    -0.050 Cl
ATOM     21  N   LIG    1        2.325   3.500   5.537  0.00  0.00    -0.520 NA
ENDBRANCH  13  15
ENDBRANCH  12  13
ENDBRANCH  10  12
TORSDOF 3
