REMARK  Name = ZINCrg000000mVhK.0
REMARK                            x       y       z     vdW  Elec       q    Type
REMARK                         _______ _______ _______ _____ _____    ______ ____
ROOT
ATOM      1  N   LIG    1        2.326  -5.907  -3.492  0.00  0.00    -1.120 NA
ATOM      2  H   LIG    1        2.039  -6.289  -2.648  0.00  0.00    +0.420 HD
ENDROOT
BRANCH   1   3
ATOM      3  S   LIG    1        2.869  -6.894  -4.705  0.00  0.00    +2.700 S 
ATOM      4  O   LIG    1        2.185  -6.494  -5.885  0.00  0.00    -0.950 OA
ATOM      5  O   LIG    1        2.826  -8.219  -4.194  0.00  0.00    -0.960 OA
BRANCH   3   9
ATOM      6  C   LIG    1        7.242  -5.922  -5.370  0.00  0.00    +0.200 A 
ATOM      7  C   LIG    1        6.878  -6.901  -4.455  0.00  0.00    -0.010 A 
ATOM      8  C   LIG    1        5.544  -7.195  -4.254  0.00  0.00    +0.140 A 
ATOM      9  C   LIG    1        4.570  -6.516  -4.964  0.00  0.00    -0.700 A 
ATOM     10  C   LIG    1        4.929  -5.544  -5.880  0.00  0.00    +0.150 A 
ATOM     11  C   LIG    1        6.262  -5.242  -6.081  0.00  0.00    -0.030 A 
BRANCH   6  14
ATOM     12  C   LIG    1       10.985  -6.251  -5.581  0.00  0.00    +0.110 C 
ATOM     13  C   LIG    1        9.522  -6.594  -5.478  0.00  0.00    +0.510 C 
ATOM     14  N   LIG    1        8.593  -5.622  -5.576  0.00  0.00    -0.680 N 
ATOM     15  H   LIG    1        8.861  -4.715  -5.790  0.00  0.00    +0.420 HD
ATOM     16  O   LIG    1        9.179  -7.745  -5.305  0.00  0.00    -0.520 OA
ENDBRANCH   6  14
ENDBRANCH   3   9
ENDBRANCH   1   3
BRANCH   1  17
ATOM     17  C   LIG    1        2.279  -4.457  -3.694  0.00  0.00    +0.300 C 
BRANCH  17  18
ATOM     18  C   LIG    1        1.412  -3.818  -2.606  0.00  0.00    +0.060 C 
BRANCH  18  19
ATOM     19  C   LIG    1        1.364  -2.326  -2.813  0.00  0.00    +0.520 C 
ATOM     20  N   LIG    1        0.654  -1.551  -1.969  0.00  0.00    -0.730 N 
ATOM     21  H   LIG    1        0.175  -1.954  -1.228  0.00  0.00    +0.400 HD
ATOM     22  O   LIG    1        1.963  -1.823  -3.740  0.00  0.00    -0.530 OA
BRANCH  20  23
ATOM     23  C   LIG    1        0.607  -0.101  -2.171  0.00  0.00    +0.280 C 
BRANCH  23  24
ATOM     24  C   LIG    1       -0.259   0.537  -1.083  0.00  0.00    +0.100 C 
BRANCH  24  25
ATOM     25  C   LIG    1       -0.308   2.029  -1.291  0.00  0.00    +0.130 A 
ATOM     26  C   LIG    1       -1.530   2.663  -1.408  0.00  0.00    -0.030 A 
ATOM     27  C   LIG    1       -1.564   4.036  -1.594  0.00  0.00    +0.070 A 
ATOM     28  C   LIG    1       -0.361   4.722  -1.665  0.00  0.00    -0.030 A 
ATOM     29  C   LIG    1        0.823   4.020  -1.545  0.00  0.00    +0.260 A 
ATOM     30  N   LIG    1        0.817   2.714  -1.363  0.00  0.00    -0.480 NA
ENDBRANCH  24  25
ENDBRANCH  23  24
ENDBRANCH  20  23
ENDBRANCH  18  19
ENDBRANCH  17  18
ENDBRANCH   1  17
TORSDOF 9
