REMARK  Name = ZINCqH0000050kEs.0
REMARK                            x       y       z     vdW  Elec       q    Type
REMARK                         _______ _______ _______ _____ _____    ______ ____
ROOT
ATOM      1  C   LIG    1       -1.858   5.841  -1.795  0.00  0.00    +0.190 A 
ATOM      2  C   LIG    1       -2.292   4.589  -2.220  0.00  0.00    -0.030 A 
ATOM      3  C   LIG    1       -3.617   4.389  -2.534  0.00  0.00    +0.080 A 
ATOM      4  C   LIG    1       -4.524   5.448  -2.438  0.00  0.00    -0.140 A 
ATOM      5  C   LIG    1       -4.084   6.706  -2.015  0.00  0.00    +0.100 A 
ATOM      6  C   LIG    1       -2.759   6.898  -1.697  0.00  0.00    +0.000 A 
ENDROOT
BRANCH   4   7
ATOM      7  C   LIG    1       -5.944   5.239  -2.780  0.00  0.00    +0.560 C 
ATOM      8  N   LIG    1       -6.532   4.054  -2.522  0.00  0.00    -0.610 N 
ATOM      9  C   LIG    1       -7.911   3.792  -2.957  0.00  0.00    +0.270 C 
ATOM     10  C   LIG    1       -7.927   2.493  -3.776  0.00  0.00    +0.010 C 
ATOM     11  C   LIG    1       -7.305   1.367  -2.947  0.00  0.00    +0.020 C 
ATOM     12  C   LIG    1       -5.850   1.713  -2.622  0.00  0.00    +0.010 C 
ATOM     13  C   LIG    1       -5.809   3.002  -1.795  0.00  0.00    +0.250 C 
ATOM     14  O   LIG    1       -6.583   6.135  -3.296  0.00  0.00    -0.530 OA
ENDBRANCH   4   7
BRANCH   1  15
ATOM     15  N   LIG    1       -0.519   6.038  -1.473  0.00  0.00    -1.060 N 
ATOM     16  H   LIG    1       -0.051   6.820  -1.804  0.00  0.00    +0.430 HD
BRANCH  15  17
ATOM     17  S   LIG    1        0.274   4.939  -0.522  0.00  0.00    +2.690 S 
ATOM     18  O   LIG    1        1.600   5.425  -0.368  0.00  0.00    -0.940 OA
ATOM     19  O   LIG    1       -0.585   4.662   0.575  0.00  0.00    -0.940 OA
BRANCH  17  25
ATOM     20  C   LIG    1       -0.885  -0.103  -1.271  0.00  0.00    +0.100 C 
ATOM     21  C   LIG    1       -0.166   1.135  -1.741  0.00  0.00    -0.110 A 
ATOM     22  C   LIG    1        0.590   1.098  -2.898  0.00  0.00    +0.070 A 
ATOM     23  C   LIG    1        1.254   2.232  -3.326  0.00  0.00    +0.000 A 
ATOM     24  C   LIG    1        1.153   3.406  -2.604  0.00  0.00    +0.010 A 
ATOM     25  C   LIG    1        0.397   3.443  -1.447  0.00  0.00    -0.680 A 
ATOM     26  C   LIG    1        1.872   4.645  -3.075  0.00  0.00    +0.110 C 
ATOM     27  C   LIG    1       -0.262   2.308  -1.015  0.00  0.00    +0.130 A 
ENDBRANCH  17  25
ENDBRANCH  15  17
ENDBRANCH   1  15
TORSDOF 4
