REMARK  Name = ZINCnE000001FIVk.0
REMARK                            x       y       z     vdW  Elec       q    Type
REMARK                         _______ _______ _______ _____ _____    ______ ____
ROOT
ATOM      1  C   UNK A  0       -1.180  -0.871   0.009  0.00  0.00    +0.590 C 
ATOM      2  N   PHE A  1       -1.034  -2.210   0.001  0.00  0.00    -0.680 N 
ATOM      3  H   PHE A  1       -0.146  -2.601  -0.010  0.00  0.00    +0.390 HD
ATOM      4  O   UNK A  0       -2.294  -0.380   0.023  0.00  0.00    -0.540 OA
ENDROOT
BRANCH   1   8
ATOM      5  C   UNK A  0        1.239   1.923   0.001  0.00  0.00    -0.120 A 
ATOM      6  C   UNK A  0        2.251   1.048  -0.014  0.00  0.00    -0.210 A 
ATOM      7  S   UNK A  0        1.671  -0.556  -0.017  0.00  0.00    +0.190 S 
ATOM      8  C   UNK A  0        0.002  -0.004   0.002  0.00  0.00    -0.240 A 
ATOM      9  C   UNK A  0        3.709   1.430  -0.025  0.00  0.00    +0.140 C 
ATOM     10  C   UNK A  0       -0.017   1.362   0.009  0.00  0.00    +0.090 A 
BRANCH   5  11
ATOM     11  C   UNK A  0        1.458   3.414   0.006  0.00  0.00    +0.080 C 
BRANCH  11  13
ATOM     12  C   UNK A  0        1.865   5.421  -1.425  0.00  0.00    +0.000 C 
ATOM     13  C   UNK A  0        1.643   3.908  -1.430  0.00  0.00    +0.010 C 
ENDBRANCH  11  13
ENDBRANCH   5  11
ENDBRANCH   1   8
BRANCH   2  14
ATOM     14  CA  PHE A  1       -2.215  -3.076   0.008  0.00  0.00    +0.170 C 
BRANCH  14  15
ATOM     15  C   PHE A  1       -2.708  -3.266  -1.403  0.00  0.00    +0.490 C 
ATOM     16  OXT PHE A  1       -3.785  -3.801  -1.607  0.00  0.00    -0.690 OA
ATOM     17  O   PHE A  1       -2.030  -2.884  -2.342  0.00  0.00    -0.680 OA
ENDBRANCH  14  15
BRANCH  14  18
ATOM     18  CB  PHE A  1       -1.848  -4.436   0.607  0.00  0.00    +0.080 C 
BRANCH  18  19
ATOM     19  CG  PHE A  1       -1.472  -4.261   2.056  0.00  0.00    -0.070 A 
ATOM     20  CD2 PHE A  1       -0.157  -4.017   2.404  0.00  0.00    +0.000 A 
ATOM     21  CE2 PHE A  1        0.187  -3.853   3.733  0.00  0.00    +0.000 A 
ATOM     22  CZ  PHE A  1       -0.783  -3.942   4.714  0.00  0.00    -0.010 A 
ATOM     23  CE1 PHE A  1       -2.098  -4.191   4.366  0.00  0.00    +0.000 A 
ATOM     24  CD1 PHE A  1       -2.442  -4.351   3.037  0.00  0.00    +0.000 A 
ENDBRANCH  18  19
ENDBRANCH  14  18
ENDBRANCH   2  14
TORSDOF 7
