REMARK  Name = ZINCrH00000tj1eq.0
REMARK                            x       y       z     vdW  Elec       q    Type
REMARK                         _______ _______ _______ _____ _____    ______ ____
ROOT
ATOM      1  N   LIG    1       -3.243   3.253   1.043  0.00  0.00    -0.480 N 
ATOM      2  C   LIG    1       -4.355   3.355   0.289  0.00  0.00    +0.510 C 
ATOM      3  O   LIG    1       -5.432   3.530   0.817  0.00  0.00    -0.470 OA
ENDROOT
BRANCH   1   4
ATOM      4  C   LIG    1       -3.342   3.244   2.442  0.00  0.00    +0.110 A 
ATOM      5  C   LIG    1       -3.369   4.441   3.144  0.00  0.00    +0.060 A 
ATOM      6  C   LIG    1       -3.473   4.429   4.522  0.00  0.00    +0.050 A 
ATOM      7  C   LIG    1       -3.539   3.226   5.202  0.00  0.00    -0.020 A 
ATOM      8  C   LIG    1       -3.507   2.031   4.504  0.00  0.00    +0.050 A 
ATOM      9 CL   LIG    1       -3.662   3.215   6.933  0.00  0.00    -0.050 Cl
ATOM     10  C   LIG    1       -3.409   2.038   3.126  0.00  0.00    +0.060 A 
ENDBRANCH   1   4
BRANCH   1  15
ATOM     11  C   LIG    1       -0.160   4.244  -2.220  0.00  0.00    +0.070 C 
ATOM     12  C   LIG    1       -0.454   3.025  -1.344  0.00  0.00    +0.200 C 
ATOM     13  C   LIG    1        0.574   2.966  -0.203  0.00  0.00    +0.120 C 
ATOM     14  S   LIG    1       -0.455   3.059   1.298  0.00  0.00    -0.140 S 
ATOM     15  C   LIG    1       -2.002   3.157   0.437  0.00  0.00    +0.410 C 
ATOM     16  N   LIG    1       -1.802   3.128  -0.829  0.00  0.00    -0.570 NA
ENDBRANCH   1  15
BRANCH   2  17
ATOM     17  C   LIG    1       -4.260   3.252  -1.212  0.00  0.00    +0.420 C 
BRANCH  17  18
ATOM     18  N   LIG    1       -5.595   3.393  -1.797  0.00  0.00    -0.540 N 
ATOM     19  C   LIG    1       -6.462   2.394  -2.055  0.00  0.00    +0.640 A 
ATOM     20  O   LIG    1       -7.585   2.903  -2.586  0.00  0.00    -0.230 OA
ATOM     21  C   LIG    1       -7.459   4.249  -2.690  0.00  0.00    +0.040 A 
ATOM     22  C   LIG    1       -8.299   5.243  -3.164  0.00  0.00    +0.060 A 
ATOM     23  C   LIG    1       -7.887   6.562  -3.143  0.00  0.00    +0.030 A 
ATOM     24  C   LIG    1       -6.638   6.895  -2.650  0.00  0.00    +0.040 A 
ATOM     25  C   LIG    1       -5.793   5.910  -2.175  0.00  0.00    +0.030 A 
ATOM     26  O   LIG    1       -6.260   1.215  -1.838  0.00  0.00    -0.480 OA
ATOM     27  C   LIG    1       -6.199   4.586  -2.193  0.00  0.00    +0.080 A 
ENDBRANCH  17  18
ENDBRANCH   2  17
TORSDOF 4
