REMARK  Name = ZINCqH0000051sLv.0
REMARK                            x       y       z     vdW  Elec       q    Type
REMARK                         _______ _______ _______ _____ _____    ______ ____
ROOT
ATOM      1  O   LIG    1       -6.156  -0.995   0.343  0.00  0.00    -0.500 OA
ATOM      2  C   LIG    1       -7.201  -0.379   0.317  0.00  0.00    +0.530 C 
ATOM      3  N   LIG    1       -7.190   0.959   0.159  0.00  0.00    -0.670 N 
ATOM      4  H   LIG    1       -8.025   1.444   0.072  0.00  0.00    +0.410 HD
ENDROOT
BRANCH   2   5
ATOM      5  C   LIG    1       -8.511  -1.110   0.461  0.00  0.00    +0.050 C 
ATOM      6  C   LIG    1       -8.337  -2.281   1.431  0.00  0.00    +0.040 C 
ATOM      7  C   LIG    1       -9.580  -3.175   1.336  0.00  0.00    +0.250 C 
ATOM      8  O   LIG    1       -9.631  -3.736   0.023  0.00  0.00    -0.310 OA
ATOM      9  C   LIG    1       -9.483  -2.895  -1.033  0.00  0.00    +0.150 A 
ATOM     10  C   LIG    1       -9.879  -3.334  -2.292  0.00  0.00    -0.020 A 
ATOM     11  C   LIG    1       -9.736  -2.512  -3.391  0.00  0.00    +0.050 A 
ATOM     12  C   LIG    1       -9.198  -1.247  -3.242  0.00  0.00    -0.020 A 
ATOM     13  C   LIG    1       -8.806  -0.807  -1.993  0.00  0.00    +0.040 A 
ATOM     14  C   LIG    1       -8.948  -1.627  -0.886  0.00  0.00    -0.160 A 
ENDBRANCH   2   5
BRANCH   3  15
ATOM     15  C   LIG    1       -5.972   1.650   0.121  0.00  0.00    +0.150 A 
ATOM     16  C   LIG    1       -4.858   1.064  -0.465  0.00  0.00    +0.040 A 
ATOM     17  C   LIG    1       -3.658   1.745  -0.503  0.00  0.00    +0.040 A 
ATOM     18  C   LIG    1       -3.564   3.016   0.047  0.00  0.00    +0.080 A 
ATOM     19  C   LIG    1       -4.675   3.600   0.638  0.00  0.00    +0.050 A 
ATOM     20  C   LIG    1       -5.877   2.922   0.671  0.00  0.00    +0.010 A 
BRANCH  18  21
ATOM     21  O   LIG    1       -2.382   3.686   0.010  0.00  0.00    -0.230 OA
BRANCH  21  22
ATOM     22  C   LIG    1       -1.992   4.224  -1.170  0.00  0.00    +0.490 A 
ATOM     23  N   LIG    1       -2.719   4.001  -2.253  0.00  0.00    -0.560 NA
ATOM     24  C   LIG    1       -2.364   4.506  -3.423  0.00  0.00    +0.360 A 
ATOM     25  C   LIG    1       -1.222   5.288  -3.502  0.00  0.00    -0.110 A 
ATOM     26  C   LIG    1       -0.488   5.506  -2.348  0.00  0.00    +0.370 A 
ATOM     27  N   LIG    1       -0.897   4.966  -1.211  0.00  0.00    -0.520 NA
ENDBRANCH  21  22
ENDBRANCH  18  21
ENDBRANCH   3  15
TORSDOF 4
