REMARK  Name = ZINCrH000004joDN.0
REMARK                            x       y       z     vdW  Elec       q    Type
REMARK                         _______ _______ _______ _____ _____    ______ ____
ROOT
ATOM      1  C   LIG    1        2.284  -4.764  -0.028  0.00  0.00    +0.000 C 
ATOM      2  C   LIG    1        1.427  -4.573  -1.281  0.00  0.00    +0.090 C 
ENDROOT
BRANCH   1   3
ATOM      3  C   LIG    1        2.798  -6.180   0.018  0.00  0.00    +0.420 C 
ATOM      4  O   LIG    1        3.898  -6.440  -0.422  0.00  0.00    -0.430 OA
BRANCH   3   5
ATOM      5  C   LIG    1        1.968  -7.244   0.595  0.00  0.00    -0.180 A 
ATOM      6  C   LIG    1        0.700  -6.944   1.109  0.00  0.00    +0.100 A 
ATOM      7  C   LIG    1       -0.071  -7.938   1.640  0.00  0.00    +0.000 A 
ATOM      8  C   LIG    1        0.406  -9.246   1.681  0.00  0.00    +0.180 A 
ATOM      9  C   LIG    1        1.669  -9.547   1.176  0.00  0.00    -0.010 A 
ATOM     10  C   LIG    1        2.444  -8.561   0.638  0.00  0.00    +0.100 A 
BRANCH   8  11
ATOM     11  N   LIG    1       -0.380 -10.253   2.228  0.00  0.00    -1.060 N 
ATOM     12  H   LIG    1       -0.479 -11.098   1.761  0.00  0.00    +0.430 HD
BRANCH  11  13
ATOM     13  S   LIG    1       -1.147 -10.011   3.675  0.00  0.00    +2.610 S 
ATOM     14  O   LIG    1       -1.786 -11.251   3.944  0.00  0.00    -0.950 OA
ATOM     15  O   LIG    1       -1.904  -8.825   3.476  0.00  0.00    -0.940 OA
ATOM     16  C   LIG    1        0.197  -9.718   4.857  0.00  0.00    -0.270 C 
ENDBRANCH  11  13
ENDBRANCH   8  11
ENDBRANCH   3   5
ENDBRANCH   1   3
BRANCH   1  17
ATOM     17  S   LIG    1        3.682  -3.615  -0.072  0.00  0.00    +0.040 S 
BRANCH  17  26
ATOM     18  N   LIG    1        3.411  -0.849   0.037  0.00  0.00    -0.470 N 
ATOM     19  C   LIG    1        2.397   0.091   0.129  0.00  0.00    +0.060 A 
ATOM     20  C   LIG    1        2.373   1.476   0.178  0.00  0.00    +0.010 A 
ATOM     21  C   LIG    1        1.166   2.139   0.272  0.00  0.00    +0.030 A 
ATOM     22  C   LIG    1       -0.024   1.428   0.319  0.00  0.00    +0.000 A 
ATOM     23  C   LIG    1       -0.018   0.051   0.272  0.00  0.00    +0.060 A 
ATOM     24  C   LIG    1        1.195  -0.634   0.177  0.00  0.00    +0.060 A 
ATOM     25  N   LIG    1        1.520  -1.952   0.113  0.00  0.00    -0.490 NA
ATOM     26  C   LIG    1        2.821  -2.081   0.030  0.00  0.00    +0.250 A 
BRANCH  18  28
ATOM     27  C   LIG    1        5.262  -0.428  -1.506  0.00  0.00    +0.040 C 
ATOM     28  C   LIG    1        4.848  -0.573  -0.040  0.00  0.00    +0.300 C 
ENDBRANCH  18  28
ENDBRANCH  17  26
ENDBRANCH   1  17
TORSDOF 7
