REMARK  Name = ZINCqH0000006nR3.0
REMARK                            x       y       z     vdW  Elec       q    Type
REMARK                         _______ _______ _______ _____ _____    ______ ____
ROOT
ATOM      1  C   LIG    1        2.815  -4.736   1.954  0.00  0.00    +0.600 C 
ATOM      2  N   LIG    1        3.761  -3.987   1.354  0.00  0.00    -0.610 N 
ATOM      3  C   LIG    1        4.991  -3.646   2.073  0.00  0.00    +0.300 C 
ATOM      4  O   LIG    1        1.765  -4.961   1.383  0.00  0.00    -0.480 OA
ENDROOT
BRANCH   1   6
ATOM      5  C   LIG    1        2.230  -6.145   3.947  0.00  0.00    -0.080 A 
ATOM      6  C   LIG    1        3.052  -5.280   3.299  0.00  0.00    -0.010 A 
ATOM      7  O   LIG    1        4.115  -4.990   4.077  0.00  0.00    -0.180 OA
ATOM      8  C   LIG    1        4.044  -5.647   5.251  0.00  0.00    +0.060 A 
ATOM      9  C   LIG    1        4.868  -5.692   6.370  0.00  0.00    +0.030 A 
ATOM     10  C   LIG    1        4.521  -6.478   7.447  0.00  0.00    +0.060 A 
ATOM     11  C   LIG    1        3.354  -7.230   7.430  0.00  0.00    -0.010 A 
ATOM     12  C   LIG    1        2.528  -7.203   6.341  0.00  0.00    +0.070 A 
ATOM     13  C   LIG    1        2.862  -6.412   5.239  0.00  0.00    -0.130 A 
BRANCH   5  14
ATOM     14  C   LIG    1        0.932  -6.716   3.438  0.00  0.00    +0.270 C 
BRANCH  14  16
ATOM     15  C   LIG    1        0.019  -8.563   2.213  0.00  0.00    +0.210 C 
ATOM     16  O   LIG    1        1.190  -7.936   2.739  0.00  0.00    -0.380 OA
ENDBRANCH  14  16
ENDBRANCH   5  14
ENDBRANCH   1   6
BRANCH   2  17
ATOM     17  C   LIG    1        3.560  -3.514  -0.018  0.00  0.00    +0.440 C 
BRANCH  17  18
ATOM     18  C   LIG    1        2.873  -2.173   0.009  0.00  0.00    +0.260 A 
ATOM     19  N   LIG    1        1.587  -1.996   0.087  0.00  0.00    -0.460 NA
ATOM     20  C   LIG    1        1.308  -0.666   0.089  0.00  0.00    +0.040 A 
ATOM     21  C   LIG    1        0.122   0.069   0.155  0.00  0.00    +0.070 A 
ATOM     22  C   LIG    1        0.167   1.435   0.137  0.00  0.00    +0.000 A 
ATOM     23  C   LIG    1        1.380   2.103   0.053  0.00  0.00    +0.030 A 
ATOM     24  C   LIG    1        2.563   1.397  -0.014  0.00  0.00    +0.010 A 
ATOM     25  C   LIG    1        2.538   0.009   0.004  0.00  0.00    +0.050 A 
ATOM     26  N   LIG    1        3.508  -0.971  -0.045  0.00  0.00    -0.600 N 
ATOM     27  H   LIG    1        4.466  -0.829  -0.107  0.00  0.00    +0.420 HD
ENDBRANCH  17  18
ENDBRANCH   2  17
TORSDOF 5
