REMARK  Name = ZINCrH00000tj1ec.0
REMARK                            x       y       z     vdW  Elec       q    Type
REMARK                         _______ _______ _______ _____ _____    ______ ____
ROOT
ATOM      1  N   LIG    1        6.208  -1.327  -1.994  0.00  0.00    -0.630 N 
ATOM      2  H   LIG    1        5.844  -1.283  -2.892  0.00  0.00    +0.430 HD
ATOM      3  C   LIG    1        5.388  -1.539  -0.945  0.00  0.00    +0.510 C 
ATOM      4  O   LIG    1        5.843  -1.594   0.178  0.00  0.00    -0.470 OA
ENDROOT
BRANCH   1   8
ATOM      5  C   LIG    1        9.730  -0.869  -2.007  0.00  0.00    +0.080 A 
ATOM      6  N   LIG    1        9.406  -1.039  -0.747  0.00  0.00    -0.360 NA
ATOM      7  O   LIG    1        8.215  -1.201  -0.612  0.00  0.00    +0.120 OA
ATOM      8  C   LIG    1        7.571  -1.171  -1.789  0.00  0.00    +0.220 A 
ATOM      9  C   LIG    1        8.520  -0.952  -2.743  0.00  0.00    -0.080 A 
BRANCH   5  14
ATOM     10  C   LIG    1       15.011   0.029  -4.125  0.00  0.00    +0.090 C 
ATOM     11  C   LIG    1       13.629  -0.206  -3.571  0.00  0.00    -0.070 A 
ATOM     12  C   LIG    1       13.451  -0.367  -2.208  0.00  0.00    +0.010 A 
ATOM     13  C   LIG    1       12.188  -0.583  -1.696  0.00  0.00    +0.040 A 
ATOM     14  C   LIG    1       11.091  -0.638  -2.553  0.00  0.00    -0.030 A 
ATOM     15  C   LIG    1       11.277  -0.481  -3.924  0.00  0.00    +0.040 A 
ATOM     16  C   LIG    1       12.543  -0.260  -4.426  0.00  0.00    +0.010 A 
ENDBRANCH   5  14
ENDBRANCH   1   8
BRANCH   3  17
ATOM     17  C   LIG    1        3.908  -1.708  -1.168  0.00  0.00    +0.230 C 
BRANCH  17  18
ATOM     18  N   LIG    1        3.240  -1.926   0.122  0.00  0.00    -0.480 NA
ATOM     19  C   LIG    1        3.493  -3.299   0.631  0.00  0.00    +0.180 C 
ATOM     20  C   LIG    1        2.350  -3.560   1.637  0.00  0.00    +0.030 C 
ATOM     21  C   LIG    1        1.213  -2.612   1.206  0.00  0.00    +0.030 C 
ATOM     22  C   LIG    1        1.763  -1.858  -0.024  0.00  0.00    +0.200 C 
BRANCH  22  23
ATOM     23  C   LIG    1        1.299  -0.424  -0.013  0.00  0.00    +0.020 A 
ATOM     24  C   LIG    1        2.095   0.664  -0.014  0.00  0.00    -0.030 A 
ATOM     25  C   LIG    1        1.259   1.798  -0.000  0.00  0.00    -0.070 A 
ATOM     26  C   LIG    1       -0.016   1.359   0.009  0.00  0.00    +0.150 A 
ATOM     27  N   LIG    1        0.002  -0.004   0.002  0.00  0.00    -0.450 N 
ATOM     28  C   LIG    1       -1.177  -0.874   0.009  0.00  0.00    +0.300 C 
ENDBRANCH  22  23
ENDBRANCH  17  18
ENDBRANCH   3  17
TORSDOF 5
