REMARK  Name = ZINCpe000000SUh2.0
REMARK                            x       y       z     vdW  Elec       q    Type
REMARK                         _______ _______ _______ _____ _____    ______ ____
ROOT
ATOM      1  N   LIG    1       -1.845   0.677   6.477  0.00  0.00    -0.730 N 
ATOM      2  H   LIG    1       -1.991  -0.118   5.941  0.00  0.00    +0.400 HD
ATOM      3  C   LIG    1       -2.556   0.867   7.607  0.00  0.00    +0.750 C 
ATOM      4  N   LIG    1       -3.469  -0.047   7.991  0.00  0.00    -0.660 N 
ATOM      5  C   LIG    1       -3.967  -1.329   7.466  0.00  0.00    +0.320 C 
ATOM      6  C   LIG    1       -4.330  -1.701   8.900  0.00  0.00    +0.070 C 
ATOM      7  N   LIG    1       -5.563  -2.460   9.091  0.00  0.00    -0.700 N 
ATOM      8  H   LIG    1       -6.436  -2.261   8.717  0.00  0.00    +0.450 HD
ATOM      9  C   LIG    1       -5.241  -3.496   9.895  0.00  0.00    +0.710 C 
ATOM     10  N   LIG    1       -3.947  -3.490  10.241  0.00  0.00    -0.680 N 
ATOM     11  H   LIG    1       -3.533  -4.155  10.814  0.00  0.00    +0.440 HD
ATOM     12  O   LIG    1       -6.036  -4.339  10.262  0.00  0.00    -0.530 OA
ATOM     13  C   LIG    1       -3.290  -2.443   9.694  0.00  0.00    +0.550 C 
ATOM     14  O   LIG    1       -2.117  -2.162   9.817  0.00  0.00    -0.440 OA
ATOM     15  C   LIG    1       -4.409  -0.196   9.115  0.00  0.00    +0.360 C 
ATOM     16  O   LIG    1       -2.373   1.864   8.279  0.00  0.00    -0.570 OA
ENDROOT
BRANCH   1  17
ATOM     17  C   LIG    1       -0.853   1.670   6.060  0.00  0.00    +0.340 C 
BRANCH  17  22
ATOM     18  C   LIG    1       -0.149   1.182   2.380  0.00  0.00    +0.130 A 
ATOM     19  C   LIG    1        0.991   0.392   2.421  0.00  0.00    -0.070 A 
ATOM     20  C   LIG    1        1.533   0.027   3.638  0.00  0.00    +0.050 A 
ATOM     21  C   LIG    1        0.935   0.440   4.814  0.00  0.00    -0.010 A 
ATOM     22  C   LIG    1       -0.204   1.223   4.776  0.00  0.00    -0.070 A 
ATOM     23  C   LIG    1       -0.747   1.595   3.562  0.00  0.00    +0.000 A 
BRANCH  18  24
ATOM     24  O   LIG    1       -0.682   1.547   1.184  0.00  0.00    -0.310 OA
BRANCH  24  25
ATOM     25  C   LIG    1       -0.013   1.086   0.008  0.00  0.00    +0.180 C 
BRANCH  25  27
ATOM     26  C   LIG    1       -0.666   3.119  -1.289  0.00  0.00    +0.020 C 
ATOM     27  C   LIG    1       -0.753   1.593  -1.232  0.00  0.00    -0.010 C 
ATOM     28  C   LIG    1       -0.111   0.998  -2.487  0.00  0.00    +0.040 C 
ENDBRANCH  25  27
ENDBRANCH  24  25
ENDBRANCH  18  24
ENDBRANCH  17  22
ENDBRANCH   1  17
TORSDOF 5
