REMARK  Name = ZINCrD00000hQ4Gj.0
REMARK                            x       y       z     vdW  Elec       q    Type
REMARK                         _______ _______ _______ _____ _____    ______ ____
ROOT
ATOM      1  N   LIG    1        3.519  -0.685  -0.036  0.00  0.00    -0.680 NA
ATOM      2  C   LIG    1        2.368  -0.005   0.040  0.00  0.00    +0.470 A 
ATOM      3  C   LIG    1        2.384   1.394   0.134  0.00  0.00    -0.070 A 
ATOM      4  C   LIG    1        1.200   2.073   0.211  0.00  0.00    +0.130 A 
ATOM      5  C   LIG    1       -0.004   1.360   0.195  0.00  0.00    -0.070 A 
ATOM      6  C   LIG    1        0.007   0.008   0.103  0.00  0.00    +0.310 A 
ATOM      7  N   LIG    1        1.178  -0.671   0.027  0.00  0.00    -0.450 N 
ENDROOT
BRANCH   1   9
ATOM      8  O   LIG    1        4.823   0.802  -1.022  0.00  0.00    -0.530 OA
ATOM      9  C   LIG    1        4.674  -0.031  -0.144  0.00  0.00    +0.560 C 
BRANCH   9  10
ATOM     10  C   LIG    1        5.778  -0.314   0.804  0.00  0.00    -0.140 A 
ATOM     11  C   LIG    1        5.610  -1.265   1.809  0.00  0.00    +0.080 A 
ATOM     12  C   LIG    1        6.642  -1.524   2.688  0.00  0.00    -0.010 A 
ATOM     13  C   LIG    1        7.840  -0.843   2.574  0.00  0.00    +0.070 A 
ATOM     14  C   LIG    1        8.012   0.102   1.578  0.00  0.00    -0.130 A 
ATOM     15  C   LIG    1        6.990   0.366   0.689  0.00  0.00    +0.090 A 
BRANCH  14  16
ATOM     16  C   LIG    1        9.321   0.839   1.459  0.00  0.00    +0.380 C 
ATOM     17  O   LIG    1        9.910   0.574   0.175  0.00  0.00    -0.370 OA
ATOM     18  C   LIG    1       11.336   0.523   0.425  0.00  0.00    +0.210 C 
ATOM     19  C   LIG    1       11.387  -0.143   1.823  0.00  0.00    +0.200 C 
ATOM     20  O   LIG    1       10.221   0.392   2.482  0.00  0.00    -0.380 OA
ENDBRANCH  14  16
ENDBRANCH   9  10
ENDBRANCH   1   9
BRANCH   7  21
ATOM     21  C   LIG    1        1.165  -2.133  -0.072  0.00  0.00    +0.360 C 
BRANCH  21  22
ATOM     22  C   LIG    1        1.123  -2.538  -1.523  0.00  0.00    -0.120 A 
ATOM     23  C   LIG    1       -0.093  -2.721  -2.155  0.00  0.00    +0.020 A 
ATOM     24  C   LIG    1       -0.131  -3.088  -3.487  0.00  0.00    -0.010 A 
ATOM     25  C   LIG    1        1.047  -3.281  -4.185  0.00  0.00    +0.010 A 
ATOM     26  C   LIG    1        2.262  -3.104  -3.551  0.00  0.00    +0.000 A 
ATOM     27  C   LIG    1        2.301  -2.732  -2.220  0.00  0.00    +0.050 A 
ENDBRANCH  21  22
ENDBRANCH   7  21
TORSDOF 5
