REMARK  Name = ZINCpe00000MyPZ2.0
REMARK                            x       y       z     vdW  Elec       q    Type
REMARK                         _______ _______ _______ _____ _____    ______ ____
ROOT
ATOM      1  C   LIG    1       -1.160  -0.911   0.008  0.00  0.00    +0.590 C 
ATOM      2  N   LIG    1       -0.977  -2.241  -0.102  0.00  0.00    -0.600 N 
ATOM      3  C   LIG    1        0.376  -2.821  -0.127  0.00  0.00    +0.240 C 
ATOM      4  C   LIG    1        0.482  -3.761  -1.328  0.00  0.00    +0.210 C 
ATOM      5  O   LIG    1       -0.605  -4.688  -1.300  0.00  0.00    -0.350 OA
ATOM      6  C   LIG    1       -1.895  -4.081  -1.411  0.00  0.00    +0.150 C 
ATOM      7  C   LIG    1       -2.123  -3.158  -0.208  0.00  0.00    +0.260 C 
ATOM      8  O   LIG    1       -2.284  -0.457   0.101  0.00  0.00    -0.510 OA
ENDROOT
BRANCH   1  12
ATOM      9  C   LIG    1        3.371   1.191   1.048  0.00  0.00    +0.200 C 
ATOM     10  C   LIG    1        2.002   0.905   0.488  0.00  0.00    +0.040 A 
ATOM     11  C   LIG    1        1.236  -0.150   0.805  0.00  0.00    -0.030 A 
ATOM     12  C   LIG    1        0.003  -0.005   0.017  0.00  0.00    -0.150 A 
ATOM     13  C   LIG    1        0.160   1.143  -0.703  0.00  0.00    -0.060 A 
ATOM     14  O   LIG    1        1.354   1.666  -0.408  0.00  0.00    -0.140 OA
BRANCH  13  15
ATOM     15  C   LIG    1       -0.840   1.719  -1.672  0.00  0.00    +0.560 C 
ATOM     16  F   LIG    1       -1.583   0.682  -2.247  0.00  0.00    -0.150 F 
ATOM     17  F   LIG    1       -0.166   2.422  -2.675  0.00  0.00    -0.160 F 
ATOM     18  F   LIG    1       -1.701   2.587  -0.992  0.00  0.00    -0.150 F 
ENDBRANCH  13  15
ENDBRANCH   1  12
BRANCH   6  19
ATOM     19  C   LIG    1       -2.972  -5.167  -1.433  0.00  0.00    +0.210 C 
BRANCH  19  20
ATOM     20  N   LIG    1       -2.752  -6.051  -2.585  0.00  0.00    -0.510 NA
ATOM     21  C   LIG    1       -2.958  -5.330  -3.848  0.00  0.00    +0.190 C 
BRANCH  20  22
ATOM     22  C   LIG    1       -3.615  -7.238  -2.510  0.00  0.00    +0.210 C 
BRANCH  22  23
ATOM     23  C   LIG    1       -3.195  -8.232  -3.562  0.00  0.00    +0.520 C 
ATOM     24  O   LIG    1       -2.268  -7.976  -4.302  0.00  0.00    -0.520 OA
ATOM     25  N   LIG    1       -3.849  -9.404  -3.682  0.00  0.00    -0.860 N 
ATOM     26  H   LIG    1       -3.579 -10.044  -4.359  0.00  0.00    +0.400 HD
ATOM     27  H   LIG    1       -4.590  -9.608  -3.090  0.00  0.00    +0.400 HD
ENDBRANCH  22  23
ENDBRANCH  20  22
ENDBRANCH  19  20
ENDBRANCH   6  19
TORSDOF 6
