REMARK  Name = ZINCtj00000042AF.0
REMARK                            x       y       z     vdW  Elec       q    Type
REMARK                         _______ _______ _______ _____ _____    ______ ____
ROOT
ATOM      1  O   LIG    1        3.743   2.937   1.861  0.00  0.00    -0.490 OA
ATOM      2  C   LIG    1        2.746   3.586   2.099  0.00  0.00    +0.490 C 
ATOM      3  N   LIG    1        1.546   2.976   2.166  0.00  0.00    -0.750 N 
ATOM      4  H   LIG    1        0.749   3.495   2.356  0.00  0.00    +0.390 HD
ENDROOT
BRANCH   3   5
ATOM      5  C   LIG    1        1.445   1.530   1.952  0.00  0.00    +0.320 C 
BRANCH   5   6
ATOM      6  C   LIG    1       -0.027   1.115   1.958  0.00  0.00    +0.050 C 
ATOM      7  C   LIG    1       -0.140  -0.372   1.615  0.00  0.00    +0.060 C 
ATOM      8  C   LIG    1        0.627  -1.194   2.654  0.00  0.00    +0.050 C 
ATOM      9  C   LIG    1        0.033  -0.944   4.041  0.00  0.00    +0.020 C 
ATOM     10  C   LIG    1        0.145   0.542   4.384  0.00  0.00    +0.050 C 
ATOM     11  C   LIG    1       -0.621   1.365   3.346  0.00  0.00    +0.040 C 
BRANCH   6  12
ATOM     12  N   LIG    1       -0.763   1.905   0.962  0.00  0.00    -0.380 N 
ATOM     13  C   LIG    1       -2.172   1.486   0.948  0.00  0.00    +0.230 C 
ATOM     14  C   LIG    1       -2.937   2.309  -0.091  0.00  0.00    +0.260 C 
ATOM     15  O   LIG    1       -2.325   2.138  -1.372  0.00  0.00    -0.350 OA
ATOM     16  C   LIG    1       -0.945   2.510  -1.404  0.00  0.00    +0.260 C 
ATOM     17  C   LIG    1       -0.176   1.687  -0.367  0.00  0.00    +0.230 C 
ATOM     18  H   LIG    1       -0.706   2.884   1.199  0.00  0.00    +0.410 HD
ENDBRANCH   6  12
ENDBRANCH   5   6
ENDBRANCH   3   5
BRANCH   2  19
ATOM     19  C   LIG    1        2.850   5.073   2.319  0.00  0.00    +0.270 C 
BRANCH  19  20
ATOM     20  N   LIG    1        4.259   5.481   2.250  0.00  0.00    -0.460 N 
ATOM     21  C   LIG    1        4.778   5.351   0.883  0.00  0.00    +0.190 C 
ATOM     22  C   LIG    1        6.278   5.671   0.897  0.00  0.00    +0.180 C 
ATOM     23  O   LIG    1        6.930   4.690   1.710  0.00  0.00    -0.300 OA
ATOM     24  C   LIG    1        6.341   4.394   2.901  0.00  0.00    +0.110 A 
ATOM     25  C   LIG    1        7.072   3.697   3.853  0.00  0.00    +0.010 A 
ATOM     26  C   LIG    1        6.502   3.377   5.070  0.00  0.00    +0.030 A 
ATOM     27  C   LIG    1        5.200   3.750   5.344  0.00  0.00    -0.010 A 
ATOM     28  C   LIG    1        4.466   4.446   4.403  0.00  0.00    -0.010 A 
ATOM     29  C   LIG    1        5.032   4.773   3.176  0.00  0.00    +0.050 A 
BRANCH  22  30
ATOM     30  C   LIG    1        6.833   5.614  -0.528  0.00  0.00    +0.220 C 
BRANCH  30  31
ATOM     31  O   LIG    1        8.201   6.026  -0.523  0.00  0.00    -0.560 OA
ATOM     32  H   LIG    1        8.619   6.014  -1.395  0.00  0.00    +0.390 HD
ENDBRANCH  30  31
ENDBRANCH  22  30
ENDBRANCH  19  20
ENDBRANCH   2  19
TORSDOF 7
