REMARK  Name = ZINCkj00000dE3Vn.0
REMARK                            x       y       z     vdW  Elec       q    Type
REMARK                         _______ _______ _______ _____ _____    ______ ____
ROOT
ATOM      1  C   LIG    1        1.690  -1.401   0.344  0.00  0.00    +0.070 C 
ATOM      2  C   LIG    1        0.607  -0.631   1.103  0.00  0.00    +0.040 C 
ATOM      3  C   LIG    1        0.424   0.749   0.464  0.00  0.00    +0.310 C 
ATOM      4  N   LIG    1        1.728   1.426   0.421  0.00  0.00    -0.600 N 
ATOM      5  C   LIG    1        2.863   0.735  -0.206  0.00  0.00    +0.250 C 
ATOM      6  C   LIG    1        1.879   2.658   0.946  0.00  0.00    +0.510 C 
ATOM      7  O   LIG    1        0.919   3.249   1.394  0.00  0.00    -0.470 OA
ATOM      8  C   LIG    1        3.018  -0.645   0.441  0.00  0.00    +0.050 C 
ENDROOT
BRANCH   1  14
ATOM      9  C   LIG    1        2.351  -4.027  -1.164  0.00  0.00    +0.350 C 
ATOM     10  N   LIG    1        2.137  -3.908   0.280  0.00  0.00    -0.370 N 
ATOM     11  N   LIG    1        2.196  -4.953   1.211  0.00  0.00    -0.290 NA
ATOM     12  C   LIG    1        1.951  -4.459   2.397  0.00  0.00    +0.240 A 
ATOM     13  C   LIG    1        1.734  -3.084   2.261  0.00  0.00    -0.110 A 
ATOM     14  C   LIG    1        1.849  -2.772   0.949  0.00  0.00    +0.080 A 
ENDBRANCH   1  14
BRANCH   6  15
ATOM     15  C   LIG    1        3.241   3.301   0.978  0.00  0.00    +0.030 C 
ATOM     16  C   LIG    1        4.206   2.484   1.872  0.00  0.00    +0.070 C 
ATOM     17  C   LIG    1        3.831   2.954   3.300  0.00  0.00    +0.060 C 
ATOM     18  C   LIG    1        3.545   4.461   3.139  0.00  0.00    +0.060 C 
ATOM     19  C   LIG    1        3.170   4.682   1.663  0.00  0.00    +0.080 C 
BRANCH  15  20
ATOM     20  N   LIG    1        3.780   3.429  -0.382  0.00  0.00    -0.630 N 
ATOM     21  H   LIG    1        3.619   2.572  -0.890  0.00  0.00    +0.430 HD
ATOM     22  H   LIG    1        4.772   3.611  -0.336  0.00  0.00    +0.440 HD
ATOM     23  H   LIG    1        3.320   4.192  -0.856  0.00  0.00    +0.440 HD
ENDBRANCH  15  20
ENDBRANCH   6  15
TORSDOF 3
