REMARK  Name = ZINCrD0000045FLe.0
REMARK                            x       y       z     vdW  Elec       q    Type
REMARK                         _______ _______ _______ _____ _____    ______ ____
ROOT
ATOM      1  C   LIG    1       -0.872   2.449   0.781  0.00  0.00    +0.330 C 
ATOM      2  C   LIG    1       -0.540   2.245  -0.714  0.00  0.00    +0.120 C 
ATOM      3  C   LIG    1       -1.707   2.991  -1.401  0.00  0.00    +0.080 C 
ATOM      4  C   LIG    1       -2.819   2.964  -0.375  0.00  0.00    +0.530 C 
ATOM      5  O   LIG    1       -3.987   3.190  -0.611  0.00  0.00    -0.520 OA
ATOM      6  N   LIG    1       -2.324   2.653   0.835  0.00  0.00    -0.600 N 
ENDROOT
BRANCH   1  10
ATOM      7  C   LIG    1        1.453  -0.635   3.976  0.00  0.00    +0.360 C 
ATOM      8  N   LIG    1        0.530  -0.113   2.965  0.00  0.00    -0.370 N 
ATOM      9  C   LIG    1        0.513   1.147   2.481  0.00  0.00    +0.240 A 
ATOM     10  C   LIG    1       -0.487   1.226   1.572  0.00  0.00    -0.250 A 
ATOM     11  C   LIG    1       -1.097  -0.031   1.493  0.00  0.00    +0.250 A 
ATOM     12  N   LIG    1       -0.488  -0.834   2.328  0.00  0.00    -0.290 NA
ENDBRANCH   1  10
BRANCH   2  13
ATOM     13  C   LIG    1        0.784   2.876  -1.063  0.00  0.00    +0.170 A 
ATOM     14  N   LIG    1        1.109   4.127  -0.897  0.00  0.00    -0.270 NA
ATOM     15  N   LIG    1        2.317   4.311  -1.302  0.00  0.00    -0.280 NA
ATOM     16  C   LIG    1        2.800   3.186  -1.748  0.00  0.00    +0.170 A 
ATOM     17  O   LIG    1        1.843   2.253  -1.607  0.00  0.00    -0.220 OA
BRANCH  16  18
ATOM     18  C   LIG    1        4.178   2.970  -2.316  0.00  0.00    +0.190 C 
BRANCH  18  19
ATOM     19  C   LIG    1        5.141   2.587  -1.190  0.00  0.00    -0.010 C 
ATOM     20  C   LIG    1        5.348   3.785  -0.242  0.00  0.00    +0.020 C 
ATOM     21  C   LIG    1        6.842   3.699   0.158  0.00  0.00    +0.010 C 
ATOM     22  C   LIG    1        7.522   3.243  -1.157  0.00  0.00    +0.010 C 
ATOM     23  C   LIG    1        6.522   2.242  -1.772  0.00  0.00    +0.020 C 
ENDBRANCH  18  19
ENDBRANCH  16  18
ENDBRANCH   2  13
BRANCH   6  24
ATOM     24  C   LIG    1       -3.131   2.533   2.052  0.00  0.00    +0.190 C 
ATOM     25  C   LIG    1       -4.050   1.315   1.937  0.00  0.00    +0.040 C 
ATOM     26  C   LIG    1       -3.978   3.795   2.229  0.00  0.00    +0.040 C 
ATOM     27  C   LIG    1       -2.209   2.363   3.261  0.00  0.00    +0.030 C 
ENDBRANCH   6  24
TORSDOF 5
