REMARK  Name = ZINCpe00000gMIZr.0
REMARK                            x       y       z     vdW  Elec       q    Type
REMARK                         _______ _______ _______ _____ _____    ______ ____
ROOT
ATOM      1  C   LIG    1        4.037   2.152   1.230  0.00  0.00    +0.020 C 
ATOM      2  C   LIG    1        3.810   1.289  -0.013  0.00  0.00    +0.180 C 
ENDROOT
BRANCH   2   3
ATOM      3  N   LIG    1        4.760   0.168  -0.011  0.00  0.00    -0.520 NA
ATOM      4  C   LIG    1        4.602  -0.654   1.197  0.00  0.00    +0.190 C 
ATOM      5  C   LIG    1        5.551  -1.852   1.123  0.00  0.00    +0.200 C 
ATOM      6  N   LIG    1        6.934  -1.371   0.993  0.00  0.00    -0.490 N 
ATOM      7  C   LIG    1        7.091  -0.550  -0.215  0.00  0.00    +0.200 C 
ATOM      8  C   LIG    1        6.142   0.649  -0.141  0.00  0.00    +0.180 C 
BRANCH   6   9
ATOM      9  C   LIG    1        7.836  -2.437   0.995  0.00  0.00    +0.110 A 
ATOM     10  C   LIG    1        8.719  -2.604  -0.065  0.00  0.00    -0.040 A 
ATOM     11  C   LIG    1        9.613  -3.656  -0.058  0.00  0.00    +0.030 A 
ATOM     12  C   LIG    1        9.624  -4.549   0.998  0.00  0.00    -0.030 A 
ATOM     13  C   LIG    1        8.743  -4.389   2.052  0.00  0.00    +0.020 A 
ATOM     14  C   LIG    1        7.850  -3.336   2.054  0.00  0.00    -0.020 A 
ENDBRANCH   6   9
ENDBRANCH   2   3
BRANCH   2  15
ATOM     15  C   LIG    1        2.401   0.754  -0.003  0.00  0.00    +0.520 C 
ATOM     16  N   LIG    1        1.357   1.606  -0.002  0.00  0.00    -0.600 N 
ATOM     17  C   LIG    1        1.591   3.052  -0.012  0.00  0.00    +0.290 C 
ATOM     18  O   LIG    1        2.207  -0.443   0.006  0.00  0.00    -0.510 OA
BRANCH  16  19
ATOM     19  C   LIG    1       -0.013   1.086   0.008  0.00  0.00    +0.270 C 
ATOM     20  C   LIG    1       -0.761   1.596   1.252  0.00  0.00    +0.060 C 
ATOM     21  C   LIG    1       -2.267   1.324   1.069  0.00  0.00    -0.310 C 
ATOM     22  S   LIG    1       -2.538   1.341  -0.740  0.00  0.00    +2.390 S 
ATOM     23  O   LIG    1       -3.310   2.482  -1.090  0.00  0.00    -0.930 OA
ATOM     24  O   LIG    1       -2.949   0.050  -1.166  0.00  0.00    -0.930 OA
ATOM     25  C   LIG    1       -0.790   1.613  -1.226  0.00  0.00    -0.330 C 
ENDBRANCH  16  19
ENDBRANCH   2  15
TORSDOF 4
