REMARK  Name = ZINCkj000005kAwL.0
REMARK                            x       y       z     vdW  Elec       q    Type
REMARK                         _______ _______ _______ _____ _____    ______ ____
ROOT
ATOM      1  C   LIG    1       -2.592   3.279   1.678  0.00  0.00    +0.520 C 
ATOM      2  N   LIG    1       -1.402   2.923   1.156  0.00  0.00    -0.730 N 
ATOM      3  H   LIG    1       -0.581   3.278   1.533  0.00  0.00    +0.400 HD
ATOM      4  O   LIG    1       -3.618   2.836   1.207  0.00  0.00    -0.530 OA
ENDROOT
BRANCH   2   5
ATOM      5  C   LIG    1       -1.347   2.001   0.019  0.00  0.00    +0.280 C 
ATOM      6  C   LIG    1       -1.518   2.785  -1.283  0.00  0.00    +0.030 C 
BRANCH   5   7
ATOM      7  C   LIG    1       -0.015   1.295   0.009  0.00  0.00    -0.110 C 
ATOM      8  C   LIG    1        0.002  -0.004   0.002  0.00  0.00    -0.020 C 
ATOM      9  C   LIG    1        1.270  -0.808  -0.008  0.00  0.00    +0.310 C 
ATOM     10  N   LIG    1        2.400   0.023  -0.438  0.00  0.00    -0.390 N 
ATOM     11  C   LIG    1        2.435   1.243   0.384  0.00  0.00    +0.270 C 
ATOM     12  C   LIG    1        3.654  -0.724  -0.263  0.00  0.00    +0.330 C 
ATOM     13  H   LIG    1        2.287   0.272  -1.409  0.00  0.00    +0.430 HD
ATOM     14  C   LIG    1        1.241   2.121   0.002  0.00  0.00    +0.110 C 
ENDBRANCH   5   7
ENDBRANCH   2   5
BRANCH   1  15
ATOM     15  C   LIG    1       -2.649   4.228   2.847  0.00  0.00    +0.060 C 
BRANCH  15  16
ATOM     16  C   LIG    1       -4.108   4.465   3.242  0.00  0.00    +0.340 C 
BRANCH  16  20
ATOM     17  C   LIG    1       -5.229   8.396   6.143  0.00  0.00    +0.110 C 
ATOM     18  C   LIG    1       -4.647   7.097   5.647  0.00  0.00    -0.240 A 
ATOM     19  C   LIG    1       -4.858   6.543   4.430  0.00  0.00    +0.220 A 
ATOM     20  N   LIG    1       -4.163   5.388   4.379  0.00  0.00    -0.380 N 
ATOM     21  N   LIG    1       -3.508   5.223   5.606  0.00  0.00    -0.300 NA
ATOM     22  C   LIG    1       -3.795   6.250   6.364  0.00  0.00    +0.230 A 
ENDBRANCH  16  20
ENDBRANCH  15  16
ENDBRANCH   1  15
TORSDOF 5
