REMARK  Name = ZINCkj000005kAwL.1
REMARK                            x       y       z     vdW  Elec       q    Type
REMARK                         _______ _______ _______ _____ _____    ______ ____
ROOT
ATOM      1  C   LIG    1        1.395   2.047  -0.000  0.00  0.00    +0.520 C 
ATOM      2  N   LIG    1        1.623   3.376   0.005  0.00  0.00    -0.730 N 
ATOM      3  H   LIG    1        0.878   3.996   0.015  0.00  0.00    +0.400 HD
ATOM      4  O   LIG    1        2.328   1.272  -0.013  0.00  0.00    -0.530 OA
ENDROOT
BRANCH   2   5
ATOM      5  C   LIG    1        2.998   3.883  -0.006  0.00  0.00    +0.280 C 
ATOM      6  C   LIG    1        3.506   3.949  -1.447  0.00  0.00    +0.030 C 
BRANCH   5   7
ATOM      7  C   LIG    1        3.029   5.261   0.602  0.00  0.00    -0.110 C 
ATOM      8  C   LIG    1        3.832   5.487   1.598  0.00  0.00    -0.020 C 
ATOM      9  C   LIG    1        3.950   6.822   2.273  0.00  0.00    +0.310 C 
ATOM     10  N   LIG    1        2.782   7.656   1.966  0.00  0.00    -0.390 N 
ATOM     11  C   LIG    1        2.598   7.701   0.506  0.00  0.00    +0.270 C 
ATOM     12  C   LIG    1        3.000   9.016   2.476  0.00  0.00    +0.330 C 
ATOM     13  H   LIG    1        1.961   7.261   2.399  0.00  0.00    +0.430 HD
ATOM     14  C   LIG    1        2.134   6.325   0.028  0.00  0.00    +0.110 C 
ENDBRANCH   5   7
ENDBRANCH   2   5
BRANCH   1  15
ATOM     15  C   LIG    1       -0.019   1.526   0.010  0.00  0.00    +0.060 C 
BRANCH  15  16
ATOM     16  C   LIG    1        0.002  -0.004   0.002  0.00  0.00    +0.340 C 
BRANCH  16  20
ATOM     17  C   LIG    1       -4.176  -2.480  -1.237  0.00  0.00    +0.110 C 
ATOM     18  C   LIG    1       -3.195  -1.587  -0.522  0.00  0.00    -0.240 A 
ATOM     19  C   LIG    1       -1.909  -1.368  -0.881  0.00  0.00    +0.220 A 
ATOM     20  N   LIG    1       -1.372  -0.511   0.012  0.00  0.00    -0.380 N 
ATOM     21  N   LIG    1       -2.360  -0.197   0.955  0.00  0.00    -0.300 NA
ATOM     22  C   LIG    1       -3.453  -0.837   0.631  0.00  0.00    +0.230 A 
ENDBRANCH  16  20
ENDBRANCH  15  16
ENDBRANCH   1  15
TORSDOF 5
