REMARK  Name = ZINCrH000004joDL.0
REMARK                            x       y       z     vdW  Elec       q    Type
REMARK                         _______ _______ _______ _____ _____    ______ ____
ROOT
ATOM      1  N   LIG    1       -3.238  10.127   1.281  0.00  0.00    -0.470 N 
ATOM      2  C   LIG    1       -4.614  10.181   1.135  0.00  0.00    +0.100 A 
ATOM      3  C   LIG    1       -5.575  11.137   1.425  0.00  0.00    +0.010 A 
ATOM      4  C   LIG    1       -6.904  10.882   1.153  0.00  0.00    +0.140 A 
ATOM      5  C   LIG    1       -7.285   9.672   0.592  0.00  0.00    -0.680 A 
ATOM      6  C   LIG    1       -6.344   8.711   0.297  0.00  0.00    +0.200 A 
ATOM      7  C   LIG    1       -4.995   8.954   0.566  0.00  0.00    +0.030 A 
ATOM      8  N   LIG    1       -3.862   8.226   0.389  0.00  0.00    -0.480 NA
ATOM      9  C   LIG    1       -2.828   8.911   0.813  0.00  0.00    +0.260 A 
ENDROOT
BRANCH   5  10
ATOM     10  S   LIG    1       -8.986   9.364   0.252  0.00  0.00    +2.710 S 
ATOM     11  O   LIG    1       -9.020   8.376  -0.769  0.00  0.00    -0.960 OA
ATOM     12  O   LIG    1       -9.607  10.636   0.123  0.00  0.00    -0.960 OA
BRANCH  10  13
ATOM     13  N   LIG    1       -9.637   8.662   1.604  0.00  0.00    -1.250 NA
ATOM     14  H   LIG    1       -9.082   8.115   2.180  0.00  0.00    +0.420 HD
ATOM     15  H   LIG    1      -10.573   8.799   1.819  0.00  0.00    +0.420 HD
ENDBRANCH  10  13
ENDBRANCH   5  10
BRANCH   1  17
ATOM     16  C   LIG    1       -1.921  12.106   0.708  0.00  0.00    +0.050 C 
ATOM     17  C   LIG    1       -2.381  11.179   1.834  0.00  0.00    +0.300 C 
ENDBRANCH   1  17
BRANCH   9  18
ATOM     18  S   LIG    1       -1.159   8.349   0.779  0.00  0.00    +0.050 S 
BRANCH  18  19
ATOM     19  C   LIG    1       -1.394   6.708   0.051  0.00  0.00    +0.000 C 
ATOM     20  C   LIG    1       -1.914   6.855  -1.380  0.00  0.00    +0.100 C 
BRANCH  19  21
ATOM     21  C   LIG    1       -0.079   5.973   0.034  0.00  0.00    +0.420 C 
ATOM     22  O   LIG    1        0.963   6.593   0.028  0.00  0.00    -0.430 OA
BRANCH  21  23
ATOM     23  C   LIG    1       -0.059   4.502   0.026  0.00  0.00    -0.160 A 
ATOM     24  C   LIG    1        1.160   3.816   0.011  0.00  0.00    +0.110 A 
ATOM     25  C   LIG    1        1.171   2.438   0.004  0.00  0.00    +0.020 A 
ATOM     26  C   LIG    1       -0.021   1.732   0.012  0.00  0.00    -0.000 A 
ATOM     27  C   LIG    1       -1.233   2.405   0.021  0.00  0.00    +0.020 A 
ATOM     28 CL   LIG    1        0.002  -0.004   0.002  0.00  0.00    -0.050 Cl
ATOM     29  C   LIG    1       -1.259   3.783   0.034  0.00  0.00    +0.080 A 
ENDBRANCH  21  23
ENDBRANCH  19  21
ENDBRANCH  18  19
ENDBRANCH   9  18
TORSDOF 7
