REMARK  Name = ZINCnE000001OCsO.0
REMARK                            x       y       z     vdW  Elec       q    Type
REMARK                         _______ _______ _______ _____ _____    ______ ____
ROOT
ATOM      1  C   LIG    1        1.349  -0.736   0.477  0.00  0.00    -0.120 A 
ATOM      2  C   LIG    1        0.318   0.095   0.040  0.00  0.00    +0.070 A 
ATOM      3  C   LIG    1        0.365   1.448   0.292  0.00  0.00    -0.020 A 
ATOM      4  C   LIG    1        1.441   1.999   0.986  0.00  0.00    +0.140 A 
ATOM      5  O   LIG    1        1.688   3.296   1.321  0.00  0.00    -0.270 OA
ATOM      6  C   LIG    1        2.655   3.333   2.385  0.00  0.00    +0.090 C 
ATOM      7  C   LIG    1        3.464   2.034   2.158  0.00  0.00    +0.090 C 
ATOM      8  C   LIG    1        2.461   1.163   1.425  0.00  0.00    -0.180 A 
ATOM      9  C   LIG    1        2.425  -0.188   1.174  0.00  0.00    +0.090 A 
ENDROOT
BRANCH   1  13
ATOM     10  C   LIG    1       -0.909  -4.762  -1.476  0.00  0.00    +0.120 C 
ATOM     11  C   LIG    1        0.227  -4.114  -0.728  0.00  0.00    -0.070 A 
ATOM     12  C   LIG    1        0.225  -2.749  -0.497  0.00  0.00    +0.060 A 
ATOM     13  C   LIG    1        1.301  -2.193   0.202  0.00  0.00    -0.020 A 
ATOM     14  C   LIG    1        2.330  -3.029   0.630  0.00  0.00    +0.260 A 
ATOM     15  N   LIG    1        2.286  -4.324   0.392  0.00  0.00    -0.430 NA
ATOM     16  C   LIG    1        1.284  -4.877  -0.264  0.00  0.00    +0.010 A 
BRANCH  16  17
ATOM     17  C   LIG    1        1.291  -6.363  -0.513  0.00  0.00    +0.520 C 
ATOM     18  F   LIG    1        0.196  -6.949   0.131  0.00  0.00    -0.170 F 
ATOM     19  F   LIG    1        2.475  -6.914  -0.012  0.00  0.00    -0.160 F 
ATOM     20  F   LIG    1        1.209  -6.606  -1.888  0.00  0.00    -0.170 F 
ENDBRANCH  16  17
ENDBRANCH   1  13
BRANCH   6  21
ATOM     21  C   LIG    1        3.542   4.544   2.257  0.00  0.00    +0.510 C 
ATOM     22  O   LIG    1        4.442   4.728   3.059  0.00  0.00    -0.680 OA
ATOM     23  O   LIG    1        3.361   5.340   1.351  0.00  0.00    -0.670 OA
ENDBRANCH   6  21
TORSDOF 3
