REMARK  Name = ZINCvU0000000B9Y.0
REMARK                            x       y       z     vdW  Elec       q    Type
REMARK                         _______ _______ _______ _____ _____    ______ ____
ROOT
ATOM      1  N   LIG    1       -7.566  -3.079  -0.351  0.00  0.00    -0.440 N 
ATOM      2  C   LIG    1       -6.712  -2.029  -0.176  0.00  0.00    +0.150 A 
ATOM      3  N   LIG    1       -7.414  -1.034   0.321  0.00  0.00    -0.290 NA
ATOM      4  N   LIG    1       -8.639  -1.391   0.471  0.00  0.00    -0.260 NA
ATOM      5  C   LIG    1       -8.795  -2.635   0.081  0.00  0.00    +0.220 A 
ENDROOT
BRANCH   1  12
ATOM      6  C   LIG    1       -7.554  -3.544  -3.210  0.00  0.00    +0.030 C 
ATOM      7  C   LIG    1       -6.588  -4.254  -2.260  0.00  0.00    -0.020 C 
ATOM      8  C   LIG    1       -6.249  -5.638  -2.817  0.00  0.00    +0.040 C 
ATOM      9  C   LIG    1       -5.282  -6.348  -1.868  0.00  0.00    +0.010 C 
ATOM     10  C   LIG    1       -5.937  -6.498  -0.493  0.00  0.00    +0.040 C 
ATOM     11  C   LIG    1       -6.275  -5.114   0.065  0.00  0.00    +0.010 C 
ATOM     12  C   LIG    1       -7.242  -4.404  -0.885  0.00  0.00    +0.240 C 
ENDBRANCH   1  12
BRANCH   5  13
ATOM     13  C   LIG    1      -10.054  -3.410   0.096  0.00  0.00    -0.070 A 
ATOM     14  C   LIG    1      -10.034  -4.796   0.287  0.00  0.00    +0.070 A 
ATOM     15  C   LIG    1      -11.240  -5.475   0.292  0.00  0.00    -0.030 A 
ATOM     16  C   LIG    1      -12.415  -4.768   0.111  0.00  0.00    +0.270 A 
ATOM     17  N   LIG    1      -12.404  -3.461  -0.066  0.00  0.00    -0.480 NA
ATOM     18  C   LIG    1      -11.283  -2.770  -0.074  0.00  0.00    +0.320 A 
ENDBRANCH   5  13
BRANCH   2  19
ATOM     19  S   LIG    1       -4.991  -2.007  -0.551  0.00  0.00    +0.070 S 
BRANCH  19  20
ATOM     20  C   LIG    1       -4.583  -0.313  -0.062  0.00  0.00    +0.080 C 
BRANCH  20  21
ATOM     21  C   LIG    1       -3.117  -0.059  -0.302  0.00  0.00    +0.450 C 
ATOM     22  O   LIG    1       -2.416  -0.939  -0.759  0.00  0.00    -0.450 OA
BRANCH  21  23
ATOM     23  C   LIG    1       -2.557   1.205   0.006  0.00  0.00    -0.270 A 
ATOM     24  C   LIG    1       -3.216   2.298   0.526  0.00  0.00    +0.340 A 
ATOM     25  N   LIG    1       -2.350   3.317   0.682  0.00  0.00    -0.570 N 
ATOM     26  H   LIG    1       -2.583   4.191   1.033  0.00  0.00    +0.420 HD
ATOM     27  C   LIG    1       -1.084   2.948   0.275  0.00  0.00    +0.070 A 
ATOM     28  C   LIG    1        0.134   3.619   0.234  0.00  0.00    +0.000 A 
ATOM     29  C   LIG    1        1.259   2.976  -0.235  0.00  0.00    +0.030 A 
ATOM     30  C   LIG    1        1.191   1.661  -0.670  0.00  0.00    +0.000 A 
ATOM     31  C   LIG    1       -0.006   0.979  -0.637  0.00  0.00    +0.060 A 
ATOM     32  C   LIG    1       -1.151   1.619  -0.171  0.00  0.00    -0.050 A 
ENDBRANCH  21  23
ENDBRANCH  20  21
ENDBRANCH  19  20
ENDBRANCH   2  19
TORSDOF 6
