REMARK  Name = ZINCnE000001RsMr.1
REMARK                            x       y       z     vdW  Elec       q    Type
REMARK                         _______ _______ _______ _____ _____    ______ ____
ROOT
ATOM      1  C   LIG    1        4.375   2.486   6.992  0.00  0.00    +0.380 A 
ATOM      2  N   LIG    1        4.684   2.804   8.211  0.00  0.00    -0.550 NA
ATOM      3  C   LIG    1        5.960   2.702   8.554  0.00  0.00    +0.120 A 
ATOM      4  C   LIG    1        6.787   2.276   7.582  0.00  0.00    -0.180 A 
ATOM      5  S   LIG    1        5.828   1.984   6.133  0.00  0.00    -0.010 S 
ENDROOT
BRANCH   3   6
ATOM      6  C   LIG    1        6.444   3.035   9.916  0.00  0.00    +0.010 A 
ATOM      7  C   LIG    1        5.547   3.473  10.889  0.00  0.00    +0.060 A 
ATOM      8  C   LIG    1        6.002   3.780  12.155  0.00  0.00    +0.010 A 
ATOM      9  C   LIG    1        7.345   3.655  12.460  0.00  0.00    +0.030 A 
ATOM     10  C   LIG    1        8.241   3.221  11.498  0.00  0.00    -0.090 A 
ATOM     11 BR   LIG    1       10.075   3.053  11.924  0.00  0.00    -0.060 Br
ATOM     12  C   LIG    1        7.796   2.905  10.230  0.00  0.00    +0.050 A 
ENDBRANCH   3   6
BRANCH   1  14
ATOM     13  C   LIG    1        2.896   2.173   5.166  0.00  0.00    +0.470 C 
ATOM     14  N   LIG    1        3.096   2.528   6.451  0.00  0.00    -0.650 NA
ATOM     15  O   LIG    1        3.832   1.816   4.483  0.00  0.00    -0.590 OA
BRANCH  13  16
ATOM     16  C   LIG    1        1.509   2.219   4.579  0.00  0.00    +0.130 C 
BRANCH  16  17
ATOM     17  S   LIG    1        1.567   1.688   2.850  0.00  0.00    +0.060 S 
BRANCH  17  23
ATOM     18  C   LIG    1       -0.013   1.086   0.008  0.00  0.00    +0.330 C 
ATOM     19  N   LIG    1       -0.698   1.558   1.213  0.00  0.00    -0.470 N 
ATOM     20  C   LIG    1       -2.033   1.820   1.355  0.00  0.00    +0.370 A 
ATOM     21  N   LIG    1       -2.223   2.215   2.582  0.00  0.00    -0.290 NA
ATOM     22  N   LIG    1       -1.107   2.228   3.219  0.00  0.00    -0.300 NA
ATOM     23  C   LIG    1       -0.137   1.834   2.427  0.00  0.00    +0.150 A 
ENDBRANCH  17  23
ENDBRANCH  16  17
ENDBRANCH  13  16
ENDBRANCH   1  14
TORSDOF 5
