REMARK  Name = ZINCpe000000SFl8.0
REMARK                            x       y       z     vdW  Elec       q    Type
REMARK                         _______ _______ _______ _____ _____    ______ ____
ROOT
ATOM      1  N   LIG    1       -0.271   1.282  -2.451  0.00  0.00    -0.650 N 
ATOM      2  H   LIG    1        0.564   0.801  -2.556  0.00  0.00    +0.430 HD
ATOM      3  C   LIG    1       -0.718   1.595  -1.219  0.00  0.00    +0.500 C 
ATOM      4  O   LIG    1       -1.720   2.266  -1.089  0.00  0.00    -0.500 OA
ENDROOT
BRANCH   1  13
ATOM      5  C   LIG    1       -1.052   0.805  -4.698  0.00  0.00    -0.200 A 
ATOM      6  C   LIG    1       -1.798   1.185  -5.823  0.00  0.00    +0.120 A 
ATOM      7  C   LIG    1       -2.485   2.379  -5.823  0.00  0.00    +0.000 A 
ATOM      8  C   LIG    1       -2.440   3.216  -4.703  0.00  0.00    +0.100 A 
ATOM      9  O   LIG    1       -3.195   4.322  -4.957  0.00  0.00    -0.300 OA
ATOM     10  C   LIG    1       -3.368   4.352  -6.386  0.00  0.00    +0.440 C 
ATOM     11  C   LIG    1       -1.708   2.846  -3.585  0.00  0.00    +0.030 A 
ATOM     12  O   LIG    1       -3.270   2.969  -6.773  0.00  0.00    -0.300 OA
ATOM     13  C   LIG    1       -1.009   1.650  -3.574  0.00  0.00    +0.230 A 
BRANCH   5  15
ATOM     14  C   LIG    1       -0.265  -1.306  -5.942  0.00  0.00    +0.080 C 
ATOM     15  C   LIG    1       -0.320  -0.463  -4.694  0.00  0.00    +0.410 C 
ATOM     16  O   LIG    1        0.242  -0.836  -3.685  0.00  0.00    -0.470 OA
ENDBRANCH   5  15
ENDBRANCH   1  13
BRANCH   3  17
ATOM     17  C   LIG    1        0.028   1.112  -0.002  0.00  0.00    +0.380 C 
BRANCH  17  18
ATOM     18  N   LIG    1       -0.654   1.582   1.207  0.00  0.00    -0.560 N 
ATOM     19  C   LIG    1       -0.385   2.741   1.819  0.00  0.00    +0.710 C 
ATOM     20  N   LIG    1       -1.152   2.938   2.906  0.00  0.00    -0.720 N 
ATOM     21  H   LIG    1       -1.132   3.706   3.499  0.00  0.00    +0.440 HD
ATOM     22  C   LIG    1       -2.026   1.758   3.025  0.00  0.00    +0.120 C 
ATOM     23  C   LIG    1       -1.766   1.021   4.340  0.00  0.00    +0.090 C 
ATOM     24  C   LIG    1       -3.497   2.165   2.920  0.00  0.00    +0.090 C 
ATOM     25  O   LIG    1        0.457   3.529   1.435  0.00  0.00    -0.540 OA
ATOM     26  C   LIG    1       -1.625   0.898   1.843  0.00  0.00    +0.540 C 
ATOM     27  O   LIG    1       -2.084  -0.181   1.534  0.00  0.00    -0.460 OA
ENDBRANCH  17  18
ENDBRANCH   3  17
TORSDOF 4
