REMARK  Name = ZINCvU0000000FpS.0
REMARK                            x       y       z     vdW  Elec       q    Type
REMARK                         _______ _______ _______ _____ _____    ______ ____
ROOT
ATOM      1  C   LIG    1       -0.558  -2.312  -0.820  0.00  0.00    +0.290 C 
ATOM      2  C   LIG    1       -1.190  -0.918  -0.639  0.00  0.00    +0.110 C 
ATOM      3  C   LIG    1       -0.045  -0.059  -0.153  0.00  0.00    +0.190 C 
ATOM      4  N   LIG    1        1.024  -0.774  -0.070  0.00  0.00    -0.290 NA
ATOM      5  N   LIG    1        0.846  -2.108  -0.429  0.00  0.00    -0.430 N 
ENDROOT
BRANCH   1   9
ATOM      6  C   LIG    1       -2.437  -5.162   1.750  0.00  0.00    +0.130 A 
ATOM      7  C   LIG    1       -2.792  -5.095   0.410  0.00  0.00    -0.020 A 
ATOM      8  C   LIG    1       -2.183  -4.172  -0.418  0.00  0.00    +0.080 A 
ATOM      9  C   LIG    1       -1.221  -3.317   0.086  0.00  0.00    -0.120 A 
ATOM     10  C   LIG    1       -0.861  -3.387   1.419  0.00  0.00    +0.050 A 
ATOM     11  C   LIG    1       -1.471  -4.303   2.254  0.00  0.00    -0.080 A 
BRANCH   6  13
ATOM     12  C   LIG    1       -2.619  -6.083   3.935  0.00  0.00    +0.240 C 
ATOM     13  O   LIG    1       -3.034  -6.069   2.567  0.00  0.00    -0.320 OA
ENDBRANCH   6  13
ENDBRANCH   1   9
BRANCH   3  14
ATOM     14  C   LIG    1       -0.136   1.376   0.171  0.00  0.00    -0.110 A 
ATOM     15  C   LIG    1       -1.352   2.050   0.030  0.00  0.00    +0.100 A 
ATOM     16  C   LIG    1       -1.434   3.390   0.339  0.00  0.00    -0.070 A 
ATOM     17  C   LIG    1       -0.307   4.075   0.779  0.00  0.00    +0.240 A 
ATOM     18  C   LIG    1        0.907   3.409   0.915  0.00  0.00    -0.070 A 
ATOM     19  C   LIG    1        0.996   2.067   0.613  0.00  0.00    +0.110 A 
BRANCH  17  20
ATOM     20  N   LIG    1       -0.393   5.433   1.085  0.00  0.00    -0.630 N 
ATOM     21  C   LIG    1       -1.670   6.137   0.943  0.00  0.00    +0.290 C 
ATOM     22  C   LIG    1        0.794   6.156   1.549  0.00  0.00    +0.280 C 
ENDBRANCH  17  20
ENDBRANCH   3  14
BRANCH   5  23
ATOM     23  C   LIG    1        1.804  -3.056  -0.424  0.00  0.00    +0.590 C 
ATOM     24  S   LIG    1        1.428  -4.656  -0.902  0.00  0.00    -0.580 S 
BRANCH  23  25
ATOM     25  N   LIG    1        3.059  -2.744  -0.042  0.00  0.00    -0.620 N 
ATOM     26  H   LIG    1        3.287  -1.825   0.170  0.00  0.00    +0.410 HD
BRANCH  25  27
ATOM     27  C   LIG    1        4.031  -3.745   0.048  0.00  0.00    +0.120 A 
ATOM     28  C   LIG    1        4.872  -3.801   1.152  0.00  0.00    +0.000 A 
ATOM     29  C   LIG    1        5.828  -4.794   1.241  0.00  0.00    +0.010 A 
ATOM     30  C   LIG    1        5.956  -5.725   0.226  0.00  0.00    +0.010 A 
ATOM     31  C   LIG    1        5.125  -5.668  -0.877  0.00  0.00    +0.020 A 
ATOM     32  C   LIG    1        4.163  -4.681  -0.970  0.00  0.00    +0.080 A 
ENDBRANCH  25  27
ENDBRANCH  23  25
ENDBRANCH   5  23
TORSDOF 7
