REMARK  Name = ZINCtV00000L6kcK.0
REMARK                            x       y       z     vdW  Elec       q    Type
REMARK                         _______ _______ _______ _____ _____    ______ ____
ROOT
ATOM      1  C   LIG    1        1.075   1.855   0.138  0.00  0.00    -0.010 A 
ATOM      2  C   LIG    1       -0.106   1.097   0.184  0.00  0.00    +0.030 A 
ATOM      3  C   LIG    1       -1.163   1.971  -0.022  0.00  0.00    -0.110 A 
ATOM      4  C   LIG    1       -0.548   3.310  -0.188  0.00  0.00    +0.120 A 
ATOM      5  O   LIG    1        0.782   3.151  -0.082  0.00  0.00    -0.120 OA
ENDROOT
BRANCH   3   6
ATOM      6  C   LIG    1       -2.592   1.640  -0.065  0.00  0.00    +0.350 A 
ATOM      7  N   LIG    1       -3.572   2.517  -0.156  0.00  0.00    -0.470 NA
ATOM      8  C   LIG    1       -4.750   1.881  -0.174  0.00  0.00    +0.060 A 
ATOM      9  C   LIG    1       -6.083   2.319  -0.259  0.00  0.00    +0.070 A 
ATOM     10  C   LIG    1       -7.098   1.409  -0.248  0.00  0.00    +0.000 A 
ATOM     11  C   LIG    1       -6.832   0.047  -0.153  0.00  0.00    +0.030 A 
ATOM     12  C   LIG    1       -5.533  -0.411  -0.069  0.00  0.00    +0.010 A 
ATOM     13  C   LIG    1       -4.482   0.495  -0.078  0.00  0.00    +0.050 A 
ATOM     14  N   LIG    1       -3.112   0.371  -0.010  0.00  0.00    -0.590 N 
ATOM     15  H   LIG    1       -2.610  -0.455   0.062  0.00  0.00    +0.420 HD
ENDBRANCH   3   6
BRANCH   1  20
ATOM     16  C   LIG    1        4.806   1.650   0.394  0.00  0.00    +0.010 A 
ATOM     17  C   LIG    1        4.976   0.292   0.617  0.00  0.00    +0.110 A 
ATOM     18  C   LIG    1        3.879  -0.554   0.682  0.00  0.00    +0.050 A 
ATOM     19  C   LIG    1        2.615  -0.059   0.529  0.00  0.00    +0.100 A 
ATOM     20  C   LIG    1        2.424   1.317   0.303  0.00  0.00    -0.000 A 
ATOM     21  C   LIG    1        3.542   2.170   0.232  0.00  0.00    +0.110 A 
BRANCH  16  23
ATOM     22  O   LIG    1        7.196   2.045   0.477  0.00  0.00    -0.160 OA
ATOM     23  N   LIG    1        5.985   2.542   0.326  0.00  0.00    -0.020 N 
ATOM     24  O   LIG    1        5.824   3.832   0.115  0.00  0.00    -0.160 OA
ENDBRANCH  16  23
ENDBRANCH   1  20
BRANCH   4  25
ATOM     25  C   LIG    1       -1.232   4.523  -0.418  0.00  0.00    -0.060 A 
ATOM     26  C   LIG    1       -2.214   4.605  -1.428  0.00  0.00    +0.090 A 
ATOM     27  C   LIG    1       -2.872   5.782  -1.638  0.00  0.00    +0.000 A 
ATOM     28  C   LIG    1       -2.570   6.899  -0.871  0.00  0.00    +0.040 A 
ATOM     29  C   LIG    1       -1.601   6.833   0.121  0.00  0.00    +0.000 A 
ATOM     30  C   LIG    1       -0.934   5.665   0.355  0.00  0.00    +0.050 A 
ENDBRANCH   4  25
TORSDOF 4
