REMARK  Name = ZINCpk000000mSDD.0
REMARK                            x       y       z     vdW  Elec       q    Type
REMARK                         _______ _______ _______ _____ _____    ______ ____
ROOT
ATOM      1  C   LIG    1        1.575   3.247   4.586  0.00  0.00    +0.560 C 
ATOM      2  N   LIG    1        0.703   3.560   3.607  0.00  0.00    -0.710 N 
ATOM      3  H   LIG    1        0.991   4.101   2.856  0.00  0.00    +0.410 HD
ATOM      4  O   LIG    1        1.214   2.569   5.528  0.00  0.00    -0.540 OA
ENDROOT
BRANCH   1  12
ATOM      5  C   LIG    1        9.048   6.135   3.899  0.00  0.00    +0.110 C 
ATOM      6  C   LIG    1        7.627   5.725   3.606  0.00  0.00    +0.520 C 
ATOM      7  N   LIG    1        6.944   4.978   4.496  0.00  0.00    -0.560 N 
ATOM      8  C   LIG    1        7.506   4.417   5.727  0.00  0.00    +0.280 C 
ATOM      9  C   LIG    1        6.347   3.656   6.391  0.00  0.00    +0.110 C 
ATOM     10  C   LIG    1        5.178   3.853   5.451  0.00  0.00    -0.150 A 
ATOM     11  C   LIG    1        3.878   3.404   5.524  0.00  0.00    +0.120 A 
ATOM     12  C   LIG    1        2.969   3.726   4.513  0.00  0.00    -0.160 A 
ATOM     13  C   LIG    1        3.392   4.500   3.429  0.00  0.00    +0.070 A 
ATOM     14  C   LIG    1        4.689   4.949   3.367  0.00  0.00    +0.010 A 
ATOM     15  C   LIG    1        5.600   4.628   4.378  0.00  0.00    +0.170 A 
ATOM     16  O   LIG    1        7.099   6.068   2.570  0.00  0.00    -0.520 OA
ENDBRANCH   1  12
BRANCH   2  17
ATOM     17  C   LIG    1       -0.681   3.085   3.680  0.00  0.00    +0.280 C 
BRANCH  17  18
ATOM     18  C   LIG    1       -1.454   3.577   2.455  0.00  0.00    +0.090 C 
ATOM     19  C   LIG    1       -2.900   3.081   2.531  0.00  0.00    +0.020 C 
ATOM     20  C   LIG    1       -1.442   5.107   2.425  0.00  0.00    +0.050 C 
BRANCH  18  21
ATOM     21  N   LIG    1       -0.822   3.058   1.235  0.00  0.00    -0.520 NA
ATOM     22  C   LIG    1       -0.737   1.591   1.269  0.00  0.00    +0.150 C 
ATOM     23  C   LIG    1       -0.020   1.097   0.009  0.00  0.00    +0.220 C 
ATOM     24  O   LIG    1       -0.714   1.574  -1.147  0.00  0.00    -0.380 OA
ATOM     25  C   LIG    1       -0.814   2.999  -1.211  0.00  0.00    +0.220 C 
ATOM     26  C   LIG    1       -1.540   3.512   0.035  0.00  0.00    +0.150 C 
ENDBRANCH  18  21
ENDBRANCH  17  18
ENDBRANCH   2  17
TORSDOF 4
