REMARK  Name = ZINCqH0000001Yl8.0
REMARK                            x       y       z     vdW  Elec       q    Type
REMARK                         _______ _______ _______ _____ _____    ______ ____
ROOT
ATOM      1  C   LIG    1       -3.964   7.880  -8.912  0.00  0.00    +0.060 C 
ATOM      2  C   LIG    1       -2.936   6.858  -8.425  0.00  0.00    -0.030 C 
ATOM      3  C   LIG    1       -2.909   6.814  -6.888  0.00  0.00    +0.290 C 
ATOM      4  N   LIG    1       -3.290   5.444  -6.536  0.00  0.00    -0.550 N 
ATOM      5  C   LIG    1       -3.525   4.699  -7.695  0.00  0.00    +0.160 A 
ATOM      6  C   LIG    1       -3.914   3.364  -7.826  0.00  0.00    -0.020 A 
ATOM      7  C   LIG    1       -4.101   2.813  -9.076  0.00  0.00    +0.070 A 
ATOM      8  C   LIG    1       -3.912   3.580 -10.210  0.00  0.00    +0.010 A 
ATOM      9  C   LIG    1       -3.532   4.905 -10.089  0.00  0.00    +0.020 A 
ATOM     10 CL   LIG    1       -3.294   5.871 -11.512  0.00  0.00    -0.060 Cl
ATOM     11  C   LIG    1       -3.393   4.970  -5.278  0.00  0.00    +0.530 C 
ATOM     12  O   LIG    1       -3.163   5.696  -4.335  0.00  0.00    -0.500 OA
ATOM     13  C   LIG    1       -1.548   7.195  -8.973  0.00  0.00    +0.060 C 
ATOM     14  C   LIG    1       -3.343   5.461  -8.838  0.00  0.00    -0.120 A 
ENDROOT
BRANCH  11  15
ATOM     15  C   LIG    1       -3.795   3.536  -5.044  0.00  0.00    +0.170 C 
BRANCH  15  16
ATOM     16  C   LIG    1       -3.836   3.261  -3.563  0.00  0.00    +0.110 A 
ATOM     17  C   LIG    1       -4.904   3.528  -2.809  0.00  0.00    -0.080 A 
ATOM     18  S   LIG    1       -4.534   3.058  -1.152  0.00  0.00    +0.140 S 
ATOM     19  C   LIG    1       -2.975   2.548  -1.634  0.00  0.00    +0.280 A 
ATOM     20  N   LIG    1       -2.816   2.742  -2.905  0.00  0.00    -0.480 NA
BRANCH  19  21
ATOM     21  N   LIG    1       -2.016   2.009  -0.784  0.00  0.00    -0.540 N 
ATOM     22  C   LIG    1       -2.209   1.800   0.655  0.00  0.00    +0.270 C 
ATOM     23  C   LIG    1       -0.787   1.610   1.239  0.00  0.00    +0.060 C 
ATOM     24  C   LIG    1       -0.013   1.086   0.008  0.00  0.00    +0.070 C 
ATOM     25  C   LIG    1       -0.793   1.611  -1.176  0.00  0.00    +0.520 C 
ATOM     26  O   LIG    1       -0.377   1.665  -2.314  0.00  0.00    -0.470 OA
ENDBRANCH  19  21
ENDBRANCH  15  16
ENDBRANCH  11  15
TORSDOF 3
