REMARK  Name = ZINCkj000005lDQx.0
REMARK                            x       y       z     vdW  Elec       q    Type
REMARK                         _______ _______ _______ _____ _____    ______ ____
ROOT
ATOM      1  O   LIG    1        0.002  -0.004   0.002  0.00  0.00    -0.490 OA
ATOM      2  C   LIG    1       -0.014   1.209   0.009  0.00  0.00    +0.520 C 
ATOM      3  N   LIG    1        1.143   1.898   0.001  0.00  0.00    -0.640 N 
ATOM      4  C   LIG    1        1.148   3.369   0.003  0.00  0.00    +0.320 C 
ATOM      5  C   LIG    1        2.086   3.847   1.122  0.00  0.00    +0.270 C 
ATOM      6  N   LIG    1        3.410   3.238   0.940  0.00  0.00    -0.380 N 
ATOM      7  C   LIG    1        3.316   1.781   1.100  0.00  0.00    +0.250 C 
ATOM      8  H   LIG    1        3.753   3.452   0.016  0.00  0.00    +0.420 HD
ATOM      9  C   LIG    1        2.439   1.201  -0.015  0.00  0.00    +0.330 C 
ENDROOT
BRANCH   6  10
ATOM     10  C   LIG    1        4.338   3.780   1.941  0.00  0.00    +0.170 C 
ATOM     11  C   LIG    1        5.775   3.263   1.684  0.00  0.00    +0.050 C 
ATOM     12  C   LIG    1        6.654   4.340   2.368  0.00  0.00    +0.050 C 
ATOM     13  C   LIG    1        5.927   5.667   2.067  0.00  0.00    +0.020 C 
ATOM     14  C   LIG    1        4.455   5.311   1.796  0.00  0.00    +0.170 C 
BRANCH  14  15
ATOM     15  O   LIG    1        3.611   5.960   2.749  0.00  0.00    -0.560 OA
ATOM     16  H   LIG    1        3.640   6.925   2.708  0.00  0.00    +0.400 HD
ENDBRANCH  14  15
ENDBRANCH   6  10
BRANCH   2  17
ATOM     17  C   LIG    1       -1.330   1.944   0.019  0.00  0.00    +0.170 C 
BRANCH  17  18
ATOM     18  C   LIG    1       -2.462   0.950   0.019  0.00  0.00    -0.190 A 
ATOM     19  C   LIG    1       -3.034   0.436   1.109  0.00  0.00    +0.030 A 
ATOM     20  C   LIG    1       -4.059  -0.461   0.862  0.00  0.00    +0.000 A 
ATOM     21  C   LIG    1       -4.318  -0.676  -0.429  0.00  0.00    -0.030 A 
ATOM     22  S   LIG    1       -3.235   0.294  -1.418  0.00  0.00    +0.120 S 
ENDBRANCH  17  18
ENDBRANCH   2  17
TORSDOF 4
