REMARK  Name = ZINCqH0000007uRp.0
REMARK                            x       y       z     vdW  Elec       q    Type
REMARK                         _______ _______ _______ _____ _____    ______ ____
ROOT
ATOM      1  N   LIG    1       -1.352   3.757   0.274  0.00  0.00    -0.660 N 
ATOM      2  H   LIG    1       -1.706   3.275  -0.490  0.00  0.00    +0.420 HD
ATOM      3  C   LIG    1       -0.753   3.086   1.277  0.00  0.00    +0.520 C 
ATOM      4  O   LIG    1       -0.222   3.694   2.182  0.00  0.00    -0.490 OA
ENDROOT
BRANCH   1  10
ATOM      5  C   LIG    1       -1.590   5.894  -0.840  0.00  0.00    +0.150 A 
ATOM      6  C   LIG    1       -1.699   7.273  -0.775  0.00  0.00    -0.030 A 
ATOM      7  C   LIG    1       -1.683   7.912   0.452  0.00  0.00    +0.130 A 
ATOM      8  C   LIG    1       -1.557   7.177   1.616  0.00  0.00    -0.060 A 
ATOM      9  C   LIG    1       -1.452   5.800   1.560  0.00  0.00    +0.140 A 
ATOM     10  C   LIG    1       -1.463   5.153   0.333  0.00  0.00    +0.130 A 
BRANCH   8  11
ATOM     11  N   LIG    1       -1.541   7.866   2.926  0.00  0.00    +0.030 N 
ATOM     12  O   LIG    1       -1.431   7.220   3.952  0.00  0.00    -0.150 OA
ATOM     13  O   LIG    1       -1.639   9.079   2.977  0.00  0.00    -0.160 OA
ENDBRANCH   8  11
BRANCH   5  15
ATOM     14  C   LIG    1       -1.740   6.089  -3.205  0.00  0.00    +0.250 C 
ATOM     15  O   LIG    1       -1.607   5.265  -2.045  0.00  0.00    -0.310 OA
ENDBRANCH   5  15
ENDBRANCH   1  10
BRANCH   3  16
ATOM     16  C   LIG    1       -0.743   1.579   1.274  0.00  0.00    +0.190 C 
ATOM     17  C   LIG    1       -0.032   1.075   0.017  0.00  0.00    +0.030 C 
BRANCH  16  18
ATOM     18  N   LIG    1       -0.034   1.092   2.466  0.00  0.00    -0.510 NA
ATOM     19  C   LIG    1        1.361   1.551   2.473  0.00  0.00    +0.200 C 
BRANCH  18  20
ATOM     20  C   LIG    1       -0.107  -0.372   2.559  0.00  0.00    +0.230 C 
BRANCH  20  21
ATOM     21  C   LIG    1        0.410  -0.816   3.904  0.00  0.00    -0.070 A 
ATOM     22  C   LIG    1        1.751  -1.108   4.066  0.00  0.00    +0.020 A 
ATOM     23  C   LIG    1        2.227  -1.510   5.301  0.00  0.00    +0.020 A 
ATOM     24  C   LIG    1        1.359  -1.630   6.370  0.00  0.00    +0.020 A 
ATOM     25  C   LIG    1        0.016  -1.343   6.206  0.00  0.00    -0.030 A 
ATOM     26 CL   LIG    1       -1.074  -1.493   7.549  0.00  0.00    -0.070 Cl
ATOM     27  C   LIG    1       -0.459  -0.936   4.972  0.00  0.00    +0.040 A 
ENDBRANCH  20  21
ENDBRANCH  18  20
ENDBRANCH  16  18
ENDBRANCH   3  16
TORSDOF 7
