REMARK  Name = ZINCpe00000VVGQK.0
REMARK                            x       y       z     vdW  Elec       q    Type
REMARK                         _______ _______ _______ _____ _____    ______ ____
ROOT
ATOM      1  N   LIG    1        0.002  -0.004   0.002  0.00  0.00    -0.730 N 
ATOM      2  H   LIG    1       -0.831  -0.500   0.007  0.00  0.00    +0.400 HD
ATOM      3  C   LIG    1       -0.016   1.344   0.009  0.00  0.00    +0.530 C 
ATOM      4  O   LIG    1        1.026   1.964   0.003  0.00  0.00    -0.530 OA
ENDROOT
BRANCH   3   5
ATOM      5  C   LIG    1       -1.331   2.079   0.020  0.00  0.00    +0.000 C 
ATOM      6  C   LIG    1       -2.124   1.814  -1.281  0.00  0.00    +0.080 C 
ATOM      7  C   LIG    1       -2.789   3.138  -1.586  0.00  0.00    +0.520 C 
ATOM      8  N   LIG    1       -2.207   4.122  -0.880  0.00  0.00    -0.620 N 
ATOM      9  O   LIG    1       -3.715   3.290  -2.355  0.00  0.00    -0.520 OA
ATOM     10  C   LIG    1       -1.111   3.607  -0.051  0.00  0.00    +0.300 C 
BRANCH   8  11
ATOM     11  C   LIG    1       -2.613   5.529  -0.931  0.00  0.00    +0.430 C 
BRANCH  11  12
ATOM     12  C   LIG    1       -1.840   6.236  -2.014  0.00  0.00    -0.050 A 
ATOM     13  C   LIG    1       -2.213   6.349  -3.301  0.00  0.00    -0.030 A 
ATOM     14  C   LIG    1       -1.202   7.087  -3.958  0.00  0.00    -0.070 A 
ATOM     15  C   LIG    1       -0.267   7.373  -3.035  0.00  0.00    +0.170 A 
ATOM     16  O   LIG    1       -0.658   6.856  -1.859  0.00  0.00    -0.170 OA
ENDBRANCH  11  12
ENDBRANCH   8  11
ENDBRANCH   3   5
BRANCH   1  17
ATOM     17  C   LIG    1        1.281  -0.719  -0.014  0.00  0.00    +0.270 C 
BRANCH  17  18
ATOM     18  C   LIG    1        1.021  -2.227  -0.020  0.00  0.00    +0.160 C 
BRANCH  18  22
ATOM     19  C   LIG    1        3.265  -6.588   0.394  0.00  0.00    +0.050 C 
ATOM     20  C   LIG    1        3.468  -5.080   0.231  0.00  0.00    +0.160 C 
ATOM     21  C   LIG    1        2.106  -4.382   0.197  0.00  0.00    +0.170 C 
ATOM     22  N   LIG    1        2.303  -2.944  -0.036  0.00  0.00    -0.530 NA
ATOM     23  C   LIG    1        3.020  -2.714  -1.299  0.00  0.00    +0.160 C 
ATOM     24  C   LIG    1        4.373  -3.429  -1.249  0.00  0.00    +0.200 C 
ATOM     25  C   LIG    1        5.229  -2.827  -0.134  0.00  0.00    +0.020 C 
ATOM     26  O   LIG    1        4.162  -4.820  -0.991  0.00  0.00    -0.380 OA
ENDBRANCH  18  22
ENDBRANCH  17  18
ENDBRANCH   1  17
TORSDOF 6
