REMARK  Name = ZINCah0000001Ch5.0
REMARK                            x       y       z     vdW  Elec       q    Type
REMARK                         _______ _______ _______ _____ _____    ______ ____
ROOT
ATOM      1  C   LIG    1       -0.013   1.076   0.008  0.00  0.00    +0.230 A 
ATOM      2  N   LIG    1       -1.120   1.756   0.017  0.00  0.00    -0.510 NA
ATOM      3  S   LIG    1       -0.781   3.281   0.026  0.00  0.00    +0.520 S 
ATOM      4  N   LIG    1        0.906   3.122   0.010  0.00  0.00    -0.530 NA
ATOM      5  C   LIG    1        1.147   1.831   0.001  0.00  0.00    +0.250 A 
ENDROOT
BRANCH   5   6
ATOM      6  N   LIG    1        2.433   1.281  -0.013  0.00  0.00    -0.430 N 
ATOM      7  C   LIG    1        2.660   0.491  -1.250  0.00  0.00    +0.200 C 
ATOM      8  C   LIG    1        4.205   0.423  -1.349  0.00  0.00    +0.040 C 
ATOM      9  C   LIG    1        4.644   1.821  -0.858  0.00  0.00    +0.020 C 
ATOM     10  C   LIG    1        3.463   2.342  -0.018  0.00  0.00    +0.200 C 
ENDBRANCH   5   6
TORSDOF 1
