REMARK  Name = ZINCrg00000fR8qB.0
REMARK                            x       y       z     vdW  Elec       q    Type
REMARK                         _______ _______ _______ _____ _____    ______ ____
ROOT
ATOM      1  C   LIG    1       -5.466  -0.540  -3.782  0.00  0.00    +0.200 C 
ATOM      2  C   LIG    1       -6.439   0.217  -2.875  0.00  0.00    +0.070 C 
ENDROOT
BRANCH   1   5
ATOM      3  N   LIG    1       -6.950  -0.605  -5.760  0.00  0.00    -0.670 N 
ATOM      4  H   LIG    1       -7.016   0.361  -5.705  0.00  0.00    +0.410 HD
ATOM      5  C   LIG    1       -6.241  -1.286  -4.838  0.00  0.00    +0.520 C 
ATOM      6  O   LIG    1       -6.226  -2.498  -4.857  0.00  0.00    -0.490 OA
BRANCH   3  11
ATOM      7  C   LIG    1       -8.774  -3.227  -7.605  0.00  0.00    -0.150 A 
ATOM      8  C   LIG    1       -8.857  -2.640  -8.871  0.00  0.00    +0.060 A 
ATOM      9  C   LIG    1       -8.309  -1.393  -9.090  0.00  0.00    +0.030 A 
ATOM     10  C   LIG    1       -7.683  -0.717  -8.060  0.00  0.00    +0.020 A 
ATOM     11  C   LIG    1       -7.590  -1.293  -6.798  0.00  0.00    +0.130 A 
ATOM     12  C   LIG    1       -8.136  -2.545  -6.565  0.00  0.00    +0.090 A 
BRANCH   7  14
ATOM     13  C   LIG    1      -10.044  -5.290  -8.491  0.00  0.00    +0.070 C 
ATOM     14  C   LIG    1       -9.357  -4.558  -7.367  0.00  0.00    +0.390 C 
ATOM     15  O   LIG    1       -9.284  -5.064  -6.268  0.00  0.00    -0.450 OA
ENDBRANCH   7  14
ENDBRANCH   3  11
ENDBRANCH   1   5
BRANCH   1  16
ATOM     16  O   LIG    1       -4.699  -1.483  -2.988  0.00  0.00    -0.320 OA
BRANCH  16  17
ATOM     17  C   LIG    1       -3.545  -1.040  -2.463  0.00  0.00    +0.450 C 
ATOM     18  O   LIG    1       -3.189   0.098  -2.661  0.00  0.00    -0.490 OA
BRANCH  17  19
ATOM     19  C   LIG    1       -2.695  -1.962  -1.628  0.00  0.00    +0.420 C 
BRANCH  19  20
ATOM     20  N   LIG    1       -1.499  -1.247  -1.176  0.00  0.00    -0.570 N 
ATOM     21  C   LIG    1       -0.346  -1.206  -1.854  0.00  0.00    +0.710 C 
ATOM     22  N   LIG    1        0.600  -0.482  -1.221  0.00  0.00    -0.720 N 
ATOM     23  H   LIG    1        1.506  -0.317  -1.524  0.00  0.00    +0.440 HD
ATOM     24  C   LIG    1       -0.017   0.012   0.023  0.00  0.00    +0.120 C 
ATOM     25  C   LIG    1        0.734  -0.522   1.244  0.00  0.00    +0.090 C 
ATOM     26  C   LIG    1       -0.046   1.542   0.038  0.00  0.00    +0.090 C 
ATOM     27  O   LIG    1       -0.170  -1.761  -2.921  0.00  0.00    -0.530 OA
ATOM     28  C   LIG    1       -1.424  -0.548  -0.026  0.00  0.00    +0.540 C 
ATOM     29  O   LIG    1       -2.300  -0.400   0.799  0.00  0.00    -0.450 OA
ENDBRANCH  19  20
ENDBRANCH  17  19
ENDBRANCH  16  17
ENDBRANCH   1  16
TORSDOF 7
