REMARK  Name = ZINCpe00000ICFP4.0
REMARK                            x       y       z     vdW  Elec       q    Type
REMARK                         _______ _______ _______ _____ _____    ______ ____
ROOT
ATOM      1  C   LIG    1        2.522   6.496  -3.028  0.00  0.00    +0.240 C 
ATOM      2  C   LIG    1        3.928   7.043  -3.333  0.00  0.00    +0.300 C 
ATOM      3  N   LIG    1        3.237   8.128  -4.060  0.00  0.00    -0.630 N 
ATOM      4  C   LIG    1        3.579   8.959  -5.064  0.00  0.00    +0.620 C 
ATOM      5  O   LIG    1        2.780   9.778  -5.475  0.00  0.00    -0.530 OA
ATOM      6  C   LIG    1        2.021   7.935  -3.247  0.00  0.00    +0.280 C 
ENDROOT
BRANCH   4   7
ATOM      7  C   LIG    1        4.921   8.874  -5.665  0.00  0.00    +0.020 A 
ATOM      8  C   LIG    1        5.380   9.674  -6.698  0.00  0.00    +0.010 A 
ATOM      9  C   LIG    1        6.697   9.263  -6.960  0.00  0.00    -0.180 A 
ATOM     10  C   LIG    1        7.700   9.646  -7.853  0.00  0.00    +0.200 A 
ATOM     11  C   LIG    1        8.918   8.980  -7.811  0.00  0.00    -0.070 A 
ATOM     12  C   LIG    1        9.137   7.968  -6.913  0.00  0.00    +0.340 A 
ATOM     13  N   LIG    1        8.201   7.570  -6.037  0.00  0.00    -0.490 N 
ATOM     14  H   LIG    1        8.397   6.850  -5.418  0.00  0.00    +0.430 HD
ATOM     15  C   LIG    1        6.968   8.174  -6.011  0.00  0.00    +0.240 A 
ATOM     16  N   LIG    1        5.881   8.012  -5.286  0.00  0.00    -0.510 NA
ENDBRANCH   4   7
BRANCH   1  18
ATOM     17  C   LIG    1        2.986   6.746  -0.546  0.00  0.00    +0.290 C 
ATOM     18  N   LIG    1        2.360   6.018  -1.652  0.00  0.00    -0.610 N 
ATOM     19  C   LIG    1        1.636   4.909  -1.405  0.00  0.00    +0.510 C 
ATOM     20  O   LIG    1        1.118   4.306  -2.321  0.00  0.00    -0.520 OA
BRANCH  19  21
ATOM     21  C   LIG    1        1.470   4.417   0.010  0.00  0.00    +0.160 C 
BRANCH  21  22
ATOM     22  C   LIG    1        0.623   3.170   0.012  0.00  0.00    -0.020 A 
ATOM     23  C   LIG    1       -0.722   3.114   0.024  0.00  0.00    +0.170 A 
ATOM     24  N   LIG    1       -1.083   1.822   0.017  0.00  0.00    -0.490 NA
ATOM     25  C   LIG    1       -0.013   1.076   0.008  0.00  0.00    +0.400 A 
ATOM     26  N   LIG    1        1.074   1.878   0.002  0.00  0.00    -0.560 N 
ATOM     27  H   LIG    1        2.001   1.591  -0.008  0.00  0.00    +0.420 HD
ENDBRANCH  21  22
ENDBRANCH  19  21
ENDBRANCH   1  18
TORSDOF 4
