REMARK  Name = ZINCvU00000009xB.0
REMARK                            x       y       z     vdW  Elec       q    Type
REMARK                         _______ _______ _______ _____ _____    ______ ____
ROOT
ATOM      1  C   LIG    1        5.652  -1.626  -0.680  0.00  0.00    +0.170 A 
ATOM      2  N   LIG    1        5.585  -1.602   0.631  0.00  0.00    -0.280 NA
ATOM      3  N   LIG    1        4.441  -1.149   1.003  0.00  0.00    -0.240 NA
ATOM      4  C   LIG    1        3.713  -0.859  -0.038  0.00  0.00    +0.190 A 
ATOM      5  N   LIG    1        4.455  -1.157  -1.150  0.00  0.00    -0.410 N 
ENDROOT
BRANCH   5   6
ATOM      6  C   LIG    1        4.071  -1.010  -2.490  0.00  0.00    +0.100 A 
ATOM      7  C   LIG    1        3.031  -1.773  -3.004  0.00  0.00    +0.030 A 
ATOM      8  C   LIG    1        2.652  -1.622  -4.323  0.00  0.00    +0.040 A 
ATOM      9  C   LIG    1        3.313  -0.719  -5.135  0.00  0.00    +0.040 A 
ATOM     10  C   LIG    1        4.351   0.040  -4.628  0.00  0.00    +0.040 A 
ATOM     11  C   LIG    1        4.732  -0.103  -3.308  0.00  0.00    +0.040 A 
ENDBRANCH   5   6
BRANCH   1  12
ATOM     12  S   LIG    1        7.019  -2.167  -1.650  0.00  0.00    +0.050 S 
BRANCH  12  13
ATOM     13  C   LIG    1        8.175  -2.628  -0.335  0.00  0.00    +0.230 C 
BRANCH  13  15
ATOM     14  C   LIG    1       10.540  -2.374  -1.273  0.00  0.00    -0.200 A 
ATOM     15  C   LIG    1        9.455  -3.135  -0.947  0.00  0.00    +0.090 A 
ATOM     16  O   LIG    1        9.720  -4.405  -1.266  0.00  0.00    -0.160 OA
ATOM     17  C   LIG    1       10.949  -4.521  -1.793  0.00  0.00    +0.200 A 
ATOM     18  C   LIG    1       11.527  -3.311  -1.830  0.00  0.00    +0.000 A 
BRANCH  14  19
ATOM     19  C   LIG    1       10.691  -0.920  -1.102  0.00  0.00    +0.540 C 
ATOM     20  O   LIG    1        9.786  -0.267  -0.621  0.00  0.00    -0.500 OA
BRANCH  19  22
ATOM     21  C   LIG    1       11.913   1.124  -1.279  0.00  0.00    +0.280 C 
ATOM     22  O   LIG    1       11.834  -0.312  -1.477  0.00  0.00    -0.350 OA
ENDBRANCH  19  22
ENDBRANCH  14  19
ENDBRANCH  13  15
ENDBRANCH  12  13
ENDBRANCH   1  12
BRANCH   4  23
ATOM     23  C   LIG    1        2.312  -0.304  -0.022  0.00  0.00    +0.350 C 
BRANCH  23  24
ATOM     24  O   LIG    1        2.366   1.124  -0.015  0.00  0.00    -0.300 OA
BRANCH  24  25
ATOM     25  C   LIG    1        1.179   1.786   0.000  0.00  0.00    +0.140 A 
ATOM     26  C   LIG    1       -0.013   1.076   0.008  0.00  0.00    -0.060 A 
ATOM     27  C   LIG    1       -1.218   1.751   0.017  0.00  0.00    +0.060 A 
ATOM     28  C   LIG    1       -1.238   3.133   0.030  0.00  0.00    +0.000 A 
ATOM     29  C   LIG    1       -0.052   3.844   0.022  0.00  0.00    +0.070 A 
ATOM     30  C   LIG    1        1.156   3.174   0.008  0.00  0.00    -0.070 A 
ATOM     31 CL   LIG    1        2.645   4.067  -0.001  0.00  0.00    -0.050 Cl
ENDBRANCH  24  25
ENDBRANCH  23  24
ENDBRANCH   4  23
TORSDOF 9
