REMARK  Name = ZINCwl0000000bFS.0
REMARK                            x       y       z     vdW  Elec       q    Type
REMARK                         _______ _______ _______ _____ _____    ______ ____
ROOT
ATOM      1  C   LIG    1        2.459   1.058  -0.013  0.00  0.00    +0.600 C 
ATOM      2  N   LIG    1        3.614   1.743  -0.122  0.00  0.00    -0.620 N 
ATOM      3  C   LIG    1        3.744   3.211  -0.137  0.00  0.00    +0.250 C 
ATOM      4  C   LIG    1        5.193   3.484   0.344  0.00  0.00    +0.260 C 
ATOM      5  C   LIG    1        5.965   2.313  -0.320  0.00  0.00    -0.080 C 
ATOM      6  C   LIG    1        6.313   2.644  -1.773  0.00  0.00    +0.060 C 
ATOM      7  C   LIG    1        7.229   1.978   0.474  0.00  0.00    +0.040 C 
ATOM      8  C   LIG    1        4.953   1.150  -0.253  0.00  0.00    +0.260 C 
ATOM      9  O   LIG    1        2.477  -0.155   0.077  0.00  0.00    -0.510 OA
ENDROOT
BRANCH   1  13
ATOM     10  C   LIG    1       -1.043   3.496  -2.421  0.00  0.00    +0.330 C 
ATOM     11  N   LIG    1       -0.513   2.954  -1.168  0.00  0.00    -0.490 N 
ATOM     12  C   LIG    1        0.660   2.292  -1.174  0.00  0.00    +0.340 A 
ATOM     13  C   LIG    1        1.172   1.778  -0.003  0.00  0.00    -0.240 A 
ATOM     14  C   LIG    1        0.458   1.944   1.215  0.00  0.00    +0.040 A 
ATOM     15  C   LIG    1       -0.717   2.613   1.198  0.00  0.00    -0.190 A 
ATOM     16  C   LIG    1       -1.538   2.850   2.437  0.00  0.00    +0.100 C 
ATOM     17  C   LIG    1       -1.118   1.895   3.552  0.00  0.00    +0.020 C 
ATOM     18  C   LIG    1        0.406   1.975   3.707  0.00  0.00    +0.010 C 
ATOM     19  C   LIG    1        1.048   1.355   2.468  0.00  0.00    +0.070 C 
ATOM     20  C   LIG    1       -1.205   3.118  -0.029  0.00  0.00    +0.520 A 
ATOM     21  O   LIG    1       -2.268   3.716  -0.053  0.00  0.00    -0.530 OA
ENDBRANCH   1  13
BRANCH   4  22
ATOM     22  N   LIG    1        5.288   3.413   1.804  0.00  0.00    -0.710 N 
ATOM     23  H   LIG    1        5.450   2.562   2.240  0.00  0.00    +0.400 HD
ATOM     24  C   LIG    1        5.150   4.532   2.543  0.00  0.00    +0.520 C 
ATOM     25  O   LIG    1        4.948   5.597   2.000  0.00  0.00    -0.510 OA
BRANCH  24  26
ATOM     26  C   LIG    1        5.248   4.460   4.045  0.00  0.00    +0.000 C 
ATOM     27  C   LIG    1        6.627   3.929   4.445  0.00  0.00    +0.270 C 
ATOM     28  N   LIG    1        7.329   4.921   5.262  0.00  0.00    -0.370 N 
ATOM     29  C   LIG    1        6.588   5.190   6.496  0.00  0.00    +0.250 C 
ATOM     30  C   LIG    1        5.205   5.762   6.165  0.00  0.00    +0.070 C 
ATOM     31  C   LIG    1        7.526   6.162   4.509  0.00  0.00    +0.250 C 
ATOM     32  C   LIG    1        6.172   6.762   4.124  0.00  0.00    +0.070 C 
ATOM     33  H   LIG    1        8.235   4.549   5.507  0.00  0.00    +0.430 HD
ATOM     34  C   LIG    1        5.063   5.862   4.641  0.00  0.00    +0.040 C 
ENDBRANCH  24  26
ENDBRANCH   4  22
TORSDOF 3
