REMARK  Name = ZINCpe00000gMiem.0
REMARK                            x       y       z     vdW  Elec       q    Type
REMARK                         _______ _______ _______ _____ _____    ______ ____
ROOT
ATOM      1  S   LIG    1        3.072   2.432  -0.656  0.00  0.00    +2.710 S 
ATOM      2  O   LIG    1        3.536   3.732  -0.319  0.00  0.00    -0.920 OA
ATOM      3  O   LIG    1        3.212   1.869  -1.953  0.00  0.00    -0.920 OA
ENDROOT
BRANCH   1   4
ATOM      4  C   LIG    1        1.349   2.407  -0.286  0.00  0.00    -0.580 A 
ATOM      5  C   LIG    1        0.820   1.377   0.469  0.00  0.00    +0.100 A 
ATOM      6  C   LIG    1       -0.532   1.358   0.760  0.00  0.00    +0.080 A 
ATOM      7  C   LIG    1       -1.352   2.370   0.300  0.00  0.00    +0.060 A 
ATOM      8  C   LIG    1       -0.823   3.398  -0.459  0.00  0.00    +0.130 A 
ATOM      9  C   LIG    1        0.528   3.418  -0.749  0.00  0.00    -0.570 A 
BRANCH   9  10
ATOM     10  S   LIG    1        1.203   4.731  -1.710  0.00  0.00    +2.450 S 
ATOM     11  O   LIG    1        0.203   5.005  -2.682  0.00  0.00    -0.870 OA
ATOM     12  O   LIG    1        2.488   4.259  -2.095  0.00  0.00    -0.890 OA
BRANCH  10  13
ATOM     13  C   LIG    1        1.355   6.113  -0.545  0.00  0.00    -0.020 C 
ATOM     14  F   LIG    1        2.095   5.704   0.569  0.00  0.00    -0.140 F 
ATOM     15  F   LIG    1        0.081   6.520  -0.136  0.00  0.00    -0.170 F 
ENDBRANCH  10  13
ENDBRANCH   9  10
ENDBRANCH   1   4
BRANCH   1  19
ATOM     16  C   LIG    1        4.294   0.351   2.498  0.00  0.00    +0.260 C 
ATOM     17  C   LIG    1        4.792  -0.603   1.381  0.00  0.00    +0.040 C 
ATOM     18  C   LIG    1        4.133  -0.023   0.112  0.00  0.00    +0.270 C 
ATOM     19  N   LIG    1        3.814   1.385   0.391  0.00  0.00    -1.020 NA
ATOM     20  C   LIG    1        4.269   1.712   1.754  0.00  0.00    +0.290 C 
BRANCH  16  22
ATOM     21  C   LIG    1        5.147  -0.532   4.603  0.00  0.00    +0.650 C 
ATOM     22  N   LIG    1        5.237   0.384   3.619  0.00  0.00    -0.700 N 
ATOM     23  H   LIG    1        5.926   1.066   3.653  0.00  0.00    +0.410 HD
ATOM     24  O   LIG    1        4.283  -1.386   4.561  0.00  0.00    -0.570 OA
BRANCH  21  26
ATOM     25  C   LIG    1        5.856  -1.519   6.657  0.00  0.00    +0.290 C 
ATOM     26  O   LIG    1        6.013  -0.501   5.633  0.00  0.00    -0.370 OA
ENDBRANCH  21  26
ENDBRANCH  16  22
ENDBRANCH   1  19
TORSDOF 6
