REMARK  Name = ZINCtV00000nrAEK.0
REMARK                            x       y       z     vdW  Elec       q    Type
REMARK                         _______ _______ _______ _____ _____    ______ ____
ROOT
ATOM      1  O   LIG    1        1.038  -2.442   0.094  0.00  0.00    -0.490 OA
ATOM      2  C   LIG    1        0.351  -2.292  -0.888  0.00  0.00    +0.460 C 
ENDROOT
BRANCH   2   3
ATOM      3  O   LIG    1        0.198  -3.300  -1.761  0.00  0.00    -0.360 OA
BRANCH   3   4
ATOM      4  C   LIG    1        0.887  -4.543  -1.461  0.00  0.00    +0.330 C 
BRANCH   4   5
ATOM      5  C   LIG    1        0.600  -5.551  -2.543  0.00  0.00    +0.060 A 
ATOM      6  C   LIG    1       -0.186  -5.268  -3.587  0.00  0.00    -0.030 A 
ATOM      7  S   LIG    1       -0.267  -6.694  -4.619  0.00  0.00    +0.100 S 
ATOM      8  C   LIG    1        0.790  -7.555  -3.503  0.00  0.00    +0.120 A 
ATOM      9  N   LIG    1        1.102  -6.764  -2.517  0.00  0.00    -0.460 NA
BRANCH   8  10
ATOM     10  C   LIG    1        1.249  -8.952  -3.661  0.00  0.00    -0.030 A 
ATOM     11  C   LIG    1        2.094  -9.524  -2.709  0.00  0.00    +0.070 A 
ATOM     12  C   LIG    1        2.514 -10.829  -2.859  0.00  0.00    +0.010 A 
ATOM     13  C   LIG    1        2.109 -11.568  -3.957  0.00  0.00    +0.030 A 
ATOM     14  C   LIG    1        1.276 -11.005  -4.907  0.00  0.00    +0.010 A 
ATOM     15  C   LIG    1        0.844  -9.702  -4.766  0.00  0.00    +0.030 A 
ENDBRANCH   8  10
ENDBRANCH   4   5
ENDBRANCH   3   4
ENDBRANCH   2   3
BRANCH   2  16
ATOM     16  C   LIG    1       -0.335  -0.973  -1.133  0.00  0.00    +0.110 C 
BRANCH  16  17
ATOM     17  C   LIG    1        0.002  -0.004   0.002  0.00  0.00    +0.100 C 
BRANCH  17  18
ATOM     18  C   LIG    1       -0.579  -0.521   1.293  0.00  0.00    -0.070 A 
ATOM     19  C   LIG    1        0.225  -0.654   2.409  0.00  0.00    +0.030 A 
ATOM     20  C   LIG    1       -0.309  -1.124   3.594  0.00  0.00    +0.000 A 
ATOM     21  C   LIG    1       -1.645  -1.471   3.660  0.00  0.00    +0.000 A 
ATOM     22  C   LIG    1       -2.449  -1.344   2.542  0.00  0.00    +0.000 A 
ATOM     23  C   LIG    1       -1.916  -0.869   1.359  0.00  0.00    +0.000 A 
ENDBRANCH  17  18
BRANCH  17  24
ATOM     24  C   LIG    1       -0.582   1.351  -0.304  0.00  0.00    -0.080 A 
ATOM     25  C   LIG    1       -1.918   1.469  -0.637  0.00  0.00    +0.010 A 
ATOM     26  C   LIG    1       -2.454   2.713  -0.913  0.00  0.00    +0.000 A 
ATOM     27  C   LIG    1       -1.652   3.837  -0.867  0.00  0.00    +0.000 A 
ATOM     28  C   LIG    1       -0.314   3.719  -0.538  0.00  0.00    +0.000 A 
ATOM     29  C   LIG    1        0.221   2.476  -0.257  0.00  0.00    +0.010 A 
ENDBRANCH  17  24
ENDBRANCH  16  17
ENDBRANCH   2  16
TORSDOF 8
