REMARK  Name = ZINCvU00000008wW.0
REMARK                            x       y       z     vdW  Elec       q    Type
REMARK                         _______ _______ _______ _____ _____    ______ ____
ROOT
ATOM      1  N   LIG    1        1.143   1.898   0.001  0.00  0.00    -0.730 N 
ATOM      2  H   LIG    1        1.130   2.868   0.007  0.00  0.00    +0.410 HD
ATOM      3  C   LIG    1       -0.014   1.209   0.009  0.00  0.00    +0.520 C 
ATOM      4  O   LIG    1        0.002  -0.004   0.002  0.00  0.00    -0.500 OA
ENDROOT
BRANCH   1   5
ATOM      5  C   LIG    1        2.422   1.183  -0.015  0.00  0.00    +0.430 C 
BRANCH   5   6
ATOM      6  C   LIG    1        3.495   2.058   0.580  0.00  0.00    -0.070 A 
ATOM      7  C   LIG    1        3.524   3.410   0.290  0.00  0.00    +0.030 A 
ATOM      8  C   LIG    1        4.505   4.214   0.840  0.00  0.00    +0.080 A 
ATOM      9  C   LIG    1        5.463   3.664   1.671  0.00  0.00    -0.170 A 
ATOM     10  C   LIG    1        5.437   2.312   1.957  0.00  0.00    +0.080 A 
ATOM     11  C   LIG    1        4.453   1.509   1.412  0.00  0.00    +0.060 A 
BRANCH   9  12
ATOM     12  C   LIG    1        6.537   4.540   2.265  0.00  0.00    +0.510 C 
ATOM     13  F   LIG    1        6.928   4.021   3.504  0.00  0.00    -0.170 F 
ATOM     14  F   LIG    1        6.039   5.835   2.438  0.00  0.00    -0.170 F 
ATOM     15  F   LIG    1        7.639   4.574   1.405  0.00  0.00    -0.170 F 
ENDBRANCH   9  12
ENDBRANCH   5   6
BRANCH   5  17
ATOM     16  N   LIG    1        3.053   0.585  -2.474  0.00  0.00    -0.390 NA
ATOM     17  C   LIG    1        2.778   0.846  -1.403  0.00  0.00    +0.190 C 
ENDBRANCH   5  17
ENDBRANCH   1   5
BRANCH   3  18
ATOM     18  C   LIG    1       -1.330   1.944   0.019  0.00  0.00    +0.180 C 
BRANCH  18  19
ATOM     19  C   LIG    1       -2.462   0.950   0.019  0.00  0.00    +0.080 A 
ATOM     20  C   LIG    1       -3.423   0.948   0.947  0.00  0.00    -0.060 A 
ATOM     21  S   LIG    1       -4.536  -0.366   0.574  0.00  0.00    +0.170 S 
ATOM     22  C   LIG    1       -3.593  -0.788  -0.789  0.00  0.00    +0.030 A 
ATOM     23  N   LIG    1       -2.582   0.006  -0.893  0.00  0.00    -0.420 NA
BRANCH  22  24
ATOM     24  C   LIG    1       -3.900  -1.923  -1.731  0.00  0.00    +0.330 C 
BRANCH  24  25
ATOM     25  O   LIG    1       -3.264  -3.115  -1.264  0.00  0.00    -0.300 OA
BRANCH  25  26
ATOM     26  C   LIG    1       -3.441  -4.240  -2.006  0.00  0.00    +0.140 A 
ATOM     27  C   LIG    1       -4.215  -4.199  -3.156  0.00  0.00    -0.060 A 
ATOM     28  C   LIG    1       -4.391  -5.343  -3.911  0.00  0.00    +0.070 A 
ATOM     29  C   LIG    1       -3.802  -6.531  -3.515  0.00  0.00    -0.070 A 
ATOM     30  C   LIG    1       -3.033  -6.575  -2.365  0.00  0.00    +0.070 A 
ATOM     31 CL   LIG    1       -4.029  -7.968  -4.462  0.00  0.00    -0.070 Cl
ATOM     32  C   LIG    1       -2.852  -5.432  -1.611  0.00  0.00    +0.000 A 
ENDBRANCH  25  26
ENDBRANCH  24  25
ENDBRANCH  22  24
ENDBRANCH  18  19
ENDBRANCH   3  18
TORSDOF 9
