REMARK  Name = ZINCrg000000syNb.0
REMARK                            x       y       z     vdW  Elec       q    Type
REMARK                         _______ _______ _______ _____ _____    ______ ____
ROOT
ATOM      1  C   LIG    1       -2.747   0.505  -2.148  0.00  0.00    +0.610 C 
ATOM      2  N   LIG    1       -2.101   0.980  -1.065  0.00  0.00    -0.600 N 
ATOM      3  C   LIG    1       -0.638   1.113  -1.064  0.00  0.00    +0.290 C 
ATOM      4  C   LIG    1       -0.076   0.378   0.157  0.00  0.00    +0.020 C 
ATOM      5  C   LIG    1       -0.755   0.906   1.423  0.00  0.00    +0.020 C 
ATOM      6  C   LIG    1       -2.260   0.637   1.346  0.00  0.00    +0.270 C 
ATOM      7  C   LIG    1       -2.847   1.375   0.138  0.00  0.00    +0.280 C 
ATOM      8  O   LIG    1       -3.940   0.278  -2.093  0.00  0.00    -0.530 OA
ENDROOT
BRANCH   6   9
ATOM      9  N   LIG    1       -2.906   1.115   2.571  0.00  0.00    -0.980 NA
ATOM     10  C   LIG    1       -2.900   2.493   3.068  0.00  0.00    +0.240 C 
ATOM     11  C   LIG    1       -3.702   2.685   4.359  0.00  0.00    +0.090 C 
ATOM     12  C   LIG    1       -3.673   1.316   5.097  0.00  0.00    -0.310 C 
ATOM     13  S   LIG    1       -3.786   0.185   3.648  0.00  0.00    +2.560 S 
ATOM     14  O   LIG    1       -3.016  -0.993   3.847  0.00  0.00    -0.950 OA
ATOM     15  O   LIG    1       -5.104   0.143   3.121  0.00  0.00    -0.940 OA
ENDBRANCH   6   9
BRANCH   1  18
ATOM     16  C   LIG    1       -3.896  -0.849  -4.726  0.00  0.00    +0.200 C 
ATOM     17  C   LIG    1       -2.497  -0.325  -4.526  0.00  0.00    +0.040 A 
ATOM     18  C   LIG    1       -2.007   0.262  -3.400  0.00  0.00    -0.070 A 
ATOM     19  N   LIG    1       -0.707   0.578  -3.642  0.00  0.00    -0.460 NA
ATOM     20  C   LIG    1       -0.412   0.207  -4.863  0.00  0.00    +0.290 A 
ATOM     21  O   LIG    1       -1.500  -0.348  -5.426  0.00  0.00    -0.190 OA
BRANCH  20  22
ATOM     22  C   LIG    1        0.904   0.372  -5.516  0.00  0.00    -0.180 A 
ATOM     23  C   LIG    1        1.230  -0.014  -6.787  0.00  0.00    +0.300 A 
ATOM     24  N   LIG    1        2.518   0.317  -6.994  0.00  0.00    -0.360 N 
ATOM     25  N   LIG    1        3.012   0.914  -5.828  0.00  0.00    -0.290 NA
ATOM     26  C   LIG    1        3.276   0.087  -8.227  0.00  0.00    +0.370 C 
ATOM     27  C   LIG    1        2.054   0.950  -4.941  0.00  0.00    +0.300 A 
ENDBRANCH  20  22
ENDBRANCH   1  18
TORSDOF 3
