REMARK  Name = ZINCpe000027pH9z.0
REMARK                            x       y       z     vdW  Elec       q    Type
REMARK                         _______ _______ _______ _____ _____    ______ ____
ROOT
ATOM      1  C   LIG    1       -4.662  -0.854   1.624  0.00  0.00    +0.520 C 
ATOM      2  N   LIG    1       -4.650  -2.180   1.867  0.00  0.00    -0.620 N 
ATOM      3  C   LIG    1       -4.854  -3.236   0.865  0.00  0.00    +0.260 C 
ATOM      4  C   LIG    1       -4.779  -4.589   1.604  0.00  0.00    +0.090 C 
ATOM      5  C   LIG    1       -5.109  -4.201   3.069  0.00  0.00    -0.470 C 
ATOM      6  C   LIG    1       -4.435  -2.811   3.182  0.00  0.00    +0.310 C 
ATOM      7  O   LIG    1       -4.486  -0.070   2.532  0.00  0.00    -0.520 OA
ENDROOT
BRANCH   5   8
ATOM      8  S   LIG    1       -4.370  -5.378   4.235  0.00  0.00    +2.620 S 
ATOM      9  O   LIG    1       -4.782  -5.089   5.564  0.00  0.00    -0.950 OA
ATOM     10  O   LIG    1       -3.000  -5.595   3.924  0.00  0.00    -0.940 OA
BRANCH   8  11
ATOM     11  N   LIG    1       -5.102  -6.821   3.885  0.00  0.00    -1.120 NA
ATOM     12  H   LIG    1       -5.675  -7.247   4.543  0.00  0.00    +0.420 HD
BRANCH  11  13
ATOM     13  C   LIG    1       -4.884  -7.456   2.583  0.00  0.00    +0.250 C 
ATOM     14  C   LIG    1       -5.345  -8.914   2.643  0.00  0.00    +0.040 C 
ENDBRANCH  11  13
ENDBRANCH   8  11
ENDBRANCH   5   8
BRANCH   1  15
ATOM     15  C   LIG    1       -4.894  -0.346   0.224  0.00  0.00    +0.110 C 
BRANCH  15  21
ATOM     16  C   LIG    1       -3.646   1.828   0.122  0.00  0.00    +0.170 A 
ATOM     17  C   LIG    1       -3.618   3.217   0.128  0.00  0.00    +0.020 A 
ATOM     18  C   LIG    1       -4.798   3.929   0.224  0.00  0.00    +0.040 A 
ATOM     19  C   LIG    1       -6.004   3.261   0.325  0.00  0.00    -0.020 A 
ATOM     20  C   LIG    1       -6.035   1.878   0.325  0.00  0.00    +0.030 A 
ATOM     21  C   LIG    1       -4.859   1.160   0.224  0.00  0.00    -0.110 A 
BRANCH  16  23
ATOM     22  C   LIG    1       -1.373   1.664  -0.558  0.00  0.00    +0.540 C 
ATOM     23  N   LIG    1       -2.454   1.104   0.020  0.00  0.00    -0.670 N 
ATOM     24  H   LIG    1       -2.405   0.199   0.365  0.00  0.00    +0.410 HD
ATOM     25  O   LIG    1       -1.461   2.759  -1.080  0.00  0.00    -0.520 OA
BRANCH  22  27
ATOM     26  C   LIG    1        0.979   1.501  -1.133  0.00  0.00    +0.160 C 
ATOM     27  C   LIG    1       -0.087   0.951  -0.558  0.00  0.00    -0.090 C 
ENDBRANCH  22  27
ENDBRANCH  16  23
ENDBRANCH  15  21
ENDBRANCH   1  15
TORSDOF 7
