REMARK  Name = ZINCrH00000No4y5.0
REMARK                            x       y       z     vdW  Elec       q    Type
REMARK                         _______ _______ _______ _____ _____    ______ ____
ROOT
ATOM      1  N   LIG    1        1.843   3.895   1.409  0.00  0.00    -0.530 NA
ENDROOT
BRANCH   1   2
ATOM      2  C   LIG    1        1.607   3.465   0.024  0.00  0.00    +0.310 C 
BRANCH   2   5
ATOM      3  C   LIG    1       -0.852   1.549   0.100  0.00  0.00    +0.170 C 
ATOM      4  C   LIG    1        0.584   1.106  -0.013  0.00  0.00    +0.030 A 
ATOM      5  C   LIG    1        1.634   1.960  -0.046  0.00  0.00    -0.250 A 
ATOM      6  S   LIG    1        3.007   0.932  -0.186  0.00  0.00    +0.440 S 
ATOM      7  N   LIG    1        2.203  -0.411  -0.192  0.00  0.00    -0.290 NA
ATOM      8  N   LIG    1        0.957  -0.154  -0.095  0.00  0.00    -0.240 NA
ENDBRANCH   2   5
ENDBRANCH   1   2
BRANCH   1   9
ATOM      9  C   LIG    1        0.675   3.613   2.254  0.00  0.00    +0.190 C 
BRANCH   9  10
ATOM     10  C   LIG    1        1.075   3.712   3.727  0.00  0.00    +0.010 C 
ATOM     11  C   LIG    1        2.093   2.615   4.055  0.00  0.00    +0.030 C 
ATOM     12  C   LIG    1        2.451   2.680   5.541  0.00  0.00    +0.000 C 
ATOM     13  C   LIG    1        1.199   2.431   6.384  0.00  0.00    +0.000 C 
ATOM     14  C   LIG    1        0.165   3.524   6.098  0.00  0.00    +0.030 C 
ATOM     15  C   LIG    1       -0.161   3.529   4.606  0.00  0.00    -0.070 C 
ATOM     16  C   LIG    1       -1.053   2.360   4.170  0.00  0.00    +0.010 C 
ATOM     17  C   LIG    1       -2.255   3.268   4.484  0.00  0.00    +0.010 C 
ATOM     18  C   LIG    1       -1.319   4.464   4.235  0.00  0.00    +0.010 C 
ENDBRANCH   9  10
ENDBRANCH   1   9
BRANCH   1  19
ATOM     19  C   LIG    1        2.201   5.318   1.464  0.00  0.00    +0.320 C 
BRANCH  19  20
ATOM     20  C   LIG    1        3.534   5.527   0.792  0.00  0.00    +0.200 A 
ATOM     21  N   LIG    1        3.730   5.793  -0.471  0.00  0.00    -0.280 NA
ATOM     22  N   LIG    1        4.991   5.907  -0.698  0.00  0.00    -0.280 NA
ATOM     23  C   LIG    1        5.656   5.716   0.411  0.00  0.00    +0.160 A 
ATOM     24  C   LIG    1        7.056   5.671   0.982  0.00  0.00    +0.160 C 
ATOM     25  C   LIG    1        6.890   4.954   2.342  0.00  0.00    +0.070 C 
ATOM     26  C   LIG    1        5.412   5.253   2.678  0.00  0.00    +0.290 C 
ATOM     27  N   LIG    1        4.751   5.479   1.387  0.00  0.00    -0.480 N 
ENDBRANCH  19  20
ENDBRANCH   1  19
TORSDOF 6
