REMARK  Name = ZINCrD00000l15tn.0
REMARK                            x       y       z     vdW  Elec       q    Type
REMARK                         _______ _______ _______ _____ _____    ______ ____
ROOT
ATOM      1  C   LIG    1       -4.161   0.927   0.044  0.00  0.00    +0.050 A 
ATOM      2  C   LIG    1       -4.639   0.164   1.102  0.00  0.00    -0.020 A 
ATOM      3  C   LIG    1       -5.956  -0.250   1.115  0.00  0.00    +0.040 A 
ATOM      4  C   LIG    1       -6.801   0.088   0.066  0.00  0.00    +0.170 A 
ATOM      5  C   LIG    1       -6.322   0.848  -0.994  0.00  0.00    -0.100 A 
ATOM      6  C   LIG    1       -7.239   1.214  -2.133  0.00  0.00    +0.090 C 
ATOM      7  C   LIG    1       -5.006   1.266  -1.005  0.00  0.00    +0.030 A 
ENDROOT
BRANCH   1  11
ATOM      8  N   LIG    1       -0.001   0.941   0.001  0.00  0.00    -0.390 N 
ATOM      9  C   LIG    1       -0.709   1.435  -1.188  0.00  0.00    +0.280 C 
ATOM     10  C   LIG    1       -2.143   0.902  -1.187  0.00  0.00    +0.220 C 
ATOM     11  N   LIG    1       -2.828   1.351   0.033  0.00  0.00    -0.480 N 
ATOM     12  C   LIG    1       -2.118   0.885   1.232  0.00  0.00    +0.220 C 
ATOM     13  C   LIG    1       -0.683   1.418   1.211  0.00  0.00    +0.270 C 
ATOM     14  H   LIG    1        0.004  -0.068  -0.006  0.00  0.00    +0.420 HD
BRANCH   8  16
ATOM     15  C   LIG    1        2.153   0.824   1.159  0.00  0.00    +0.080 C 
ATOM     16  C   LIG    1        1.381   1.438  -0.010  0.00  0.00    +0.250 C 
ENDBRANCH   8  16
ENDBRANCH   1  11
BRANCH   4  17
ATOM     17  N   LIG    1       -8.136  -0.337   0.076  0.00  0.00    -0.670 N 
ATOM     18  H   LIG    1       -8.621  -0.431  -0.758  0.00  0.00    +0.410 HD
ATOM     19  C   LIG    1       -8.745  -0.614   1.246  0.00  0.00    +0.620 C 
ATOM     20  O   LIG    1       -8.171  -0.400   2.297  0.00  0.00    -0.520 OA
BRANCH  19  21
ATOM     21  C   LIG    1      -10.106  -1.175   1.251  0.00  0.00    -0.350 A 
ATOM     22  C   LIG    1      -11.221  -0.324   1.279  0.00  0.00    +0.340 A 
ATOM     23  C   LIG    1      -12.497  -0.862   1.283  0.00  0.00    -0.170 A 
ATOM     24  C   LIG    1      -12.672  -2.235   1.262  0.00  0.00    +0.180 A 
ATOM     25  C   LIG    1      -11.574  -3.082   1.235  0.00  0.00    -0.190 A 
ATOM     26  F   LIG    1      -13.920  -2.753   1.267  0.00  0.00    -0.150 F 
ATOM     27  O   LIG    1      -11.049   1.021   1.301  0.00  0.00    -0.680 OA
ATOM     28  C   LIG    1      -10.296  -2.563   1.224  0.00  0.00    +0.200 A 
ATOM     29  F   LIG    1       -9.229  -3.391   1.192  0.00  0.00    -0.150 F 
ENDBRANCH  19  21
ENDBRANCH   4  17
TORSDOF 4
