REMARK  Name = ZINCpk00000e9bRm.0
REMARK                            x       y       z     vdW  Elec       q    Type
REMARK                         _______ _______ _______ _____ _____    ______ ____
ROOT
ATOM      1  C   LIG    1       -6.929  -0.274   7.678  0.00  0.00    +0.030 C 
ATOM      2  C   LIG    1       -6.945   1.028   6.875  0.00  0.00    -0.020 C 
ATOM      3  C   LIG    1       -5.508   1.464   6.583  0.00  0.00    +0.030 C 
ATOM      4  C   LIG    1       -5.525   2.773   5.790  0.00  0.00    +0.060 C 
ATOM      5  C   LIG    1       -6.287   2.570   4.485  0.00  0.00    +0.140 C 
ATOM      6  N   LIG    1       -6.288   3.807   3.692  0.00  0.00    -0.710 N 
ATOM      7  H   LIG    1       -6.667   4.661   3.950  0.00  0.00    +0.440 HD
ATOM      8  C   LIG    1       -5.657   3.519   2.537  0.00  0.00    +0.710 C 
ATOM      9  N   LIG    1       -5.247   2.246   2.483  0.00  0.00    -0.380 N 
ATOM     10  O   LIG    1       -5.482   4.325   1.645  0.00  0.00    -0.520 OA
ATOM     11  C   LIG    1       -7.715   2.111   4.759  0.00  0.00    +0.060 C 
ATOM     12  C   LIG    1       -5.575   1.570   3.603  0.00  0.00    +0.540 C 
ATOM     13  O   LIG    1       -5.345   0.406   3.851  0.00  0.00    -0.440 OA
ATOM     14  C   LIG    1       -7.689   0.804   5.557  0.00  0.00    +0.040 C 
ENDROOT
BRANCH   9  15
ATOM     15  N   LIG    1       -4.566   1.685   1.395  0.00  0.00    -0.510 N 
ATOM     16  H   LIG    1       -5.030   1.085   0.789  0.00  0.00    +0.430 HD
ATOM     17  C   LIG    1       -3.266   1.977   1.190  0.00  0.00    +0.520 C 
ATOM     18  O   LIG    1       -2.686   2.726   1.947  0.00  0.00    -0.490 OA
BRANCH  17  19
ATOM     19  C   LIG    1       -2.534   1.373   0.020  0.00  0.00    +0.200 C 
BRANCH  19  20
ATOM     20  C   LIG    1       -1.106   1.856   0.017  0.00  0.00    +0.050 A 
ATOM     21  C   LIG    1       -0.013   1.076   0.008  0.00  0.00    +0.160 A 
ATOM     22  N   LIG    1        1.097   1.914   0.002  0.00  0.00    -0.420 N 
ATOM     23  C   LIG    1        2.470   1.817  -0.012  0.00  0.00    +0.220 A 
ATOM     24  C   LIG    1        3.185   2.928  -0.013  0.00  0.00    +0.010 A 
ATOM     25  S   LIG    1        2.008   4.253   0.006  0.00  0.00    +0.160 S 
ATOM     26  C   LIG    1        0.600   3.180   0.013  0.00  0.00    +0.160 A 
ATOM     27  N   LIG    1       -0.712   3.137   0.026  0.00  0.00    -0.420 NA
ENDBRANCH  19  20
ENDBRANCH  17  19
ENDBRANCH   9  15
TORSDOF 3
