REMARK  Name = ZINCkj00000GeiHD.2
REMARK                            x       y       z     vdW  Elec       q    Type
REMARK                         _______ _______ _______ _____ _____    ______ ____
ROOT
ATOM      1  C   LIG    1       -0.013   1.086   0.008  0.00  0.00    +0.050 C 
ATOM      2  C   LIG    1       -0.729   1.579   1.267  0.00  0.00    +0.260 C 
ATOM      3  C   LIG    1        0.004   1.065   2.511  0.00  0.00    +0.260 C 
ATOM      4  N   LIG    1       -0.091  -0.399   2.563  0.00  0.00    -0.390 N 
ATOM      5  C   LIG    1       -1.492  -0.804   2.734  0.00  0.00    +0.270 C 
ATOM      6  C   LIG    1       -2.299  -0.383   1.501  0.00  0.00    +0.310 C 
ATOM      7  C   LIG    1        0.703  -0.899   3.694  0.00  0.00    +0.330 C 
ATOM      8  H   LIG    1        0.268  -0.789   1.705  0.00  0.00    +0.420 HD
ATOM      9  N   LIG    1       -2.107   1.064   1.286  0.00  0.00    -0.630 N 
ATOM     10  C   LIG    1       -3.158   1.890   1.115  0.00  0.00    +0.500 C 
ATOM     11  O   LIG    1       -2.975   3.077   0.943  0.00  0.00    -0.490 OA
ENDROOT
BRANCH  10  12
ATOM     12  C   LIG    1       -4.560   1.340   1.138  0.00  0.00    +0.340 C 
BRANCH  12  13
ATOM     13  N   LIG    1       -5.517   2.430   0.932  0.00  0.00    -0.590 N 
ATOM     14  C   LIG    1       -6.049   3.166   2.082  0.00  0.00    +0.310 C 
BRANCH  13  15
ATOM     15  C   LIG    1       -5.919   2.767  -0.356  0.00  0.00    +0.410 A 
ATOM     16  C   LIG    1       -5.488   2.003  -1.435  0.00  0.00    -0.100 A 
ATOM     17  C   LIG    1       -5.900   2.346  -2.710  0.00  0.00    +0.130 A 
ATOM     18  C   LIG    1       -6.724   3.453  -2.865  0.00  0.00    -0.140 A 
ATOM     19  C   LIG    1       -7.110   4.170  -1.749  0.00  0.00    +0.340 A 
ATOM     20 CL   LIG    1       -7.265   3.930  -4.444  0.00  0.00    -0.050 Cl
ATOM     21  N   LIG    1       -6.705   3.816  -0.544  0.00  0.00    -0.520 NA
ENDBRANCH  13  15
ENDBRANCH  12  13
ENDBRANCH  10  12
TORSDOF 3
