REMARK  Name = ZINCkj00000GeiHD.1
REMARK                            x       y       z     vdW  Elec       q    Type
REMARK                         _______ _______ _______ _____ _____    ______ ____
ROOT
ATOM      1  C   LIG    1        3.697   1.980   0.614  0.00  0.00    +0.090 C 
ATOM      2  C   LIG    1        2.289   1.495   0.962  0.00  0.00    +0.230 C 
ATOM      3  C   LIG    1        2.305  -0.022   1.177  0.00  0.00    +0.250 C 
ATOM      4  N   LIG    1        0.932  -0.501   1.381  0.00  0.00    -0.390 N 
ATOM      5  C   LIG    1        0.140  -0.282   0.164  0.00  0.00    +0.260 C 
ATOM      6  C   LIG    1        0.016   1.222  -0.101  0.00  0.00    +0.310 C 
ATOM      7  C   LIG    1        0.959  -1.936   1.694  0.00  0.00    +0.330 C 
ATOM      8  H   LIG    1        0.512   0.002   2.149  0.00  0.00    +0.430 HD
ATOM      9  N   LIG    1        1.369   1.800  -0.144  0.00  0.00    -0.630 N 
ATOM     10  C   LIG    1        1.753   2.588  -1.168  0.00  0.00    +0.500 C 
ATOM     11  O   LIG    1        2.897   2.985  -1.231  0.00  0.00    -0.480 OA
ENDROOT
BRANCH  10  12
ATOM     12  C   LIG    1        0.761   2.974  -2.235  0.00  0.00    +0.340 C 
BRANCH  12  13
ATOM     13  N   LIG    1        1.420   3.826  -3.228  0.00  0.00    -0.590 N 
ATOM     14  C   LIG    1        1.429   5.281  -3.055  0.00  0.00    +0.320 C 
BRANCH  13  15
ATOM     15  C   LIG    1        2.036   3.254  -4.336  0.00  0.00    +0.410 A 
ATOM     16  C   LIG    1        1.935   1.884  -4.550  0.00  0.00    -0.100 A 
ATOM     17  C   LIG    1        2.552   1.328  -5.656  0.00  0.00    +0.120 A 
ATOM     18  C   LIG    1        3.254   2.165  -6.514  0.00  0.00    -0.140 A 
ATOM     19  C   LIG    1        3.313   3.518  -6.240  0.00  0.00    +0.340 A 
ATOM     20 CL   LIG    1        4.047   1.518  -7.916  0.00  0.00    -0.050 Cl
ATOM     21  N   LIG    1        2.710   4.021  -5.180  0.00  0.00    -0.520 NA
ENDBRANCH  13  15
ENDBRANCH  12  13
ENDBRANCH  10  12
TORSDOF 3
