REMARK  Name = ZINCqH0000007QrK.0
REMARK                            x       y       z     vdW  Elec       q    Type
REMARK                         _______ _______ _______ _____ _____    ______ ____
ROOT
ATOM      1  C   LIG    1       -1.452   2.250   0.057  0.00  0.00    +0.030 C 
ENDROOT
BRANCH   1   4
ATOM      2  N   LIG    1        0.791   3.158  -0.452  0.00  0.00    -0.650 N 
ATOM      3  H   LIG    1        0.408   4.048  -0.411  0.00  0.00    +0.420 HD
ATOM      4  C   LIG    1        0.003   2.077  -0.292  0.00  0.00    +0.540 C 
ATOM      5  O   LIG    1        0.464   0.964  -0.434  0.00  0.00    -0.510 OA
BRANCH   2  11
ATOM      6  C   LIG    1        3.070   3.931  -0.176  0.00  0.00    +0.110 A 
ATOM      7  C   LIG    1        4.427   3.763  -0.397  0.00  0.00    -0.060 A 
ATOM      8  C   LIG    1        4.880   2.677  -1.123  0.00  0.00    +0.040 A 
ATOM      9  C   LIG    1        3.983   1.753  -1.625  0.00  0.00    -0.010 A 
ATOM     10  C   LIG    1        2.627   1.910  -1.404  0.00  0.00    +0.070 A 
ATOM     11  C   LIG    1        2.165   2.997  -0.677  0.00  0.00    +0.110 A 
BRANCH   6  13
ATOM     12  C   LIG    1        3.606   5.918   1.014  0.00  0.00    +0.250 C 
ATOM     13  O   LIG    1        2.621   5.002   0.532  0.00  0.00    -0.320 OA
ENDBRANCH   6  13
ENDBRANCH   2  11
ENDBRANCH   1   4
BRANCH   1  14
ATOM     14  C   LIG    1       -1.588   2.517   1.558  0.00  0.00    +0.020 C 
ATOM     15  C   LIG    1       -0.896   3.836   1.907  0.00  0.00    +0.030 C 
ATOM     16  C   LIG    1       -0.934   1.375   2.340  0.00  0.00    +0.030 C 
ENDBRANCH   1  14
BRANCH   1  17
ATOM     17  S   LIG    1       -2.360   0.745  -0.373  0.00  0.00    +0.080 S 
BRANCH  17  18
ATOM     18  C   LIG    1       -4.009   1.282  -0.063  0.00  0.00    +0.140 A 
ATOM     19  N   LIG    1       -4.387   2.494   0.281  0.00  0.00    -0.290 NA
ATOM     20  N   LIG    1       -5.666   2.531   0.417  0.00  0.00    -0.280 NA
ATOM     21  C   LIG    1       -6.172   1.358   0.176  0.00  0.00    +0.190 A 
ATOM     22  C   LIG    1       -7.628   0.968   0.206  0.00  0.00    +0.150 C 
ATOM     23  C   LIG    1       -7.776  -0.343   0.984  0.00  0.00    +0.030 C 
ATOM     24  C   LIG    1       -7.606  -1.526   0.036  0.00  0.00    +0.020 C 
ATOM     25  C   LIG    1       -6.600  -1.194  -1.065  0.00  0.00    +0.030 C 
ATOM     26  C   LIG    1       -5.231  -0.903  -0.443  0.00  0.00    +0.290 C 
ATOM     27  N   LIG    1       -5.136   0.522  -0.127  0.00  0.00    -0.460 N 
ENDBRANCH  17  18
ENDBRANCH   1  17
TORSDOF 6
