REMARK  Name = ZINCrD0000075YlK.0
REMARK                            x       y       z     vdW  Elec       q    Type
REMARK                         _______ _______ _______ _____ _____    ______ ____
ROOT
ATOM      1  N   LIG    1       -0.008   0.930  -0.046  0.00  0.00    -0.720 N 
ATOM      2  H   LIG    1       -0.009  -0.040  -0.075  0.00  0.00    +0.400 HD
ATOM      3  C   LIG    1       -1.175   1.604   0.003  0.00  0.00    +0.540 C 
ATOM      4  O   LIG    1       -1.173   2.810   0.127  0.00  0.00    -0.510 OA
ENDROOT
BRANCH   1   7
ATOM      5  O   LIG    1        0.822   2.358   2.123  0.00  0.00    -0.520 OA
ATOM      6  C   LIG    1        1.673   1.977   1.347  0.00  0.00    +0.500 C 
ATOM      7  C   LIG    1        1.260   1.663  -0.062  0.00  0.00    +0.260 C 
ATOM      8  C   LIG    1        2.333   0.806  -0.740  0.00  0.00    +0.040 C 
ATOM      9  C   LIG    1        3.698   1.463  -0.504  0.00  0.00    +0.040 C 
ATOM     10  C   LIG    1        4.036   1.370   0.984  0.00  0.00    +0.260 C 
ATOM     11  N   LIG    1        2.925   1.860   1.791  0.00  0.00    -0.600 N 
BRANCH  11  12
ATOM     12  C   LIG    1        3.201   2.248   3.176  0.00  0.00    +0.230 C 
ATOM     13  C   LIG    1        2.361   1.389   4.124  0.00  0.00    +0.010 C 
ATOM     14  C   LIG    1        2.650   1.794   5.571  0.00  0.00    +0.010 C 
ATOM     15  C   LIG    1        2.293   3.268   5.768  0.00  0.00    +0.000 C 
ATOM     16  C   LIG    1        3.134   4.127   4.821  0.00  0.00    +0.010 C 
ATOM     17  C   LIG    1        2.845   3.722   3.374  0.00  0.00    +0.010 C 
ENDBRANCH  11  12
ENDBRANCH   1   7
BRANCH   3  18
ATOM     18  C   LIG    1       -2.480   0.858  -0.095  0.00  0.00    -0.030 C 
ATOM     19  C   LIG    1       -2.512   0.018  -1.385  0.00  0.00    +0.030 C 
ATOM     20  C   LIG    1       -3.703   0.537  -2.218  0.00  0.00    +0.020 C 
ATOM     21  C   LIG    1       -3.922   1.983  -1.709  0.00  0.00    +0.020 C 
ATOM     22  C   LIG    1       -3.653   1.855  -0.189  0.00  0.00    +0.060 C 
BRANCH  18  23
ATOM     23  C   LIG    1       -2.656  -0.035   1.106  0.00  0.00    -0.130 A 
ATOM     24  C   LIG    1       -1.748   0.009   2.153  0.00  0.00    +0.070 A 
ATOM     25  C   LIG    1       -1.953  -0.827   3.240  0.00  0.00    -0.040 A 
ATOM     26  C   LIG    1       -3.042  -1.678   3.239  0.00  0.00    +0.260 A 
ATOM     27  N   LIG    1       -3.882  -1.697   2.224  0.00  0.00    -0.480 NA
ATOM     28  C   LIG    1       -3.722  -0.912   1.176  0.00  0.00    +0.270 A 
ENDBRANCH  18  23
ENDBRANCH   3  18
TORSDOF 4
