REMARK  Name = ZINCvU0000000BXe.0
REMARK                            x       y       z     vdW  Elec       q    Type
REMARK                         _______ _______ _______ _____ _____    ______ ____
ROOT
ATOM      1  N   LIG    1       -0.989   1.721   0.850  0.00  0.00    -0.600 N 
ATOM      2  C   LIG    1       -0.693   2.893   1.447  0.00  0.00    +0.590 C 
ATOM      3  O   LIG    1        0.357   3.454   1.197  0.00  0.00    -0.480 OA
ENDROOT
BRANCH   2   4
ATOM      4  C   LIG    1       -1.637   3.491   2.399  0.00  0.00    -0.080 A 
ATOM      5  C   LIG    1       -1.796   4.829   2.632  0.00  0.00    -0.000 A 
ATOM      6  C   LIG    1       -2.793   4.950   3.607  0.00  0.00    -0.270 A 
ATOM      7  C   LIG    1       -3.215   3.663   3.944  0.00  0.00    +0.110 A 
ATOM      8  C   LIG    1       -4.284   3.395   4.973  0.00  0.00    +0.140 C 
ATOM      9  C   LIG    1       -4.422   4.616   5.886  0.00  0.00    -0.050 C 
ATOM     10  C   LIG    1       -4.633   5.889   5.060  0.00  0.00    +0.040 C 
ATOM     11  C   LIG    1       -5.620   4.415   6.817  0.00  0.00    +0.040 C 
ATOM     12  C   LIG    1       -3.152   4.765   6.726  0.00  0.00    +0.030 C 
ATOM     13  C   LIG    1       -3.378   6.143   4.239  0.00  0.00    +0.430 C 
ATOM     14  O   LIG    1       -2.894   7.248   4.114  0.00  0.00    -0.460 OA
ATOM     15  C   LIG    1       -1.045   5.954   1.968  0.00  0.00    +0.140 C 
ATOM     16  N   LIG    1       -2.518   2.798   3.206  0.00  0.00    -0.520 N 
ATOM     17  H   LIG    1       -2.614   1.833   3.234  0.00  0.00    +0.420 HD
ENDBRANCH   2   4
BRANCH   1  18
ATOM     18  C   LIG    1       -0.038   1.113  -0.083  0.00  0.00    +0.350 C 
BRANCH  18  24
ATOM     19  C   LIG    1        0.135   2.855  -1.878  0.00  0.00    +0.150 A 
ATOM     20  C   LIG    1       -0.120   3.304  -3.166  0.00  0.00    -0.090 A 
ATOM     21  C   LIG    1       -0.834   2.510  -4.044  0.00  0.00    +0.050 A 
ATOM     22  C   LIG    1       -1.288   1.268  -3.642  0.00  0.00    -0.040 A 
ATOM     23  C   LIG    1       -1.031   0.817  -2.361  0.00  0.00    +0.050 A 
ATOM     24  C   LIG    1       -0.318   1.606  -1.479  0.00  0.00    -0.150 A 
BRANCH  19  26
ATOM     25  C   LIG    1        1.266   4.910  -1.490  0.00  0.00    +0.230 C 
ATOM     26  O   LIG    1        0.831   3.636  -1.011  0.00  0.00    -0.270 OA
ENDBRANCH  19  26
ENDBRANCH  18  24
ENDBRANCH   1  18
BRANCH   1  27
ATOM     27  C   LIG    1       -2.263   1.056   1.135  0.00  0.00    +0.350 C 
BRANCH  27  28
ATOM     28  C   LIG    1       -2.003  -0.234   1.869  0.00  0.00    -0.210 A 
ATOM     29  C   LIG    1       -1.934  -0.364   3.195  0.00  0.00    +0.000 A 
ATOM     30  C   LIG    1       -1.685  -1.650   3.643  0.00  0.00    +0.010 A 
ATOM     31  C   LIG    1       -1.552  -2.564   2.681  0.00  0.00    -0.030 A 
ATOM     32  S   LIG    1       -1.752  -1.800   1.109  0.00  0.00    +0.130 S 
ENDBRANCH  27  28
ENDBRANCH   1  27
TORSDOF 6
