REMARK  Name = ZINCrD00000l7ipD.0
REMARK                            x       y       z     vdW  Elec       q    Type
REMARK                         _______ _______ _______ _____ _____    ______ ____
ROOT
ATOM      1  C   LIG    1        1.988   1.967  -0.276  0.00  0.00    -0.140 A 
ATOM      2  C   LIG    1        1.732   3.336  -0.173  0.00  0.00    +0.210 A 
ATOM      3  C   LIG    1        2.780   4.231  -0.150  0.00  0.00    -0.690 A 
ATOM      4  C   LIG    1        4.085   3.777  -0.229  0.00  0.00    +0.190 A 
ATOM      5  C   LIG    1        4.348   2.423  -0.332  0.00  0.00    +0.020 A 
ATOM      6  C   LIG    1        3.309   1.514  -0.351  0.00  0.00    +0.070 A 
ATOM      7 CL   LIG    1        3.641  -0.185  -0.472  0.00  0.00    -0.000 Cl
ENDROOT
BRANCH   3   8
ATOM      8  S   LIG    1        2.458   5.959  -0.019  0.00  0.00    +2.690 S 
ATOM      9  O   LIG    1        1.187   6.176  -0.617  0.00  0.00    -0.940 OA
ATOM     10  O   LIG    1        3.641   6.621  -0.445  0.00  0.00    -0.940 OA
BRANCH   8  11
ATOM     11  N   LIG    1        2.282   6.304   1.591  0.00  0.00    -1.060 N 
ATOM     12  H   LIG    1        1.434   6.633   1.927  0.00  0.00    +0.430 HD
BRANCH  11  13
ATOM     13  C   LIG    1        3.356   6.121   2.466  0.00  0.00    +0.130 A 
ATOM     14  C   LIG    1        3.358   5.050   3.351  0.00  0.00    +0.030 A 
ATOM     15  C   LIG    1        4.424   4.869   4.211  0.00  0.00    +0.060 A 
ATOM     16  C   LIG    1        5.483   5.759   4.199  0.00  0.00    -0.080 A 
ATOM     17  C   LIG    1        5.481   6.829   3.323  0.00  0.00    +0.060 A 
ATOM     18 BR   LIG    1        6.936   5.511   5.383  0.00  0.00    -0.040 Br
ATOM     19  C   LIG    1        4.421   7.013   2.457  0.00  0.00    +0.050 A 
ENDBRANCH  11  13
ENDBRANCH   8  11
ENDBRANCH   3   8
BRANCH   1  21
ATOM     20  O   LIG    1        1.098  -0.188  -0.391  0.00  0.00    -0.460 OA
ATOM     21  C   LIG    1        0.871   1.002  -0.301  0.00  0.00    +0.500 C 
BRANCH  21  22
ATOM     22  O   LIG    1       -0.400   1.442  -0.229  0.00  0.00    -0.330 OA
BRANCH  22  23
ATOM     23  C   LIG    1       -1.448   0.438  -0.265  0.00  0.00    +0.160 C 
ATOM     24  C   LIG    1       -2.740   1.029  -0.871  0.00  0.00    +0.070 C 
ATOM     25  C   LIG    1       -3.757   0.904   0.284  0.00  0.00    +0.260 C 
ATOM     26  O   LIG    1       -2.947   0.712   1.483  0.00  0.00    -0.340 OA
ATOM     27  C   LIG    1       -1.836   0.029   1.142  0.00  0.00    +0.470 C 
ATOM     28  O   LIG    1       -1.251  -0.771   1.834  0.00  0.00    -0.410 OA
ENDBRANCH  22  23
ENDBRANCH  21  22
ENDBRANCH   1  21
TORSDOF 6
