REMARK  Name = ZINCvU0000000JRn.0
REMARK                            x       y       z     vdW  Elec       q    Type
REMARK                         _______ _______ _______ _____ _____    ______ ____
ROOT
ATOM      1  N   LIG    1       10.106   0.124  -0.655  0.00  0.00    -0.510 N 
ATOM      2  C   LIG    1       11.186  -0.673  -0.761  0.00  0.00    +0.560 A 
ATOM      3  C   LIG    1       11.001  -2.089  -0.746  0.00  0.00    -0.230 A 
ATOM      4  C   LIG    1        9.707  -2.578  -0.622  0.00  0.00    +0.090 A 
ATOM      5  S   LIG    1        9.738  -4.334  -0.628  0.00  0.00    +0.190 S 
ATOM      6  C   LIG    1       11.484  -4.378  -0.798  0.00  0.00    -0.200 A 
ATOM      7  C   LIG    1       12.306  -5.653  -0.879  0.00  0.00    +0.120 C 
ATOM      8  C   LIG    1       13.692  -5.313  -1.431  0.00  0.00    +0.020 C 
ATOM      9  C   LIG    1       14.267  -4.135  -0.639  0.00  0.00    +0.020 C 
ATOM     10  C   LIG    1       13.488  -2.867  -0.992  0.00  0.00    +0.110 C 
ATOM     11  N   LIG    1        8.674  -1.716  -0.515  0.00  0.00    -0.510 NA
ATOM     12  C   LIG    1       11.998  -3.148  -0.846  0.00  0.00    -0.030 A 
ATOM     13  O   LIG    1       12.302  -0.195  -0.868  0.00  0.00    -0.510 OA
ATOM     14  C   LIG    1        8.859  -0.418  -0.535  0.00  0.00    +0.360 A 
ENDROOT
BRANCH   1  16
ATOM     15  C   LIG    1       10.465   2.084   0.764  0.00  0.00    +0.050 C 
ATOM     16  C   LIG    1       10.269   1.580  -0.667  0.00  0.00    +0.290 C 
ENDBRANCH   1  16
BRANCH  14  17
ATOM     17  S   LIG    1        7.465   0.651  -0.399  0.00  0.00    +0.100 S 
BRANCH  17  18
ATOM     18  C   LIG    1        6.140  -0.575  -0.273  0.00  0.00    +0.120 C 
BRANCH  18  19
ATOM     19  C   LIG    1        4.814   0.130  -0.143  0.00  0.00    +0.530 C 
ATOM     20  N   LIG    1        3.678  -0.586  -0.035  0.00  0.00    -0.660 N 
ATOM     21  H   LIG    1        3.719  -1.552   0.040  0.00  0.00    +0.410 HD
ATOM     22  O   LIG    1        4.770   1.342  -0.137  0.00  0.00    -0.500 OA
BRANCH  20  23
ATOM     23  C   LIG    1        2.442   0.062  -0.031  0.00  0.00    +0.150 A 
ATOM     24  C   LIG    1        2.303   1.297  -0.626  0.00  0.00    +0.020 A 
ATOM     25  C   LIG    1        1.074   1.952  -0.628  0.00  0.00    +0.040 A 
ATOM     26  C   LIG    1       -0.021   1.394  -0.043  0.00  0.00    +0.010 A 
ATOM     27  C   LIG    1        0.078   0.136   0.575  0.00  0.00    -0.040 A 
ATOM     28  C   LIG    1       -1.036  -0.465   1.186  0.00  0.00    +0.030 A 
ATOM     29  C   LIG    1       -0.904  -1.685   1.775  0.00  0.00    +0.020 A 
ATOM     30  C   LIG    1        0.320  -2.350   1.782  0.00  0.00    +0.020 A 
ATOM     31  C   LIG    1        1.421  -1.797   1.200  0.00  0.00    +0.010 A 
ATOM     32  C   LIG    1        1.323  -0.541   0.582  0.00  0.00    -0.060 A 
ENDBRANCH  20  23
ENDBRANCH  18  19
ENDBRANCH  17  18
ENDBRANCH  14  17
TORSDOF 5
