REMARK  Name = ZINCpk00000y6w2a.0
REMARK                            x       y       z     vdW  Elec       q    Type
REMARK                         _______ _______ _______ _____ _____    ______ ____
ROOT
ATOM      1  C   LIG    1       -2.011   1.861   1.167  0.00  0.00    +0.570 C 
ATOM      2  N   LIG    1       -0.664   1.904   1.123  0.00  0.00    -0.620 N 
ATOM      3  C   LIG    1        0.029   1.819  -0.165  0.00  0.00    +0.280 C 
ATOM      4  O   LIG    1       -2.590   2.027   2.224  0.00  0.00    -0.500 OA
ENDROOT
BRANCH   1   8
ATOM      5  C   LIG    1       -4.230   1.148  -2.384  0.00  0.00    +0.190 A 
ATOM      6  C   LIG    1       -2.903   0.741  -2.298  0.00  0.00    -0.120 A 
ATOM      7  C   LIG    1       -2.179   0.974  -1.152  0.00  0.00    +0.130 A 
ATOM      8  C   LIG    1       -2.781   1.614  -0.064  0.00  0.00    -0.210 A 
ATOM      9  C   LIG    1       -4.120   2.024  -0.152  0.00  0.00    +0.230 A 
ATOM     10  C   LIG    1       -4.836   1.788  -1.312  0.00  0.00    -0.120 A 
BRANCH   5  12
ATOM     11  C   LIG    1       -4.252   0.255  -4.586  0.00  0.00    +0.240 C 
ATOM     12  O   LIG    1       -4.936   0.918  -3.521  0.00  0.00    -0.310 OA
ENDBRANCH   5  12
BRANCH   9  13
ATOM     13  O   LIG    1       -4.711   2.649   0.897  0.00  0.00    -0.280 OA
ATOM     14  C   LIG    1       -6.076   3.038   0.736  0.00  0.00    +0.240 C 
ENDBRANCH   9  13
ENDBRANCH   1   8
BRANCH   2  15
ATOM     15  C   LIG    1        0.105   2.037   2.362  0.00  0.00    +0.290 C 
BRANCH  15  16
ATOM     16  C   LIG    1        0.323   3.520   2.670  0.00  0.00    +0.150 C 
ATOM     17  O   LIG    1       -0.934   4.146   2.975  0.00  0.00    -0.340 OA
ATOM     18  C   LIG    1       -0.671   5.158   3.971  0.00  0.00    +0.210 C 
ATOM     19  C   LIG    1        0.361   4.482   4.910  0.00  0.00    +0.010 C 
ATOM     20  C   LIG    1        1.223   3.670   3.913  0.00  0.00    +0.090 C 
BRANCH  20  21
ATOM     21  C   LIG    1        1.559   2.317   4.487  0.00  0.00    +0.190 A 
ATOM     22  N   LIG    1        2.629   1.614   4.233  0.00  0.00    -0.290 NA
ATOM     23  N   LIG    1        2.591   0.513   4.897  0.00  0.00    -0.290 NA
ATOM     24  C   LIG    1        1.491   0.461   5.598  0.00  0.00    +0.380 A 
ATOM     25  N   LIG    1        0.805   1.604   5.357  0.00  0.00    -0.580 N 
ATOM     26  H   LIG    1       -0.052   1.860   5.732  0.00  0.00    +0.430 HD
ENDBRANCH  20  21
ENDBRANCH  15  16
ENDBRANCH   2  15
TORSDOF 6
