REMARK  Name = ZINCpk00000y6w2a.1
REMARK                            x       y       z     vdW  Elec       q    Type
REMARK                         _______ _______ _______ _____ _____    ______ ____
ROOT
ATOM      1  C   LIG    1       -2.539   2.099   3.594  0.00  0.00    +0.570 C 
ATOM      2  N   LIG    1       -2.016   3.130   2.900  0.00  0.00    -0.620 N 
ATOM      3  C   LIG    1       -1.333   4.217   3.606  0.00  0.00    +0.280 C 
ATOM      4  O   LIG    1       -3.022   1.152   3.003  0.00  0.00    -0.490 OA
ENDROOT
BRANCH   1   8
ATOM      5  C   LIG    1       -2.495   2.160   7.841  0.00  0.00    +0.190 A 
ATOM      6  C   LIG    1       -2.413   3.351   7.126  0.00  0.00    -0.120 A 
ATOM      7  C   LIG    1       -2.421   3.335   5.750  0.00  0.00    +0.130 A 
ATOM      8  C   LIG    1       -2.524   2.120   5.066  0.00  0.00    -0.210 A 
ATOM      9  C   LIG    1       -2.606   0.920   5.789  0.00  0.00    +0.220 A 
ATOM     10  C   LIG    1       -2.591   0.948   7.172  0.00  0.00    -0.120 A 
BRANCH   5  12
ATOM     11  C   LIG    1       -2.381   3.465   9.823  0.00  0.00    +0.240 C 
ATOM     12  O   LIG    1       -2.481   2.184   9.198  0.00  0.00    -0.310 OA
ENDBRANCH   5  12
BRANCH   9  13
ATOM     13  O   LIG    1       -2.700  -0.264   5.133  0.00  0.00    -0.280 OA
ATOM     14  C   LIG    1       -2.781  -1.445   5.934  0.00  0.00    +0.240 C 
ENDBRANCH   9  13
ENDBRANCH   1   8
BRANCH   2  15
ATOM     15  C   LIG    1       -2.132   3.164   1.440  0.00  0.00    +0.310 C 
BRANCH  15  16
ATOM     16  C   LIG    1       -0.922   2.465   0.816  0.00  0.00    +0.150 C 
ATOM     17  O   LIG    1       -0.957   1.059   1.121  0.00  0.00    -0.340 OA
ATOM     18  C   LIG    1       -0.405   0.368  -0.020  0.00  0.00    +0.210 C 
ATOM     19  C   LIG    1       -0.984   1.143  -1.231  0.00  0.00    +0.030 C 
ATOM     20  C   LIG    1       -0.970   2.604  -0.718  0.00  0.00    +0.080 C 
BRANCH  20  21
ATOM     21  C   LIG    1       -2.222   3.325  -1.146  0.00  0.00    +0.240 A 
ATOM     22  N   LIG    1       -2.262   4.413  -1.870  0.00  0.00    -0.310 NA
ATOM     23  N   LIG    1       -3.617   4.742  -2.033  0.00  0.00    -0.480 N 
ATOM     24  H   LIG    1       -3.977   5.499  -2.522  0.00  0.00    +0.440 HD
ATOM     25  C   LIG    1       -4.317   3.801  -1.376  0.00  0.00    +0.480 A 
ATOM     26  N   LIG    1       -3.468   2.955  -0.853  0.00  0.00    -0.530 NA
ENDBRANCH  20  21
ENDBRANCH  15  16
ENDBRANCH   2  15
TORSDOF 6
