REMARK  Name = ZINCvU0000000HyG.1
REMARK                            x       y       z     vdW  Elec       q    Type
REMARK                         _______ _______ _______ _____ _____    ______ ____
ROOT
ATOM      1  O   LIG    1        0.002  -0.004   0.002  0.00  0.00    -0.460 OA
ATOM      2  C   LIG    1       -0.014   1.209   0.009  0.00  0.00    +0.510 C 
ATOM      3  N   LIG    1       -1.191   1.867   0.018  0.00  0.00    -0.630 N 
ATOM      4  H   LIG    1       -1.204   2.837   0.023  0.00  0.00    +0.430 HD
ENDROOT
BRANCH   3   5
ATOM      5  C   LIG    1       -2.387   1.154   0.020  0.00  0.00    +0.250 A 
ATOM      6  N   LIG    1       -2.507  -0.139   0.007  0.00  0.00    -0.250 NA
ATOM      7  N   LIG    1       -3.673  -0.622   0.016  0.00  0.00    -0.240 NA
ATOM      8  C   LIG    1       -4.672   0.211   0.025  0.00  0.00    -0.020 A 
ATOM      9  S   LIG    1       -4.010   1.847   0.031  0.00  0.00    +0.130 S 
BRANCH   8  10
ATOM     10  S   LIG    1       -6.381  -0.218   0.031  0.00  0.00    +0.050 S 
BRANCH  10  11
ATOM     11  C   LIG    1       -6.347  -2.031   0.021  0.00  0.00    +0.160 C 
BRANCH  11  12
ATOM     12  C   LIG    1       -7.758  -2.561   0.024  0.00  0.00    -0.070 A 
ATOM     13  C   LIG    1       -8.398  -2.815   1.224  0.00  0.00    -0.010 A 
ATOM     14  C   LIG    1       -9.696  -3.296   1.226  0.00  0.00    +0.050 A 
ATOM     15  C   LIG    1      -10.348  -3.533   0.031  0.00  0.00    +0.070 A 
ATOM     16  C   LIG    1       -9.706  -3.283  -1.168  0.00  0.00    +0.050 A 
ATOM     17 CL   LIG    1       -7.577  -2.525   2.725  0.00  0.00    -0.040 Cl
ATOM     18  C   LIG    1       -8.411  -2.797  -1.172  0.00  0.00    -0.010 A 
ATOM     19 CL   LIG    1       -7.605  -2.485  -2.678  0.00  0.00    -0.040 Cl
ENDBRANCH  11  12
ENDBRANCH  10  11
ENDBRANCH   8  10
ENDBRANCH   3   5
BRANCH   2  20
ATOM     20  C   LIG    1        1.280   1.980   0.001  0.00  0.00    +0.090 C 
BRANCH  20  21
ATOM     21  C   LIG    1        2.457   1.002  -0.016  0.00  0.00    +0.040 C 
BRANCH  21  22
ATOM     22  C   LIG    1        3.771   1.785  -0.024  0.00  0.00    +0.260 C 
BRANCH  22  23
ATOM     23  N   LIG    1        4.897   0.848  -0.040  0.00  0.00    -0.730 N 
ATOM     24  H   LIG    1        4.733  -0.108  -0.044  0.00  0.00    +0.400 HD
ATOM     25  C   LIG    1        6.162   1.314  -0.050  0.00  0.00    +0.560 C 
ATOM     26  O   LIG    1        6.368   2.512  -0.045  0.00  0.00    -0.530 OA
BRANCH  25  27
ATOM     27  C   LIG    1        7.298   0.369  -0.066  0.00  0.00    -0.130 A 
ATOM     28  C   LIG    1        7.065  -1.007  -0.065  0.00  0.00    +0.070 A 
ATOM     29  C   LIG    1        8.129  -1.884  -0.084  0.00  0.00    +0.020 A 
ATOM     30  C   LIG    1        9.427  -1.401  -0.094  0.00  0.00    -0.010 A 
ATOM     31  C   LIG    1        9.665  -0.037  -0.090  0.00  0.00    +0.020 A 
ATOM     32 CL   LIG    1       10.762  -2.511  -0.112  0.00  0.00    -0.060 Cl
ATOM     33  C   LIG    1        8.609   0.850  -0.076  0.00  0.00    +0.100 A 
ENDBRANCH  25  27
ENDBRANCH  22  23
ENDBRANCH  21  22
ENDBRANCH  20  21
ENDBRANCH   2  20
TORSDOF 9
