REMARK  Name = ZINCvU0000000HYg.0
REMARK                            x       y       z     vdW  Elec       q    Type
REMARK                         _______ _______ _______ _____ _____    ______ ____
ROOT
ATOM      1  N   LIG    1        2.500   2.598  -1.677  0.00  0.00    -0.610 N 
ATOM      2  C   LIG    1        3.192   3.534  -0.998  0.00  0.00    +0.710 C 
ATOM      3  N   LIG    1        4.266   4.121  -1.563  0.00  0.00    -0.670 N 
ATOM      4  H   LIG    1        4.502   3.918  -2.482  0.00  0.00    +0.410 HD
ATOM      5  O   LIG    1        2.848   3.850   0.125  0.00  0.00    -0.570 OA
ATOM      6  C   LIG    1        2.915   2.218  -3.029  0.00  0.00    +0.290 C 
ENDROOT
BRANCH   3   7
ATOM      7  C   LIG    1        5.042   5.024  -0.823  0.00  0.00    +0.190 A 
ATOM      8  C   LIG    1        4.458   5.786   0.176  0.00  0.00    +0.030 A 
ATOM      9  C   LIG    1        5.225   6.676   0.905  0.00  0.00    +0.030 A 
ATOM     10  C   LIG    1        6.575   6.810   0.639  0.00  0.00    -0.010 A 
ATOM     11  C   LIG    1        7.167   6.054  -0.356  0.00  0.00    +0.000 A 
ATOM     12  C   LIG    1        6.406   5.154  -1.087  0.00  0.00    +0.060 A 
BRANCH  12  13
ATOM     13  N   LIG    1        7.003   4.384  -2.091  0.00  0.00    -0.510 N 
ATOM     14  C   LIG    1        8.046   3.497  -1.529  0.00  0.00    +0.180 C 
ATOM     15  C   LIG    1        8.898   2.853  -2.589  0.00  0.00    +0.030 C 
ATOM     16  C   LIG    1       10.151   3.726  -2.807  0.00  0.00    +0.000 C 
ATOM     17  C   LIG    1        9.870   4.897  -3.631  0.00  0.00    +0.000 C 
ATOM     18  C   LIG    1        8.820   5.825  -2.985  0.00  0.00    -0.010 C 
ATOM     19  C   LIG    1        7.456   5.235  -3.214  0.00  0.00    +0.210 C 
ENDBRANCH  12  13
ENDBRANCH   3   7
BRANCH   1  20
ATOM     20  C   LIG    1        1.333   1.961  -1.062  0.00  0.00    +0.350 C 
BRANCH  20  23
ATOM     21  N   LIG    1       -1.106   2.354  -0.931  0.00  0.00    -0.680 N 
ATOM     22  H   LIG    1       -1.185   1.517  -0.446  0.00  0.00    +0.410 HD
ATOM     23  C   LIG    1        0.095   2.755  -1.393  0.00  0.00    +0.490 C 
ATOM     24  O   LIG    1        0.180   3.754  -2.075  0.00  0.00    -0.500 OA
BRANCH  21  29
ATOM     25  C   LIG    1       -5.705   5.548  -1.843  0.00  0.00    +0.100 C 
ATOM     26  C   LIG    1       -4.484   4.699  -1.600  0.00  0.00    -0.080 A 
ATOM     27  C   LIG    1       -4.498   3.357  -1.933  0.00  0.00    +0.000 A 
ATOM     28  C   LIG    1       -3.380   2.577  -1.713  0.00  0.00    -0.090 A 
ATOM     29  C   LIG    1       -2.240   3.142  -1.156  0.00  0.00    +0.130 A 
ATOM     30  C   LIG    1       -2.231   4.488  -0.816  0.00  0.00    -0.060 A 
ATOM     31  C   LIG    1       -0.998   5.103  -0.205  0.00  0.00    +0.090 C 
ATOM     32  C   LIG    1       -3.397   1.115  -2.077  0.00  0.00    +0.090 C 
ATOM     33  C   LIG    1       -3.350   5.264  -1.046  0.00  0.00    +0.000 A 
ENDBRANCH  21  29
ENDBRANCH  20  23
ENDBRANCH   1  20
TORSDOF 5
