REMARK  Name = ZINCnE000001HdK1.0
REMARK                            x       y       z     vdW  Elec       q    Type
REMARK                         _______ _______ _______ _____ _____    ______ ____
ROOT
ATOM      1  N   LIG    1        0.124   1.801   4.683  0.00  0.00    -0.680 NA
ATOM      2  C   LIG    1       -0.184   2.645   5.665  0.00  0.00    +0.420 A 
ATOM      3  N   LIG    1       -0.996   3.746   5.568  0.00  0.00    -0.490 N 
ATOM      4  H   LIG    1       -1.451   4.053   4.768  0.00  0.00    +0.440 HD
ATOM      5  N   LIG    1       -1.050   4.346   6.832  0.00  0.00    -0.340 NA
ATOM      6  C   LIG    1       -0.275   3.626   7.688  0.00  0.00    -0.000 A 
ATOM      7  C   LIG    1        0.271   2.577   7.008  0.00  0.00    -0.250 A 
ENDROOT
BRANCH   7   8
ATOM      8  C   LIG    1        1.178   1.549   7.572  0.00  0.00    +0.050 A 
ATOM      9  C   LIG    1        2.446   1.909   8.027  0.00  0.00    +0.000 A 
ATOM     10  C   LIG    1        3.284   0.948   8.555  0.00  0.00    -0.020 A 
ATOM     11  C   LIG    1        2.873  -0.371   8.624  0.00  0.00    -0.030 A 
ATOM     12  C   LIG    1        1.618  -0.734   8.169  0.00  0.00    -0.010 A 
ATOM     13  C   LIG    1        0.769   0.219   7.644  0.00  0.00    +0.010 A 
ENDBRANCH   7   8
BRANCH   6  14
ATOM     14  C   LIG    1       -0.056   3.936   9.146  0.00  0.00    +0.550 C 
ATOM     15  F   LIG    1       -1.283   3.913   9.817  0.00  0.00    -0.180 F 
ATOM     16  F   LIG    1        0.520   5.205   9.272  0.00  0.00    -0.180 F 
ATOM     17  F   LIG    1        0.798   2.979   9.703  0.00  0.00    -0.160 F 
ENDBRANCH   6  14
BRANCH   1  18
ATOM     18  C   LIG    1       -0.377   1.986   3.466  0.00  0.00    +0.450 C 
ATOM     19  O   LIG    1       -1.117   2.927   3.249  0.00  0.00    -0.630 OA
BRANCH  18  20
ATOM     20  C   LIG    1       -0.028   1.031   2.354  0.00  0.00    +0.170 C 
BRANCH  20  22
ATOM     21  C   LIG    1       -0.130  -1.353   1.613  0.00  0.00    +0.010 C 
ATOM     22  C   LIG    1       -0.595  -0.354   2.674  0.00  0.00    +0.040 C 
ENDBRANCH  20  22
BRANCH  20  23
ATOM     23  O   LIG    1       -0.589   1.502   1.127  0.00  0.00    -0.370 OA
ATOM     24  C   LIG    1        0.269   2.380   0.395  0.00  0.00    +0.190 C 
ENDBRANCH  20  23
ENDBRANCH  18  20
ENDBRANCH   1  18
TORSDOF 6
