REMARK  Name = ZINCrH000004kVdq.0
REMARK                            x       y       z     vdW  Elec       q    Type
REMARK                         _______ _______ _______ _____ _____    ______ ____
ROOT
ATOM      1  C   LIG    1        2.559   3.817  -0.002  0.00  0.00    +0.560 C 
ATOM      2  N   LIG    1        1.313   3.302   0.007  0.00  0.00    -0.620 N 
ATOM      3  H   LIG    1        0.544   3.893   0.017  0.00  0.00    +0.420 HD
ATOM      4  O   LIG    1        3.523   3.077  -0.015  0.00  0.00    -0.490 OA
ENDROOT
BRANCH   1   8
ATOM      5  C   LIG    1        3.116   8.034   0.013  0.00  0.00    -0.090 A 
ATOM      6  C   LIG    1        4.223   7.184  -0.001  0.00  0.00    +0.090 A 
ATOM      7  C   LIG    1        4.043   5.817  -0.006  0.00  0.00    +0.090 A 
ATOM      8  C   LIG    1        2.753   5.284   0.003  0.00  0.00    -0.100 A 
ATOM      9  C   LIG    1        1.646   6.134   0.012  0.00  0.00    +0.040 A 
ATOM     10  C   LIG    1        1.827   7.500   0.023  0.00  0.00    +0.080 A 
BRANCH   5  11
ATOM     11  C   LIG    1        3.310   9.501   0.018  0.00  0.00    +0.500 C 
ATOM     12  O   LIG    1        4.433   9.965   0.009  0.00  0.00    -0.490 OA
BRANCH  11  14
ATOM     13  C   LIG    1        2.508  11.748   0.036  0.00  0.00    +0.290 C 
ATOM     14  O   LIG    1        2.242  10.321   0.032  0.00  0.00    -0.350 OA
ENDBRANCH  11  14
ENDBRANCH   5  11
ENDBRANCH   1   8
BRANCH   2  15
ATOM     15  C   LIG    1        1.132   1.926   0.002  0.00  0.00    +0.270 A 
ATOM     16  N   LIG    1       -0.016   1.321   0.009  0.00  0.00    -0.500 NA
ATOM     17  C   LIG    1        0.002  -0.004   0.002  0.00  0.00    +0.140 A 
ATOM     18  C   LIG    1        1.225  -0.564  -0.013  0.00  0.00    -0.110 A 
ATOM     19  S   LIG    1        2.423   0.728  -0.017  0.00  0.00    +0.210 S 
BRANCH  17  20
ATOM     20  C   LIG    1       -1.241  -0.814   0.009  0.00  0.00    -0.050 A 
ATOM     21  C   LIG    1       -1.172  -2.206  -0.005  0.00  0.00    +0.080 A 
ATOM     22  C   LIG    1       -2.326  -2.957   0.002  0.00  0.00    -0.010 A 
ATOM     23  C   LIG    1       -3.573  -2.334   0.013  0.00  0.00    +0.110 A 
ATOM     24  O   LIG    1       -4.820  -2.882   0.005  0.00  0.00    -0.300 OA
ATOM     25  C   LIG    1       -5.771  -1.903   0.455  0.00  0.00    +0.240 C 
ATOM     26  C   LIG    1       -5.103  -0.567   0.054  0.00  0.00    +0.070 C 
ATOM     27  C   LIG    1       -3.635  -0.946   0.029  0.00  0.00    -0.180 A 
ATOM     28  C   LIG    1       -2.487  -0.188   0.024  0.00  0.00    +0.090 A 
ENDBRANCH  17  20
ENDBRANCH   2  15
TORSDOF 5
