REMARK  Name = ZINCrD000000Cf8g.0
REMARK                            x       y       z     vdW  Elec       q    Type
REMARK                         _______ _______ _______ _____ _____    ______ ____
ROOT
ATOM      1  O   LIG    1        2.220  -0.041  -0.018  0.00  0.00    -0.460 OA
ATOM      2  C   LIG    1        1.178  -0.662  -0.012  0.00  0.00    +0.520 C 
ATOM      3  N   LIG    1        0.002  -0.004   0.002  0.00  0.00    -0.630 N 
ATOM      4  H   LIG    1       -0.831  -0.500   0.007  0.00  0.00    +0.420 HD
ENDROOT
BRANCH   2   5
ATOM      5  C   LIG    1        1.199  -2.169  -0.021  0.00  0.00    +0.010 C 
ATOM      6  C   LIG    1        0.644  -2.722  -1.354  0.00  0.00    +0.080 C 
ATOM      7  C   LIG    1        1.504  -3.935  -1.638  0.00  0.00    +0.520 C 
ATOM      8  N   LIG    1        2.616  -3.900  -0.883  0.00  0.00    -0.620 N 
ATOM      9  O   LIG    1        1.229  -4.810  -2.431  0.00  0.00    -0.520 OA
ATOM     10  C   LIG    1        2.648  -2.702  -0.037  0.00  0.00    +0.310 C 
BRANCH   8  11
ATOM     11  C   LIG    1        3.661  -4.927  -0.904  0.00  0.00    +0.430 C 
BRANCH  11  12
ATOM     12  C   LIG    1        3.343  -5.987   0.118  0.00  0.00    -0.050 A 
ATOM     13  C   LIG    1        2.616  -7.098  -0.101  0.00  0.00    -0.030 A 
ATOM     14  C   LIG    1        2.571  -7.805   1.123  0.00  0.00    -0.070 A 
ATOM     15  C   LIG    1        3.273  -7.085   2.016  0.00  0.00    +0.170 A 
ATOM     16  O   LIG    1        3.744  -5.988   1.400  0.00  0.00    -0.170 OA
ENDBRANCH  11  12
ENDBRANCH   8  11
ENDBRANCH   2   5
BRANCH   3  17
ATOM     17  C   LIG    1       -0.017   1.386   0.010  0.00  0.00    +0.260 A 
ATOM     18  N   LIG    1        1.036   2.143   0.004  0.00  0.00    -0.470 NA
ATOM     19  C   LIG    1        0.834   3.447   0.013  0.00  0.00    +0.250 A 
ATOM     20  C   LIG    1       -0.451   3.809   0.027  0.00  0.00    -0.230 A 
ATOM     21  S   LIG    1       -1.431   2.346   0.021  0.00  0.00    +0.130 S 
BRANCH  20  22
ATOM     22  C   LIG    1       -0.971   5.224   0.040  0.00  0.00    +0.190 C 
BRANCH  22  23
ATOM     23  C   LIG    1       -1.158   5.703  -1.377  0.00  0.00    -0.080 A 
ATOM     24  C   LIG    1       -0.122   6.342  -2.033  0.00  0.00    +0.010 A 
ATOM     25  C   LIG    1       -0.292   6.778  -3.333  0.00  0.00    +0.000 A 
ATOM     26  C   LIG    1       -1.501   6.584  -3.975  0.00  0.00    +0.000 A 
ATOM     27  C   LIG    1       -2.539   5.949  -3.317  0.00  0.00    +0.000 A 
ATOM     28  C   LIG    1       -2.367   5.510  -2.018  0.00  0.00    +0.010 A 
ENDBRANCH  22  23
ENDBRANCH  20  22
ENDBRANCH   3  17
TORSDOF 6
