REMARK  Name = ZINCkj00000hbrUr.0
REMARK                            x       y       z     vdW  Elec       q    Type
REMARK                         _______ _______ _______ _____ _____    ______ ____
ROOT
ATOM      1  C   LIG    1       -0.345   5.708   2.166  0.00  0.00    +0.320 C 
ATOM      2  N   LIG    1       -1.667   5.098   2.357  0.00  0.00    -0.390 N 
ATOM      3  H   LIG    1       -2.260   5.327   1.573  0.00  0.00    +0.420 HD
ENDROOT
BRANCH   2   4
ATOM      4  C   LIG    1       -1.524   3.639   2.454  0.00  0.00    +0.280 C 
BRANCH   4   5
ATOM      5  C   LIG    1       -1.012   3.088   1.121  0.00  0.00    -0.020 C 
ATOM      6  C   LIG    1       -0.743   1.587   1.261  0.00  0.00    +0.070 C 
ATOM      7  C   LIG    1       -0.013   1.086   0.008  0.00  0.00    +0.180 C 
ATOM      8  C   LIG    1       -0.755   1.592  -1.206  0.00  0.00    +0.200 A 
ATOM      9  N   LIG    1       -0.644   1.171  -2.432  0.00  0.00    -0.480 NA
ATOM     10  C   LIG    1       -1.474   1.876  -3.218  0.00  0.00    +0.160 A 
ATOM     11  C   LIG    1       -2.124   2.769  -2.445  0.00  0.00    +0.130 A 
ATOM     12  N   LIG    1       -1.669   2.591  -1.173  0.00  0.00    -0.470 N 
ATOM     13  C   LIG    1       -2.067   3.321   0.034  0.00  0.00    +0.280 C 
ENDBRANCH   4   5
ENDBRANCH   2   4
BRANCH   2  14
ATOM     14  C   LIG    1       -2.271   5.614   3.593  0.00  0.00    +0.260 C 
BRANCH  14  15
ATOM     15  C   LIG    1       -2.534   7.114   3.444  0.00  0.00    +0.070 C 
BRANCH  15  16
ATOM     16  C   LIG    1       -3.163   7.651   4.732  0.00  0.00    -0.020 C 
ATOM     17  C   LIG    1       -3.359   9.181   4.637  0.00  0.00    +0.060 C 
ATOM     18  C   LIG    1       -4.800   9.358   5.168  0.00  0.00    +0.270 C 
ATOM     19  O   LIG    1       -5.455   8.089   4.872  0.00  0.00    -0.340 OA
ATOM     20  C   LIG    1       -4.557   7.090   4.911  0.00  0.00    +0.480 C 
ATOM     21  O   LIG    1       -4.821   5.921   5.065  0.00  0.00    -0.450 OA
ENDBRANCH  15  16
ENDBRANCH  14  15
ENDBRANCH   2  14
TORSDOF 5
