REMARK  Name = ZINCkj00000hbrUr.1
REMARK                            x       y       z     vdW  Elec       q    Type
REMARK                         _______ _______ _______ _____ _____    ______ ____
ROOT
ATOM      1  C   LIG    1       -1.000  -2.675   0.769  0.00  0.00    +0.330 C 
ATOM      2  N   LIG    1       -1.366  -1.979  -0.472  0.00  0.00    -0.380 N 
ATOM      3  H   LIG    1       -0.626  -2.089  -1.149  0.00  0.00    +0.420 HD
ENDROOT
BRANCH   2   4
ATOM      4  C   LIG    1       -1.566  -0.551  -0.192  0.00  0.00    +0.280 C 
BRANCH   4   5
ATOM      5  C   LIG    1       -0.234   0.079   0.221  0.00  0.00    -0.020 C 
ATOM      6  C   LIG    1        0.735   0.046  -0.964  0.00  0.00    +0.030 C 
ATOM      7  C   LIG    1        2.134   0.456  -0.485  0.00  0.00    +0.170 C 
ATOM      8  C   LIG    1        2.002   1.725   0.324  0.00  0.00    +0.190 A 
ATOM      9  N   LIG    1        2.951   2.548   0.661  0.00  0.00    -0.480 NA
ATOM     10  C   LIG    1        2.427   3.557   1.377  0.00  0.00    +0.160 A 
ATOM     11  C   LIG    1        1.100   3.347   1.486  0.00  0.00    +0.130 A 
ATOM     12  N   LIG    1        0.831   2.188   0.820  0.00  0.00    -0.460 N 
ATOM     13  C   LIG    1       -0.468   1.532   0.650  0.00  0.00    +0.310 C 
ENDBRANCH   4   5
ENDBRANCH   2   4
BRANCH   2  14
ATOM     14  C   LIG    1       -2.608  -2.552  -1.006  0.00  0.00    +0.260 C 
BRANCH  14  15
ATOM     15  C   LIG    1       -2.365  -4.007  -1.414  0.00  0.00    +0.080 C 
BRANCH  15  16
ATOM     16  C   LIG    1       -3.659  -4.603  -1.971  0.00  0.00    -0.020 C 
ATOM     17  C   LIG    1       -3.416  -6.045  -2.470  0.00  0.00    +0.060 C 
ATOM     18  C   LIG    1       -4.625  -6.803  -1.871  0.00  0.00    +0.270 C 
ATOM     19  O   LIG    1       -4.986  -6.035  -0.685  0.00  0.00    -0.340 OA
ATOM     20  C   LIG    1       -4.691  -4.740  -0.873  0.00  0.00    +0.480 C 
ATOM     21  O   LIG    1       -5.177  -3.821  -0.257  0.00  0.00    -0.450 OA
ENDBRANCH  15  16
ENDBRANCH  14  15
ENDBRANCH   2  14
TORSDOF 5
