REMARK  Name = ZINCrH000004jzkv.0
REMARK                            x       y       z     vdW  Elec       q    Type
REMARK                         _______ _______ _______ _____ _____    ______ ____
ROOT
ATOM      1  C   LIG    1       -2.308  -2.610   4.916  0.00  0.00    -0.080 A 
ATOM      2  C   LIG    1       -2.977  -3.463   4.036  0.00  0.00    +0.070 A 
ATOM      3  C   LIG    1       -2.677  -3.431   2.689  0.00  0.00    +0.120 A 
ATOM      4  C   LIG    1       -1.716  -2.557   2.212  0.00  0.00    -0.660 A 
ATOM      5  C   LIG    1       -1.046  -1.714   3.080  0.00  0.00    +0.130 A 
ATOM      6  C   LIG    1       -1.341  -1.731   4.428  0.00  0.00    +0.030 A 
ENDROOT
BRANCH   1   9
ATOM      7  C   LIG    1       -0.365  -1.850   6.818  0.00  0.00    +0.320 C 
ATOM      8  N   LIG    1       -1.716  -2.208   7.257  0.00  0.00    -0.550 N 
ATOM      9  C   LIG    1       -2.624  -2.639   6.360  0.00  0.00    +0.550 C 
ATOM     10  O   LIG    1       -3.703  -3.052   6.738  0.00  0.00    -0.500 OA
BRANCH   8  11
ATOM     11  C   LIG    1       -2.062  -2.101   8.608  0.00  0.00    +0.140 A 
ATOM     12  C   LIG    1       -3.381  -2.286   9.005  0.00  0.00    +0.010 A 
ATOM     13  C   LIG    1       -3.719  -2.184  10.339  0.00  0.00    +0.030 A 
ATOM     14  C   LIG    1       -2.749  -1.889  11.280  0.00  0.00    -0.020 A 
ATOM     15  C   LIG    1       -1.437  -1.700  10.888  0.00  0.00    +0.030 A 
ATOM     16  C   LIG    1       -1.091  -1.805   9.555  0.00  0.00    -0.030 A 
ENDBRANCH   8  11
ENDBRANCH   1   9
BRANCH   4  17
ATOM     17  S   LIG    1       -1.340  -2.523   0.491  0.00  0.00    +2.680 S 
ATOM     18  O   LIG    1       -0.024  -1.998   0.378  0.00  0.00    -0.940 OA
ATOM     19  O   LIG    1       -1.718  -3.791  -0.028  0.00  0.00    -0.940 OA
BRANCH  17  20
ATOM     20  N   LIG    1       -2.348  -1.412  -0.210  0.00  0.00    -0.950 N 
ATOM     21  C   LIG    1       -3.726  -1.781  -0.543  0.00  0.00    +0.320 C 
BRANCH  20  22
ATOM     22  C   LIG    1       -1.885  -0.123  -0.483  0.00  0.00    +0.130 A 
ATOM     23  C   LIG    1       -0.740   0.058  -1.250  0.00  0.00    +0.020 A 
ATOM     24  C   LIG    1       -0.285   1.334  -1.518  0.00  0.00    +0.030 A 
ATOM     25  C   LIG    1       -0.967   2.431  -1.025  0.00  0.00    +0.010 A 
ATOM     26  C   LIG    1       -2.106   2.255  -0.261  0.00  0.00    +0.020 A 
ATOM     27  C   LIG    1       -2.567   0.982   0.012  0.00  0.00    +0.010 A 
ENDBRANCH  20  22
ENDBRANCH  17  20
ENDBRANCH   4  17
TORSDOF 5
