REMARK  Name = ZINCrH000004mKuM.0
REMARK                            x       y       z     vdW  Elec       q    Type
REMARK                         _______ _______ _______ _____ _____    ______ ____
ROOT
ATOM      1  C   LIG    1        3.877   9.405   0.032  0.00  0.00    +0.090 C 
ENDROOT
BRANCH   1   4
ATOM      2  N   LIG    1        6.260  10.070  -0.002  0.00  0.00    -0.660 N 
ATOM      3  H   LIG    1        5.970  10.994  -0.071  0.00  0.00    +0.420 HD
ATOM      4  C   LIG    1        5.348   9.077   0.005  0.00  0.00    +0.520 C 
ATOM      5  O   LIG    1        5.712   7.920  -0.011  0.00  0.00    -0.520 OA
BRANCH   2  12
ATOM      6  C   LIG    1        8.572  10.659  -0.412  0.00  0.00    +0.100 A 
ATOM      7  C   LIG    1        9.920  10.357  -0.319  0.00  0.00    -0.040 A 
ATOM      8  C   LIG    1       10.325   9.174   0.272  0.00  0.00    +0.050 A 
ATOM      9  C   LIG    1        9.386   8.289   0.770  0.00  0.00    -0.050 A 
ATOM     10  C   LIG    1        8.037   8.586   0.685  0.00  0.00    +0.070 A 
ATOM     11 CL   LIG    1        9.900   6.805   1.510  0.00  0.00    -0.060 Cl
ATOM     12  C   LIG    1        7.625   9.769   0.089  0.00  0.00    +0.130 A 
BRANCH   6  14
ATOM     13  C   LIG    1        9.199  12.688  -1.484  0.00  0.00    +0.250 C 
ATOM     14  O   LIG    1        8.173  11.823  -0.992  0.00  0.00    -0.320 OA
ENDBRANCH   6  14
ENDBRANCH   2  12
ENDBRANCH   1   4
BRANCH   1  15
ATOM     15  C   LIG    1        3.066   8.107   0.035  0.00  0.00    +0.110 C 
BRANCH  15  16
ATOM     16  C   LIG    1        1.595   8.435   0.063  0.00  0.00    +0.560 C 
ATOM     17  N   LIG    1        0.684   7.442   0.070  0.00  0.00    -0.470 N 
ATOM     18  C   LIG    1       -0.776   7.621   0.096  0.00  0.00    +0.260 C 
ATOM     19  C   LIG    1       -1.317   6.177   0.087  0.00  0.00    +0.090 C 
ATOM     20  C   LIG    1       -0.071   5.321   0.065  0.00  0.00    +0.140 C 
ATOM     21  N   LIG    1        0.971   6.078   0.054  0.00  0.00    -0.240 NA
ATOM     22  O   LIG    1        1.232   9.592   0.078  0.00  0.00    -0.520 OA
BRANCH  20  23
ATOM     23  C   LIG    1       -0.051   3.847   0.051  0.00  0.00    -0.040 A 
ATOM     24  C   LIG    1        1.165   3.161   0.025  0.00  0.00    +0.050 A 
ATOM     25  C   LIG    1        1.176   1.782   0.014  0.00  0.00    +0.010 A 
ATOM     26  C   LIG    1       -0.015   1.077   0.028  0.00  0.00    +0.030 A 
ATOM     27  C   LIG    1       -1.224   1.750   0.049  0.00  0.00    +0.010 A 
ATOM     28  C   LIG    1       -1.250   3.129   0.066  0.00  0.00    +0.040 A 
ENDBRANCH  20  23
ENDBRANCH  15  16
ENDBRANCH   1  15
TORSDOF 6
