REMARK  Name = ZINCpk00000KfLig.0
REMARK                            x       y       z     vdW  Elec       q    Type
REMARK                         _______ _______ _______ _____ _____    ______ ____
ROOT
ATOM      1  C   LIG    1       -0.734   4.153   4.745  0.00  0.00    +0.150 C 
ATOM      2  C   LIG    1       -0.689   4.592   6.211  0.00  0.00    +0.160 C 
ATOM      3  N   LIG    1       -0.350   6.021   6.280  0.00  0.00    -0.530 NA
ATOM      4  C   LIG    1        0.946   6.280   5.637  0.00  0.00    +0.150 C 
ATOM      5  C   LIG    1        0.884   5.825   4.176  0.00  0.00    +0.220 C 
ATOM      6  O   LIG    1        0.524   4.442   4.128  0.00  0.00    -0.370 OA
ENDROOT
BRANCH   1   7
ATOM      7  C   LIG    1       -1.006   2.650   4.670  0.00  0.00    +0.360 C 
BRANCH   7  11
ATOM      8  C   LIG    1       -0.013   1.086   0.008  0.00  0.00    +0.190 C 
ATOM      9  C   LIG    1       -0.718   1.572   1.248  0.00  0.00    +0.220 A 
ATOM     10  N   LIG    1       -0.147   1.827   2.396  0.00  0.00    -0.300 NA
ATOM     11  N   LIG    1       -1.163   2.252   3.268  0.00  0.00    -0.370 N 
ATOM     12  C   LIG    1       -2.306   2.222   2.562  0.00  0.00    +0.270 A 
ATOM     13  C   LIG    1       -3.673   2.596   3.074  0.00  0.00    +0.190 C 
ATOM     14  N   LIG    1       -2.024   1.817   1.350  0.00  0.00    -0.540 NA
ENDBRANCH   7  11
ENDBRANCH   1   7
BRANCH   3  15
ATOM     15  C   LIG    1       -0.353   6.496   7.670  0.00  0.00    +0.250 C 
BRANCH  15  16
ATOM     16  C   LIG    1        0.635   5.668   8.494  0.00  0.00    +0.010 C 
BRANCH  16  17
ATOM     17  C   LIG    1        0.633   6.155   9.920  0.00  0.00    +0.520 C 
ATOM     18  N   LIG    1        1.432   5.569  10.834  0.00  0.00    -0.730 N 
ATOM     19  H   LIG    1        2.009   4.834  10.573  0.00  0.00    +0.400 HD
ATOM     20  O   LIG    1       -0.088   7.074  10.245  0.00  0.00    -0.540 OA
BRANCH  18  21
ATOM     21  C   LIG    1        1.430   6.043  12.220  0.00  0.00    +0.230 C 
ATOM     22  C   LIG    1        2.389   7.227  12.356  0.00  0.00    +0.000 C 
ATOM     23  C   LIG    1        2.387   7.722  13.803  0.00  0.00    +0.010 C 
ATOM     24  C   LIG    1        2.838   6.591  14.730  0.00  0.00    +0.010 C 
ATOM     25  C   LIG    1        1.879   5.407  14.594  0.00  0.00    +0.020 C 
ATOM     26  C   LIG    1        1.882   4.912  13.146  0.00  0.00    +0.010 C 
ENDBRANCH  18  21
ENDBRANCH  16  17
ENDBRANCH  15  16
ENDBRANCH   3  15
TORSDOF 6
