REMARK  Name = ZINCpk000005WQEK.0
REMARK                            x       y       z     vdW  Elec       q    Type
REMARK                         _______ _______ _______ _____ _____    ______ ____
ROOT
ATOM      1  O   LIG    1       -0.595  -8.149  -0.428  0.00  0.00    -0.530 OA
ATOM      2  C   LIG    1        0.035  -7.540  -1.267  0.00  0.00    +0.520 C 
ATOM      3  N   LIG    1       -0.154  -6.215  -1.422  0.00  0.00    -0.730 N 
ATOM      4  H   LIG    1        0.350  -5.728  -2.093  0.00  0.00    +0.400 HD
ENDROOT
BRANCH   2   5
ATOM      5  C   LIG    1        1.030  -8.266  -2.135  0.00  0.00    -0.020 C 
ATOM      6  C   LIG    1        0.486  -8.621  -3.531  0.00  0.00    +0.080 C 
ATOM      7  C   LIG    1        1.201  -9.965  -3.371  0.00  0.00    -0.110 C 
ATOM      8  C   LIG    1        0.669 -11.229  -4.048  0.00  0.00    +0.070 C 
ATOM      9  C   LIG    1        1.754 -11.008  -5.118  0.00  0.00    +0.250 C 
ATOM     10  F   LIG    1        2.383 -12.187  -5.531  0.00  0.00    -0.190 F 
ATOM     11  F   LIG    1        1.330 -10.215  -6.189  0.00  0.00    -0.180 F 
ATOM     12  C   LIG    1        2.545 -10.230  -4.050  0.00  0.00    +0.080 C 
ATOM     13  C   LIG    1        1.103  -9.778  -1.857  0.00  0.00    +0.090 C 
ENDBRANCH   2   5
BRANCH   3  14
ATOM     14  C   LIG    1       -1.122  -5.509  -0.578  0.00  0.00    +0.290 C 
BRANCH  14  15
ATOM     15  C   LIG    1       -1.143  -4.027  -0.956  0.00  0.00    -0.020 C 
ATOM     16  C   LIG    1       -2.209  -3.204  -0.219  0.00  0.00    +0.310 C 
ATOM     17  N   LIG    1       -1.218  -2.124  -0.099  0.00  0.00    -0.640 N 
ATOM     18  C   LIG    1       -1.255  -0.781   0.010  0.00  0.00    +0.600 C 
ATOM     19  O   LIG    1       -2.324  -0.207   0.083  0.00  0.00    -0.520 OA
ATOM     20  C   LIG    1       -0.169  -3.153  -0.157  0.00  0.00    +0.280 C 
BRANCH  18  21
ATOM     21  C   LIG    1        0.004  -0.007   0.042  0.00  0.00    -0.240 A 
ATOM     22  C   LIG    1       -0.010   1.391  -0.002  0.00  0.00    +0.390 A 
ATOM     23  N   LIG    1        1.139   2.043   0.029  0.00  0.00    -0.520 NA
ATOM     24  C   LIG    1        2.285   1.395   0.101  0.00  0.00    +0.530 A 
ATOM     25  N   LIG    1        2.344   0.079   0.145  0.00  0.00    -0.520 NA
ATOM     26  C   LIG    1        1.243  -0.652   0.118  0.00  0.00    +0.350 A 
ENDBRANCH  18  21
ENDBRANCH  14  15
ENDBRANCH   3  14
TORSDOF 4
