REMARK  Name = ZINCrD00000hQ4at.0
REMARK                            x       y       z     vdW  Elec       q    Type
REMARK                         _______ _______ _______ _____ _____    ______ ____
ROOT
ATOM      1  C   LIG    1       -1.238   3.135   0.031  0.00  0.00    +0.020 A 
ATOM      2  C   LIG    1       -0.088   3.866   0.024  0.00  0.00    +0.060 A 
ATOM      3  C   LIG    1        1.154   3.212   0.008  0.00  0.00    +0.080 A 
ATOM      4  N   LIG    1        2.299   3.910   0.002  0.00  0.00    -0.460 NA
ATOM      5  C   LIG    1        3.452   3.275  -0.012  0.00  0.00    +0.290 A 
ATOM      6  C   LIG    1        3.491   1.860  -0.020  0.00  0.00    +0.300 A 
ATOM      7  N   LIG    1        2.374   1.162  -0.014  0.00  0.00    -0.460 NA
ATOM      8  C   LIG    1        1.192   1.797   0.000  0.00  0.00    +0.090 A 
ATOM      9  C   LIG    1       -0.013   1.076   0.008  0.00  0.00    +0.050 A 
ATOM     10  C   LIG    1       -1.200   1.743   0.017  0.00  0.00    +0.030 A 
ENDROOT
BRANCH   6  11
ATOM     11  N   LIG    1        4.713   1.204  -0.035  0.00  0.00    -0.460 N 
ATOM     12  C   LIG    1        5.551   1.628   1.093  0.00  0.00    +0.200 C 
ATOM     13  C   LIG    1        6.939   0.997   0.964  0.00  0.00    +0.060 C 
ATOM     14  C   LIG    1        6.802  -0.528   0.951  0.00  0.00    -0.030 C 
ATOM     15  C   LIG    1        5.885  -0.940  -0.204  0.00  0.00    +0.050 C 
ATOM     16  C   LIG    1        4.528  -0.253  -0.041  0.00  0.00    +0.210 C 
BRANCH  14  17
ATOM     17  C   LIG    1        8.181  -1.165   0.761  0.00  0.00    +0.330 C 
BRANCH  17  18
ATOM     18  N   LIG    1        9.019  -0.869   1.925  0.00  0.00    -0.370 N 
ATOM     19  C   LIG    1        9.655  -1.775   2.697  0.00  0.00    +0.220 A 
ATOM     20  C   LIG    1       10.321  -1.100   3.663  0.00  0.00    -0.120 A 
ATOM     21  C   LIG    1       10.083   0.266   3.475  0.00  0.00    +0.220 A 
ATOM     22  N   LIG    1        9.308   0.406   2.430  0.00  0.00    -0.290 NA
ENDBRANCH  17  18
ENDBRANCH  14  17
ENDBRANCH   6  11
BRANCH   5  23
ATOM     23  N   LIG    1        4.636   3.997  -0.019  0.00  0.00    -0.450 N 
ATOM     24  C   LIG    1        5.412   3.736  -1.259  0.00  0.00    +0.200 C 
ATOM     25  C   LIG    1        6.364   4.955  -1.344  0.00  0.00    +0.040 C 
ATOM     26  C   LIG    1        5.480   6.120  -0.841  0.00  0.00    +0.020 C 
ATOM     27  C   LIG    1        4.370   5.451  -0.008  0.00  0.00    +0.190 C 
ENDBRANCH   5  23
TORSDOF 4
