REMARK  Name = ZINCpe000027pHoX.0
REMARK                            x       y       z     vdW  Elec       q    Type
REMARK                         _______ _______ _______ _____ _____    ______ ____
ROOT
ATOM      1  C   LIG    1        1.816   0.046  -1.031  0.00  0.00    -0.060 A 
ATOM      2  C   LIG    1        1.788   1.425  -1.003  0.00  0.00    +0.030 A 
ATOM      3  C   LIG    1        1.174   2.086   0.046  0.00  0.00    +0.030 A 
ATOM      4  C   LIG    1        0.585   1.370   1.073  0.00  0.00    +0.020 A 
ATOM      5  C   LIG    1        0.606  -0.009   1.057  0.00  0.00    +0.040 A 
ATOM      6  C   LIG    1        1.223  -0.682   0.002  0.00  0.00    -0.110 A 
ENDROOT
BRANCH   6   7
ATOM      7  C   LIG    1        1.249  -2.160  -0.022  0.00  0.00    +0.570 C 
ATOM      8  N   LIG    1        0.100  -2.856   0.087  0.00  0.00    -0.610 N 
ATOM      9  C   LIG    1       -1.202  -2.171   0.105  0.00  0.00    +0.250 C 
ATOM     10  C   LIG    1       -2.115  -2.840  -0.928  0.00  0.00    +0.220 C 
ATOM     11  O   LIG    1       -2.137  -4.250  -0.694  0.00  0.00    -0.360 OA
ATOM     12  C   LIG    1       -0.867  -4.889  -0.848  0.00  0.00    +0.160 C 
ATOM     13  C   LIG    1        0.111  -4.325   0.184  0.00  0.00    +0.270 C 
ATOM     14  O   LIG    1        2.307  -2.748  -0.140  0.00  0.00    -0.520 OA
BRANCH  12  15
ATOM     15  C   LIG    1       -1.023  -6.396  -0.636  0.00  0.00    +0.140 C 
BRANCH  15  16
ATOM     16  C   LIG    1       -1.891  -6.969  -1.726  0.00  0.00    +0.460 C 
ATOM     17  O   LIG    1       -2.339  -6.247  -2.584  0.00  0.00    -0.490 OA
BRANCH  16  18
ATOM     18  O   LIG    1       -2.167  -8.283  -1.743  0.00  0.00    -0.360 OA
ATOM     19  C   LIG    1       -3.010  -8.765  -2.822  0.00  0.00    +0.260 C 
ENDBRANCH  16  18
ENDBRANCH  15  16
ENDBRANCH  12  15
ENDBRANCH   6   7
BRANCH   1  20
ATOM     20  C   LIG    1        2.485  -0.672  -2.174  0.00  0.00    +0.330 C 
BRANCH  20  22
ATOM     21  C   LIG    1        1.838  -1.798  -4.236  0.00  0.00    +0.540 C 
ATOM     22  N   LIG    1        1.470  -1.127  -3.127  0.00  0.00    -0.720 N 
ATOM     23  H   LIG    1        0.532  -0.944  -2.960  0.00  0.00    +0.400 HD
ATOM     24  O   LIG    1        3.014  -2.026  -4.446  0.00  0.00    -0.540 OA
BRANCH  21  26
ATOM     25  C   LIG    1        1.182  -2.916  -6.288  0.00  0.00    +0.150 C 
ATOM     26  C   LIG    1        0.819  -2.254  -5.193  0.00  0.00    -0.090 C 
ENDBRANCH  21  26
ENDBRANCH  20  22
ENDBRANCH   1  20
TORSDOF 7
