REMARK  Name = ZINCtj0000000Mzk.0
REMARK                            x       y       z     vdW  Elec       q    Type
REMARK                         _______ _______ _______ _____ _____    ______ ____
ROOT
ATOM      1  N   LIG    1        5.315   0.144  -6.145  0.00  0.00    -0.750 N 
ATOM      2  H   LIG    1        4.719  -0.618  -6.081  0.00  0.00    +0.390 HD
ATOM      3  C   LIG    1        5.459   0.977  -5.095  0.00  0.00    +0.710 C 
ATOM      4  N   LIG    1        4.855   0.695  -3.924  0.00  0.00    -0.620 N 
ATOM      5  C   LIG    1        3.944  -0.453  -3.809  0.00  0.00    +0.260 C 
ATOM      6  C   LIG    1        2.594   0.043  -3.278  0.00  0.00    +0.290 C 
ATOM      7  N   LIG    1        2.833   0.878  -2.093  0.00  0.00    -0.990 NA
ATOM      8  C   LIG    1        3.739   2.030  -2.209  0.00  0.00    +0.300 C 
ATOM      9  C   LIG    1        5.094   1.530  -2.738  0.00  0.00    +0.300 C 
ATOM     10  O   LIG    1        6.135   1.982  -5.203  0.00  0.00    -0.580 OA
ENDROOT
BRANCH   7  11
ATOM     11  S   LIG    1        2.090   0.532  -0.654  0.00  0.00    +2.680 S 
ATOM     12  O   LIG    1        2.059   1.746   0.084  0.00  0.00    -0.940 OA
ATOM     13  O   LIG    1        0.923  -0.213  -0.974  0.00  0.00    -0.940 OA
BRANCH  11  14
ATOM     14  C   LIG    1        3.151  -0.561   0.231  0.00  0.00    -0.640 A 
ATOM     15  C   LIG    1        3.728  -0.156   1.416  0.00  0.00    +0.140 A 
ATOM     16  C   LIG    1        4.561  -1.014   2.113  0.00  0.00    +0.050 A 
ATOM     17  C   LIG    1        4.821  -2.283   1.627  0.00  0.00    +0.090 A 
ATOM     18  C   LIG    1        4.250  -2.701   0.442  0.00  0.00    +0.050 A 
ATOM     19  C   LIG    1        3.409  -1.841  -0.266  0.00  0.00    +0.060 A 
BRANCH  19  20
ATOM     20  C   LIG    1        2.814  -2.268  -1.496  0.00  0.00    +0.220 C 
ATOM     21  N   LIG    1        2.342  -2.607  -2.473  0.00  0.00    -0.370 NA
ENDBRANCH  19  20
ENDBRANCH  11  14
ENDBRANCH   7  11
BRANCH   1  22
ATOM     22  C   LIG    1        6.059   0.391  -7.383  0.00  0.00    +0.290 C 
BRANCH  22  26
ATOM     23  N   LIG    1        6.644  -2.761 -10.211  0.00  0.00    -0.380 N 
ATOM     24  C   LIG    1        6.118  -1.496 -10.737  0.00  0.00    +0.260 C 
ATOM     25  C   LIG    1        6.399  -0.369  -9.740  0.00  0.00    +0.070 C 
ATOM     26  C   LIG    1        5.717  -0.692  -8.408  0.00  0.00    -0.010 C 
ATOM     27  C   LIG    1        6.216  -2.049  -7.904  0.00  0.00    +0.060 C 
ATOM     28  C   LIG    1        5.944  -3.114  -8.970  0.00  0.00    +0.250 C 
ATOM     29  H   LIG    1        7.630  -2.662 -10.023  0.00  0.00    +0.420 HD
BRANCH  23  31
ATOM     30  C   LIG    1        7.098  -5.115 -10.710  0.00  0.00    +0.080 C 
ATOM     31  C   LIG    1        6.440  -3.825 -11.203  0.00  0.00    +0.250 C 
ENDBRANCH  23  31
ENDBRANCH  22  26
ENDBRANCH   1  22
TORSDOF 6
