REMARK  Name = ZINCrD0000070Qdf.0
REMARK                            x       y       z     vdW  Elec       q    Type
REMARK                         _______ _______ _______ _____ _____    ______ ____
ROOT
ATOM      1  C   LIG    1       -0.132  -4.210   1.161  0.00  0.00    +0.420 C 
ENDROOT
BRANCH   1   2
ATOM      2  C   LIG    1       -1.518  -4.800   1.209  0.00  0.00    +0.140 A 
ATOM      3  N   LIG    1       -2.276  -5.078   0.180  0.00  0.00    -0.210 NA
ATOM      4  N   LIG    1       -3.398  -5.570   0.574  0.00  0.00    -0.250 NA
ATOM      5  C   LIG    1       -3.413  -5.633   1.895  0.00  0.00    +0.210 A 
ATOM      6  C   LIG    1       -4.366  -6.078   2.833  0.00  0.00    +0.010 A 
ATOM      7  C   LIG    1       -4.066  -6.024   4.160  0.00  0.00    +0.120 A 
ATOM      8  C   LIG    1       -2.823  -5.516   4.574  0.00  0.00    -0.190 A 
ATOM      9  C   LIG    1       -1.923  -5.090   3.664  0.00  0.00    +0.330 A 
ATOM     10 CL   LIG    1       -5.896  -6.704   2.303  0.00  0.00    +0.010 Cl
ATOM     11  N   LIG    1       -2.206  -5.145   2.330  0.00  0.00    -0.380 N 
BRANCH   8  12
ATOM     12  C   LIG    1       -2.493  -5.449   6.043  0.00  0.00    +0.530 C 
ATOM     13  F   LIG    1       -1.104  -5.474   6.210  0.00  0.00    -0.170 F 
ATOM     14  F   LIG    1       -3.062  -6.545   6.700  0.00  0.00    -0.160 F 
ATOM     15  F   LIG    1       -3.006  -4.264   6.582  0.00  0.00    -0.160 F 
ENDBRANCH   8  12
ENDBRANCH   1   2
BRANCH   1  17
ATOM     16  C   LIG    1        0.901  -2.003   1.166  0.00  0.00    +0.530 C 
ATOM     17  N   LIG    1       -0.221  -2.748   1.199  0.00  0.00    -0.730 N 
ATOM     18  H   LIG    1       -1.088  -2.317   1.248  0.00  0.00    +0.400 HD
ATOM     19  O   LIG    1        1.986  -2.543   1.105  0.00  0.00    -0.520 OA
BRANCH  16  25
ATOM     20  C   LIG    1        2.216   0.101   1.149  0.00  0.00    +0.220 C 
ATOM     21  O   LIG    1        2.124   1.527   1.128  0.00  0.00    -0.370 OA
ATOM     22  C   LIG    1        1.420   2.050  -0.001  0.00  0.00    +0.210 C 
ATOM     23  C   LIG    1       -0.019   1.528   0.010  0.00  0.00    +0.000 C 
ATOM     24  C   LIG    1        0.002  -0.004   0.002  0.00  0.00    +0.020 C 
ATOM     25  C   LIG    1        0.809  -0.499   1.206  0.00  0.00    -0.020 C 
BRANCH  20  27
ATOM     26  C   LIG    1        4.050  -1.103   2.221  0.00  0.00    +0.060 C 
ATOM     27  C   LIG    1        2.998  -0.334   2.361  0.00  0.00    -0.130 C 
ATOM     28  C   LIG    1        2.570   0.114   3.735  0.00  0.00    +0.080 C 
ENDBRANCH  20  27
ENDBRANCH  16  25
ENDBRANCH   1  17
TORSDOF 5
