REMARK  Name = ZINCpe000000SCIo.0
REMARK                            x       y       z     vdW  Elec       q    Type
REMARK                         _______ _______ _______ _____ _____    ______ ____
ROOT
ATOM      1  C   LIG    1        3.789   1.902  -0.083  0.00  0.00    +0.500 C 
ATOM      2  N   LIG    1        3.526   3.127  -0.581  0.00  0.00    -0.720 N 
ATOM      3  H   LIG    1        4.046   3.471  -1.323  0.00  0.00    +0.400 HD
ATOM      4  O   LIG    1        3.081   1.434   0.782  0.00  0.00    -0.490 OA
ENDROOT
BRANCH   2   5
ATOM      5  C   LIG    1        2.453   3.938   0.001  0.00  0.00    +0.190 C 
ATOM      6  C   LIG    1        2.465   5.362  -0.599  0.00  0.00    +0.030 C 
ATOM      7  C   LIG    1        2.715   6.279   0.618  0.00  0.00    +0.200 C 
ATOM      8  O   LIG    1        3.376   5.436   1.587  0.00  0.00    -0.370 OA
ATOM      9  C   LIG    1        2.699   4.160   1.509  0.00  0.00    +0.210 C 
BRANCH   5  10
ATOM     10  C   LIG    1        1.115   3.281  -0.225  0.00  0.00    -0.080 A 
ATOM     11  C   LIG    1        0.984   2.291  -1.181  0.00  0.00    +0.030 A 
ATOM     12  C   LIG    1       -0.243   1.689  -1.388  0.00  0.00    +0.010 A 
ATOM     13  C   LIG    1       -1.340   2.081  -0.644  0.00  0.00    +0.000 A 
ATOM     14  C   LIG    1       -1.208   3.068   0.315  0.00  0.00    +0.000 A 
ATOM     15  C   LIG    1        0.019   3.670   0.522  0.00  0.00    +0.000 A 
ENDBRANCH   5  10
ENDBRANCH   2   5
BRANCH   1  16
ATOM     16  C   LIG    1        4.965   1.115  -0.603  0.00  0.00    +0.260 C 
BRANCH  16  19
ATOM     17  C   LIG    1        4.812  -1.922   1.722  0.00  0.00    +0.080 C 
ATOM     18  C   LIG    1        4.436  -0.861   0.721  0.00  0.00    +0.520 C 
ATOM     19  N   LIG    1        5.331   0.084   0.371  0.00  0.00    -0.720 N 
ATOM     20  H   LIG    1        6.218   0.081   0.764  0.00  0.00    +0.400 HD
ATOM     21  O   LIG    1        3.327  -0.857   0.229  0.00  0.00    -0.520 OA
ENDBRANCH  16  19
BRANCH  16  22
ATOM     22  C   LIG    1        4.589   0.453  -1.930  0.00  0.00    +0.130 C 
BRANCH  22  23
ATOM     23  C   LIG    1        5.800  -0.231  -2.510  0.00  0.00    +0.010 A 
ATOM     24  C   LIG    1        5.882  -1.528  -2.865  0.00  0.00    +0.120 A 
ATOM     25  N   LIG    1        7.148  -1.728  -3.345  0.00  0.00    -0.570 N 
ATOM     26  H   LIG    1        7.511  -2.562  -3.681  0.00  0.00    +0.420 HD
ATOM     27  C   LIG    1        7.799  -0.548  -3.259  0.00  0.00    +0.400 A 
ATOM     28  N   LIG    1        6.987   0.343  -2.758  0.00  0.00    -0.490 NA
ENDBRANCH  22  23
ENDBRANCH  16  22
ENDBRANCH   1  16
TORSDOF 6
