REMARK  Name = ZINCpe000000SCIo.1
REMARK                            x       y       z     vdW  Elec       q    Type
REMARK                         _______ _______ _______ _____ _____    ______ ____
ROOT
ATOM      1  C   LIG    1        3.790   1.902  -0.082  0.00  0.00    +0.500 C 
ATOM      2  N   LIG    1        3.526   3.127  -0.579  0.00  0.00    -0.720 N 
ATOM      3  H   LIG    1        4.047   3.471  -1.321  0.00  0.00    +0.400 HD
ATOM      4  O   LIG    1        3.080   1.433   0.783  0.00  0.00    -0.480 OA
ENDROOT
BRANCH   2   5
ATOM      5  C   LIG    1        2.453   3.938   0.002  0.00  0.00    +0.190 C 
ATOM      6  C   LIG    1        2.465   5.362  -0.597  0.00  0.00    +0.030 C 
ATOM      7  C   LIG    1        2.715   6.279   0.621  0.00  0.00    +0.210 C 
ATOM      8  O   LIG    1        3.375   5.435   1.589  0.00  0.00    -0.370 OA
ATOM      9  C   LIG    1        2.698   4.159   1.511  0.00  0.00    +0.220 C 
BRANCH   5  10
ATOM     10  C   LIG    1        1.115   3.281  -0.225  0.00  0.00    -0.080 A 
ATOM     11  C   LIG    1        0.984   2.291  -1.181  0.00  0.00    +0.020 A 
ATOM     12  C   LIG    1       -0.242   1.689  -1.388  0.00  0.00    +0.010 A 
ATOM     13  C   LIG    1       -1.340   2.081  -0.644  0.00  0.00    +0.000 A 
ATOM     14  C   LIG    1       -1.208   3.068   0.314  0.00  0.00    +0.000 A 
ATOM     15  C   LIG    1        0.019   3.670   0.522  0.00  0.00    +0.000 A 
ENDBRANCH   5  10
ENDBRANCH   2   5
BRANCH   1  16
ATOM     16  C   LIG    1        4.965   1.116  -0.601  0.00  0.00    +0.250 C 
BRANCH  16  19
ATOM     17  C   LIG    1        4.811  -1.923   1.723  0.00  0.00    +0.080 C 
ATOM     18  C   LIG    1        4.435  -0.861   0.722  0.00  0.00    +0.520 C 
ATOM     19  N   LIG    1        5.331   0.084   0.373  0.00  0.00    -0.720 N 
ATOM     20  H   LIG    1        6.217   0.081   0.767  0.00  0.00    +0.410 HD
ATOM     21  O   LIG    1        3.327  -0.857   0.229  0.00  0.00    -0.510 OA
ENDBRANCH  16  19
BRANCH  16  22
ATOM     22  C   LIG    1        4.590   0.454  -1.928  0.00  0.00    +0.140 C 
BRANCH  22  23
ATOM     23  C   LIG    1        5.801  -0.230  -2.508  0.00  0.00    -0.020 A 
ATOM     24  C   LIG    1        6.237  -1.472  -2.219  0.00  0.00    +0.150 A 
ATOM     25  N   LIG    1        7.341  -1.703  -2.945  0.00  0.00    -0.490 NA
ATOM     26  C   LIG    1        7.606  -0.653  -3.673  0.00  0.00    +0.400 A 
ATOM     27  N   LIG    1        6.666   0.288  -3.434  0.00  0.00    -0.570 N 
ATOM     28  H   LIG    1        6.615   1.166  -3.841  0.00  0.00    +0.420 HD
ENDBRANCH  22  23
ENDBRANCH  16  22
ENDBRANCH   1  16
TORSDOF 6
