REMARK  Name = ZINCvU0000000BkQ.0
REMARK                            x       y       z     vdW  Elec       q    Type
REMARK                         _______ _______ _______ _____ _____    ______ ____
ROOT
ATOM      1  O   LIG    1       -0.290   0.431   1.451  0.00  0.00    -0.520 OA
ATOM      2  C   LIG    1       -0.164   1.434   0.773  0.00  0.00    +0.550 C 
ATOM      3  N   LIG    1       -1.191   1.871   0.018  0.00  0.00    -0.670 N 
ATOM      4  H   LIG    1       -1.117   2.710  -0.463  0.00  0.00    +0.420 HD
ENDROOT
BRANCH   3   5
ATOM      5  C   LIG    1       -2.361   1.115  -0.073  0.00  0.00    +0.160 A 
ATOM      6  C   LIG    1       -2.313  -0.263   0.105  0.00  0.00    +0.020 A 
ATOM      7  C   LIG    1       -3.468  -1.010   0.021  0.00  0.00    +0.040 A 
ATOM      8  C   LIG    1       -4.685  -0.384  -0.253  0.00  0.00    -0.040 A 
ATOM      9  C   LIG    1       -4.729   0.999  -0.437  0.00  0.00    +0.090 A 
ATOM     10  C   LIG    1       -3.572   1.742  -0.347  0.00  0.00    -0.010 A 
BRANCH   8  11
ATOM     11  C   LIG    1       -5.925  -1.184  -0.349  0.00  0.00    +0.220 A 
ATOM     12  N   LIG    1       -7.158  -0.735  -0.249  0.00  0.00    -0.280 NA
ATOM     13  N   LIG    1       -7.988  -1.709  -0.391  0.00  0.00    -0.290 NA
ATOM     14  C   LIG    1       -7.339  -2.823  -0.581  0.00  0.00    +0.190 A 
ATOM     15  C   LIG    1       -7.926  -4.192  -0.807  0.00  0.00    +0.150 C 
ATOM     16  C   LIG    1       -7.196  -5.202   0.084  0.00  0.00    +0.030 C 
ATOM     17  C   LIG    1       -5.972  -5.742  -0.650  0.00  0.00    +0.020 C 
ATOM     18  C   LIG    1       -5.365  -4.666  -1.548  0.00  0.00    +0.030 C 
ATOM     19  C   LIG    1       -4.907  -3.480  -0.695  0.00  0.00    +0.290 C 
ATOM     20  N   LIG    1       -6.011  -2.531  -0.551  0.00  0.00    -0.470 N 
ENDBRANCH   8  11
ENDBRANCH   3   5
BRANCH   2  21
ATOM     21  C   LIG    1        1.106   2.163   0.774  0.00  0.00    -0.070 C 
ATOM     22  C   LIG    1        2.135   1.723   1.526  0.00  0.00    +0.130 C 
BRANCH  22  23
ATOM     23  C   LIG    1        3.412   2.455   1.526  0.00  0.00    -0.080 A 
ATOM     24  C   LIG    1        3.561   3.608   0.749  0.00  0.00    +0.070 A 
ATOM     25  C   LIG    1        4.761   4.289   0.755  0.00  0.00    +0.020 A 
ATOM     26  C   LIG    1        5.814   3.834   1.529  0.00  0.00    +0.080 A 
ATOM     27  C   LIG    1        5.674   2.694   2.301  0.00  0.00    -0.180 A 
ATOM     28  C   LIG    1        4.480   2.005   2.309  0.00  0.00    +0.100 A 
BRANCH  27  29
ATOM     29  C   LIG    1        6.828   2.208   3.140  0.00  0.00    +0.510 C 
ATOM     30  F   LIG    1        7.185   0.916   2.738  0.00  0.00    -0.170 F 
ATOM     31  F   LIG    1        6.451   2.190   4.487  0.00  0.00    -0.170 F 
ATOM     32  F   LIG    1        7.920   3.066   2.973  0.00  0.00    -0.180 F 
ENDBRANCH  27  29
ENDBRANCH  22  23
ENDBRANCH   2  21
TORSDOF 5
