REMARK  Name = ZINCrH000004sDWR.0
REMARK                            x       y       z     vdW  Elec       q    Type
REMARK                         _______ _______ _______ _____ _____    ______ ____
ROOT
ATOM      1  N   LIG    1        3.268  -2.967  -1.030  0.00  0.00    -0.660 NA
ATOM      2  H   LIG    1        3.054  -2.316  -1.771  0.00  0.00    +0.350 HD
ENDROOT
BRANCH   1   3
ATOM      3  C   LIG    1        2.210  -2.972  -0.011  0.00  0.00    +0.270 C 
ATOM      4  C   LIG    1        2.138  -1.590   0.631  0.00  0.00    -0.370 C 
ATOM      5  S   LIG    1        0.970  -1.685   2.026  0.00  0.00    +2.600 S 
ATOM      6  N   LIG    1        1.657  -2.874   2.961  0.00  0.00    -0.940 N 
ATOM      7  C   LIG    1        2.213  -3.997   2.334  0.00  0.00    +0.190 A 
ATOM      8  C   LIG    1        2.494  -5.089   3.158  0.00  0.00    -0.030 A 
ATOM      9  C   LIG    1        3.072  -6.228   2.641  0.00  0.00    +0.050 A 
ATOM     10  C   LIG    1        3.375  -6.287   1.293  0.00  0.00    -0.020 A 
ATOM     11  C   LIG    1        3.092  -5.214   0.477  0.00  0.00    +0.090 A 
ATOM     12  C   LIG    1        1.683  -2.750   4.421  0.00  0.00    +0.320 C 
ATOM     13  O   LIG    1       -0.276  -2.226   1.609  0.00  0.00    -0.930 OA
ATOM     14  O   LIG    1        1.037  -0.512   2.825  0.00  0.00    -0.940 OA
ATOM     15  C   LIG    1        2.501  -4.059   0.985  0.00  0.00    -0.150 A 
ENDBRANCH   1   3
BRANCH   1  16
ATOM     16  C   LIG    1        4.576  -2.670  -0.430  0.00  0.00    +0.230 C 
BRANCH  16  20
ATOM     17  C   LIG    1        7.633  -3.103  -3.389  0.00  0.00    -0.010 A 
ATOM     18  C   LIG    1        7.006  -1.870  -3.204  0.00  0.00    +0.020 A 
ATOM     19  C   LIG    1        6.021  -1.737  -2.247  0.00  0.00    +0.010 A 
ATOM     20  C   LIG    1        5.653  -2.823  -1.473  0.00  0.00    -0.070 A 
ATOM     21  C   LIG    1        6.275  -4.047  -1.647  0.00  0.00    +0.040 A 
ATOM     22  C   LIG    1        7.258  -4.194  -2.603  0.00  0.00    +0.040 A 
BRANCH  17  25
ATOM     23  C   LIG    1       10.335  -4.414  -2.911  0.00  0.00    +0.160 C 
ATOM     24  C   LIG    1        9.898  -3.829  -4.229  0.00  0.00    +0.080 A 
ATOM     25  C   LIG    1        8.690  -3.253  -4.412  0.00  0.00    -0.190 A 
ATOM     26  S   LIG    1        8.596  -2.718  -6.088  0.00  0.00    +0.140 S 
ATOM     27  C   LIG    1       10.176  -3.306  -6.374  0.00  0.00    +0.220 A 
ATOM     28  N   LIG    1       10.659  -3.837  -5.301  0.00  0.00    -0.470 NA
ENDBRANCH  17  25
ENDBRANCH  16  20
ENDBRANCH   1  16
TORSDOF 4
