REMARK  Name = ZINCqH0000007luA.0
REMARK                            x       y       z     vdW  Elec       q    Type
REMARK                         _______ _______ _______ _____ _____    ______ ____
ROOT
ATOM      1  N   LIG    1        2.346   1.865  -0.143  0.00  0.00    -0.740 N 
ATOM      2  H   LIG    1        3.198   1.550  -0.484  0.00  0.00    +0.390 HD
ATOM      3  C   LIG    1        2.266   3.064   0.466  0.00  0.00    +0.710 C 
ATOM      4  N   LIG    1        3.370   3.826   0.602  0.00  0.00    -0.740 N 
ATOM      5  H   LIG    1        4.222   3.511   0.261  0.00  0.00    +0.400 HD
ATOM      6  O   LIG    1        1.199   3.459   0.893  0.00  0.00    -0.590 OA
ENDROOT
BRANCH   1   7
ATOM      7  C   LIG    1        1.147   1.037  -0.291  0.00  0.00    +0.320 C 
ATOM      8  C   LIG    1        0.391   1.455  -1.553  0.00  0.00    +0.040 C 
BRANCH   7  13
ATOM      9  C   LIG    1        3.153  -2.082  -1.019  0.00  0.00    +0.100 A 
ATOM     10  C   LIG    1        2.280  -3.077  -0.605  0.00  0.00    -0.040 A 
ATOM     11  C   LIG    1        1.042  -2.740  -0.091  0.00  0.00    -0.030 A 
ATOM     12  C   LIG    1        0.676  -1.407   0.017  0.00  0.00    +0.100 A 
ATOM     13  C   LIG    1        1.547  -0.412  -0.403  0.00  0.00    -0.080 A 
ATOM     14  C   LIG    1        2.784  -0.749  -0.917  0.00  0.00    +0.020 A 
BRANCH   9  16
ATOM     15  C   LIG    1        4.685  -3.806  -1.600  0.00  0.00    +0.250 C 
ATOM     16  O   LIG    1        4.371  -2.414  -1.524  0.00  0.00    -0.320 OA
ENDBRANCH   9  16
BRANCH  12  17
ATOM     17  O   LIG    1       -0.539  -1.075   0.528  0.00  0.00    -0.310 OA
ATOM     18  C   LIG    1       -1.386  -2.150   0.939  0.00  0.00    +0.240 C 
ENDBRANCH  12  17
ENDBRANCH   7  13
ENDBRANCH   1   7
BRANCH   4  19
ATOM     19  C   LIG    1        3.283   5.130   1.265  0.00  0.00    +0.320 C 
BRANCH  19  20
ATOM     20  C   LIG    1        4.635   5.839   1.174  0.00  0.00    -0.110 C 
ATOM     21  C   LIG    1        4.651   7.260   0.607  0.00  0.00    +0.050 C 
ATOM     22  C   LIG    1        5.205   6.098  -0.222  0.00  0.00    +0.040 C 
BRANCH  20  23
ATOM     23  C   LIG    1        5.612   5.519   2.276  0.00  0.00    -0.050 A 
ATOM     24  C   LIG    1        6.777   4.831   1.989  0.00  0.00    +0.010 A 
ATOM     25  C   LIG    1        7.675   4.541   2.999  0.00  0.00    +0.000 A 
ATOM     26  C   LIG    1        7.405   4.930   4.297  0.00  0.00    +0.000 A 
ATOM     27  C   LIG    1        6.238   5.613   4.585  0.00  0.00    +0.000 A 
ATOM     28  C   LIG    1        5.342   5.907   3.575  0.00  0.00    +0.010 A 
ENDBRANCH  20  23
ENDBRANCH  19  20
ENDBRANCH   4  19
TORSDOF 7
