REMARK  Name = ZINCpk000000mXuI.0
REMARK                            x       y       z     vdW  Elec       q    Type
REMARK                         _______ _______ _______ _____ _____    ______ ____
ROOT
ATOM      1  C   LIG    1        0.508   0.010  -1.172  0.00  0.00    +0.220 C 
ATOM      2  C   LIG    1        1.437  -0.482  -0.059  0.00  0.00    +0.010 C 
ATOM      3  C   LIG    1        1.492  -2.011  -0.077  0.00  0.00    +0.020 C 
ATOM      4  C   LIG    1        0.089  -2.572   0.179  0.00  0.00    +0.260 C 
ATOM      5  N   LIG    1       -0.839  -1.990  -0.799  0.00  0.00    -0.610 N 
ATOM      6  C   LIG    1       -1.616  -2.782  -1.565  0.00  0.00    +0.530 C 
ATOM      7  O   LIG    1       -2.378  -2.289  -2.370  0.00  0.00    -0.500 OA
ATOM      8  C   LIG    1       -0.905  -0.527  -0.927  0.00  0.00    +0.280 C 
ENDROOT
BRANCH   6   9
ATOM      9  C   LIG    1       -1.537  -4.280  -1.422  0.00  0.00    +0.230 C 
ATOM     10  C   LIG    1       -2.822  -4.802  -0.772  0.00  0.00    +0.040 C 
ATOM     11  C   LIG    1       -2.795  -6.332  -0.757  0.00  0.00    +0.020 C 
ATOM     12  C   LIG    1       -2.732  -6.858  -2.192  0.00  0.00    +0.010 C 
ATOM     13  C   LIG    1       -1.445  -6.359  -2.858  0.00  0.00    +0.280 C 
ATOM     14  N   LIG    1       -1.393  -4.895  -2.749  0.00  0.00    -0.600 N 
ATOM     15  C   LIG    1       -1.219  -4.130  -3.845  0.00  0.00    +0.590 C 
ATOM     16  O   LIG    1       -1.059  -2.929  -3.729  0.00  0.00    -0.480 OA
BRANCH  15  17
ATOM     17  C   LIG    1       -1.220  -4.745  -5.176  0.00  0.00    -0.080 A 
ATOM     18  C   LIG    1       -0.916  -4.118  -6.350  0.00  0.00    +0.040 A 
ATOM     19  C   LIG    1       -1.042  -5.079  -7.365  0.00  0.00    -0.060 A 
ATOM     20  C   LIG    1       -1.422  -6.234  -6.775  0.00  0.00    +0.190 A 
ATOM     21  O   LIG    1       -1.528  -6.029  -5.456  0.00  0.00    -0.160 OA
ENDBRANCH  15  17
ENDBRANCH   6   9
BRANCH   1  24
ATOM     22  C   LIG    1        1.400   3.673  -1.839  0.00  0.00    +0.110 C 
ATOM     23  C   LIG    1        1.428   2.166  -1.838  0.00  0.00    +0.510 C 
ATOM     24  N   LIG    1        0.481   1.475  -1.173  0.00  0.00    -0.730 N 
ATOM     25  H   LIG    1       -0.221   1.947  -0.700  0.00  0.00    +0.400 HD
ATOM     26  O   LIG    1        2.304   1.575  -2.434  0.00  0.00    -0.540 OA
ENDBRANCH   1  24
TORSDOF 3
