REMARK  Name = ZINCtj00000wy9Xr.0
REMARK                            x       y       z     vdW  Elec       q    Type
REMARK                         _______ _______ _______ _____ _____    ______ ____
ROOT
ATOM      1  C   LIG    1        4.652   5.897   0.037  0.00  0.00    -0.070 A 
ATOM      2  C   LIG    1        3.333   5.479  -0.134  0.00  0.00    +0.380 A 
ATOM      3  N   LIG    1        3.038   4.193  -0.097  0.00  0.00    -0.490 NA
ATOM      4  C   LIG    1        3.997   3.298   0.113  0.00  0.00    +0.390 A 
ATOM      5  C   LIG    1        5.321   3.718   0.284  0.00  0.00    +0.190 A 
ATOM      6  N   LIG    1        5.615   4.998   0.242  0.00  0.00    -0.380 NA
ENDROOT
BRANCH   1   8
ATOM      7  O   LIG    1        4.094   8.165  -0.040  0.00  0.00    -0.510 OA
ATOM      8  C   LIG    1        4.984   7.337  -0.010  0.00  0.00    +0.600 C 
ATOM      9  N   LIG    1        6.272   7.732  -0.019  0.00  0.00    -0.620 N 
ATOM     10  C   LIG    1        7.363   6.752  -0.138  0.00  0.00    +0.330 C 
ATOM     11  C   LIG    1        8.305   7.215  -1.260  0.00  0.00    +0.250 C 
ATOM     12  N   LIG    1        8.751   8.587  -0.986  0.00  0.00    -0.510 N 
ATOM     13  C   LIG    1        7.605   9.503  -1.032  0.00  0.00    +0.260 C 
ATOM     14  H   LIG    1        9.174   8.624  -0.071  0.00  0.00    +0.430 HD
ATOM     15  H   LIG    1        9.430   8.863  -1.680  0.00  0.00    +0.430 HD
ATOM     16  C   LIG    1        6.628   9.155   0.095  0.00  0.00    +0.330 C 
ENDBRANCH   1   8
BRANCH   4  17
ATOM     17  N   LIG    1        3.688   1.950   0.157  0.00  0.00    -0.510 N 
ATOM     18  C   LIG    1        4.636   0.880   0.477  0.00  0.00    +0.290 C 
ATOM     19  C   LIG    1        3.821  -0.421   0.397  0.00  0.00    +0.110 C 
ATOM     20  C   LIG    1        2.425   0.027   0.024  0.00  0.00    -0.100 A 
ATOM     21  C   LIG    1        1.269  -0.697  -0.188  0.00  0.00    +0.040 A 
ATOM     22  C   LIG    1        0.091  -0.045  -0.525  0.00  0.00    +0.160 A 
ATOM     23  C   LIG    1        0.081   1.337  -0.649  0.00  0.00    +0.000 A 
ATOM     24  C   LIG    1        1.235   2.059  -0.437  0.00  0.00    +0.060 A 
ATOM     25  C   LIG    1        2.423   1.409  -0.097  0.00  0.00    +0.100 A 
BRANCH  22  26
ATOM     26  N   LIG    1       -1.083  -0.780  -0.740  0.00  0.00    -0.560 N 
ATOM     27  C   LIG    1       -2.378  -0.186  -1.094  0.00  0.00    +0.260 C 
ATOM     28  C   LIG    1       -3.226  -1.354  -1.649  0.00  0.00    +0.060 C 
ATOM     29  C   LIG    1       -2.579  -2.572  -0.949  0.00  0.00    +0.070 C 
ATOM     30  C   LIG    1       -1.169  -2.118  -0.643  0.00  0.00    +0.520 C 
ATOM     31  O   LIG    1       -0.250  -2.854  -0.352  0.00  0.00    -0.510 OA
ENDBRANCH  22  26
ENDBRANCH   4  17
TORSDOF 3
