REMARK  Name = ZINCvU00000005wG.0
REMARK                            x       y       z     vdW  Elec       q    Type
REMARK                         _______ _______ _______ _____ _____    ______ ____
ROOT
ATOM      1  C   LIG    1        3.354   3.829  -0.937  0.00  0.00    +0.160 A 
ATOM      2  N   LIG    1        4.270   4.702  -0.586  0.00  0.00    -0.280 NA
ATOM      3  N   LIG    1        3.945   5.263   0.524  0.00  0.00    -0.250 NA
ATOM      4  C   LIG    1        2.797   4.787   0.949  0.00  0.00    +0.250 A 
ATOM      5  N   LIG    1        2.384   3.849   0.029  0.00  0.00    -0.410 N 
ENDROOT
BRANCH   5   6
ATOM      6  C   LIG    1        1.212   3.080   0.070  0.00  0.00    +0.090 A 
ATOM      7  C   LIG    1        1.289   1.704   0.238  0.00  0.00    +0.040 A 
ATOM      8  C   LIG    1        0.133   0.949   0.279  0.00  0.00    +0.030 A 
ATOM      9  C   LIG    1       -1.099   1.562   0.147  0.00  0.00    -0.060 A 
ATOM     10  C   LIG    1       -1.179   2.933  -0.016  0.00  0.00    +0.030 A 
ATOM     11  C   LIG    1       -2.358   0.735   0.185  0.00  0.00    +0.100 C 
ATOM     12  C   LIG    1       -0.027   3.693  -0.057  0.00  0.00    +0.040 A 
ENDBRANCH   5   6
BRANCH   4  13
ATOM     13  C   LIG    1        2.085   5.182   2.181  0.00  0.00    -0.060 A 
ATOM     14  C   LIG    1        1.572   4.208   3.037  0.00  0.00    +0.080 A 
ATOM     15  C   LIG    1        0.912   4.582   4.190  0.00  0.00    -0.030 A 
ATOM     16  C   LIG    1        0.748   5.922   4.495  0.00  0.00    +0.070 A 
ATOM     17  C   LIG    1        1.248   6.897   3.652  0.00  0.00    -0.070 A 
ATOM     18  C   LIG    1        1.917   6.537   2.494  0.00  0.00    +0.170 A 
BRANCH  18  19
ATOM     19  O   LIG    1        2.409   7.495   1.665  0.00  0.00    -0.300 OA
ATOM     20  C   LIG    1        2.200   8.855   2.049  0.00  0.00    +0.240 C 
ENDBRANCH  18  19
ENDBRANCH   4  13
BRANCH   1  21
ATOM     21  S   LIG    1        3.370   2.820  -2.382  0.00  0.00    +0.050 S 
BRANCH  21  22
ATOM     22  C   LIG    1        4.930   3.360  -3.125  0.00  0.00    +0.160 C 
ATOM     23  C   LIG    1        6.093   2.966  -2.212  0.00  0.00    +0.100 C 
BRANCH  22  27
ATOM     24  C   LIG    1        5.493   2.310  -6.511  0.00  0.00    +0.180 A 
ATOM     25  N   LIG    1        5.116   1.211  -5.931  0.00  0.00    -0.370 NA
ATOM     26  O   LIG    1        4.886   1.413  -4.757  0.00  0.00    +0.090 OA
ATOM     27  C   LIG    1        5.101   2.700  -4.469  0.00  0.00    +0.190 A 
ATOM     28  N   LIG    1        5.483   3.281  -5.581  0.00  0.00    -0.460 NA
BRANCH  24  29
ATOM     29  C   LIG    1        5.867   2.470  -7.962  0.00  0.00    +0.160 C 
BRANCH  29  31
ATOM     30  C   LIG    1        5.001   2.986 -10.248  0.00  0.00    +0.030 C 
ATOM     31  C   LIG    1        4.620   2.824  -8.775  0.00  0.00    +0.020 C 
ENDBRANCH  29  31
ENDBRANCH  24  29
ENDBRANCH  22  27
ENDBRANCH  21  22
ENDBRANCH   1  21
TORSDOF 8
