REMARK  Name = ZINCvS0000000q3c.0
REMARK                            x       y       z     vdW  Elec       q    Type
REMARK                         _______ _______ _______ _____ _____    ______ ____
ROOT
ATOM      1  C   LIG    1        3.617   2.232   0.010  0.00  0.00    +0.320 C 
ENDROOT
BRANCH   1   2
ATOM      2  C   LIG    1        2.341   1.430   0.026  0.00  0.00    -0.150 A 
ATOM      3  C   LIG    1        1.127   2.065   0.190  0.00  0.00    +0.060 A 
ATOM      4  C   LIG    1       -0.044   1.330   0.206  0.00  0.00    +0.040 A 
ATOM      5  C   LIG    1       -0.006  -0.045   0.058  0.00  0.00    +0.060 A 
ATOM      6  C   LIG    1        1.203  -0.691  -0.107  0.00  0.00    +0.050 A 
ATOM      7  C   LIG    1        2.386   0.045  -0.123  0.00  0.00    -0.050 A 
BRANCH   7   8
ATOM      8  C   LIG    1        3.688  -0.644  -0.299  0.00  0.00    -0.040 A 
ATOM      9  C   LIG    1        4.535  -0.282  -1.345  0.00  0.00    +0.020 A 
ATOM     10  C   LIG    1        5.748  -0.922  -1.501  0.00  0.00    +0.050 A 
ATOM     11  C   LIG    1        6.118  -1.929  -0.627  0.00  0.00    -0.150 A 
ATOM     12  C   LIG    1        5.280  -2.295   0.410  0.00  0.00    +0.050 A 
ATOM     13  C   LIG    1        4.067  -1.658   0.578  0.00  0.00    +0.030 A 
BRANCH  11  14
ATOM     14  C   LIG    1        7.441  -2.629  -0.806  0.00  0.00    +0.320 C 
BRANCH  14  15
ATOM     15  N   LIG    1        7.265  -3.792  -1.685  0.00  0.00    -0.390 N 
ATOM     16  C   LIG    1        6.391  -4.774  -1.028  0.00  0.00    +0.320 C 
ATOM     17  C   LIG    1        8.572  -4.404  -1.956  0.00  0.00    +0.340 C 
ATOM     18  H   LIG    1        6.845  -3.497  -2.554  0.00  0.00    +0.430 HD
ENDBRANCH  14  15
ENDBRANCH  11  14
ENDBRANCH   7   8
ENDBRANCH   1   2
BRANCH   1  19
ATOM     19  N   LIG    1        4.333   2.039   1.277  0.00  0.00    -0.510 N 
ATOM     20  H   LIG    1        4.629   1.077   1.353  0.00  0.00    +0.420 HD
ATOM     21  H   LIG    1        3.722   2.264   2.047  0.00  0.00    +0.430 HD
BRANCH  19  23
ATOM     22  C   LIG    1        6.496   2.494   0.223  0.00  0.00    +0.090 C 
ATOM     23  C   LIG    1        5.511   2.917   1.314  0.00  0.00    +0.230 C 
BRANCH  23  24
ATOM     24  C   LIG    1        6.176   2.809   2.661  0.00  0.00    -0.160 A 
ATOM     25  C   LIG    1        6.277   1.579   3.285  0.00  0.00    +0.030 A 
ATOM     26  C   LIG    1        6.891   1.477   4.518  0.00  0.00    +0.010 A 
ATOM     27  C   LIG    1        7.398   2.613   5.136  0.00  0.00    +0.200 A 
ATOM     28  C   LIG    1        7.290   3.847   4.510  0.00  0.00    +0.050 A 
ATOM     29  C   LIG    1        6.679   3.942   3.275  0.00  0.00    +0.090 A 
BRANCH  27  30
ATOM     30  N   LIG    1        8.017   2.513   6.390  0.00  0.00    -0.350 N 
ATOM     31  C   LIG    1        8.190   1.393   7.118  0.00  0.00    +0.500 A 
ATOM     32  N   LIG    1        8.812   1.720   8.222  0.00  0.00    -0.520 NA
ATOM     33  C   LIG    1        9.044   3.032   8.239  0.00  0.00    +0.460 A 
ATOM     34  N   LIG    1        8.576   3.561   7.139  0.00  0.00    -0.310 NA
ENDBRANCH  27  30
ENDBRANCH  23  24
ENDBRANCH  19  23
ENDBRANCH   1  19
TORSDOF 8
