REMARK  Name = ZINCvU0000000H6K.0
REMARK                            x       y       z     vdW  Elec       q    Type
REMARK                         _______ _______ _______ _____ _____    ______ ____
ROOT
ATOM      1  C   LIG    1       -1.185   3.777  -0.298  0.00  0.00    -0.090 A 
ATOM      2  C   LIG    1       -0.054   4.590  -0.383  0.00  0.00    +0.040 A 
ATOM      3  C   LIG    1        1.190   4.021  -0.561  0.00  0.00    +0.100 A 
ATOM      4  C   LIG    1        1.312   2.636  -0.654  0.00  0.00    -0.150 A 
ATOM      5  C   LIG    1        2.647   2.015  -0.839  0.00  0.00    +0.530 C 
ATOM      6  O   LIG    1        2.678   0.687  -1.119  0.00  0.00    -0.350 OA
ATOM      7  C   LIG    1        1.738  -0.114  -0.345  0.00  0.00    +0.240 C 
ATOM      8  C   LIG    1        0.310   0.323  -0.677  0.00  0.00    +0.110 C 
ATOM      9  O   LIG    1        3.667   2.667  -0.746  0.00  0.00    -0.440 OA
ATOM     10  C   LIG    1        0.183   1.820  -0.572  0.00  0.00    -0.040 A 
ATOM     11  C   LIG    1       -1.061   2.391  -0.399  0.00  0.00    +0.070 A 
ENDROOT
BRANCH   7  12
ATOM     12  C   LIG    1        1.912  -1.569  -0.693  0.00  0.00    -0.100 A 
ATOM     13  C   LIG    1        2.236  -1.938  -1.985  0.00  0.00    +0.040 A 
ATOM     14  C   LIG    1        2.401  -3.273  -2.303  0.00  0.00    +0.010 A 
ATOM     15  C   LIG    1        2.232  -4.241  -1.330  0.00  0.00    +0.020 A 
ATOM     16  C   LIG    1        1.903  -3.873  -0.039  0.00  0.00    +0.010 A 
ATOM     17  C   LIG    1        1.743  -2.537   0.280  0.00  0.00    +0.030 A 
ENDBRANCH   7  12
BRANCH   1  20
ATOM     18  C   LIG    1       -1.491   6.051   1.345  0.00  0.00    +0.300 C 
ATOM     19  N   LIG    1       -2.667   5.441   0.720  0.00  0.00    -0.600 N 
ATOM     20  C   LIG    1       -2.520   4.387  -0.106  0.00  0.00    +0.560 C 
ATOM     21  O   LIG    1       -3.484   3.937  -0.694  0.00  0.00    -0.510 OA
BRANCH  19  22
ATOM     22  C   LIG    1       -4.003   5.978   0.993  0.00  0.00    +0.430 C 
BRANCH  22  23
ATOM     23  C   LIG    1       -4.590   5.278   2.192  0.00  0.00    +0.060 A 
ATOM     24  N   LIG    1       -4.442   5.672   3.400  0.00  0.00    -0.450 NA
ATOM     25  C   LIG    1       -5.027   4.950   4.374  0.00  0.00    +0.080 A 
ATOM     26  C   LIG    1       -5.031   5.155   5.768  0.00  0.00    +0.080 A 
ATOM     27  C   LIG    1       -5.688   4.291   6.591  0.00  0.00    +0.030 A 
ATOM     28  C   LIG    1       -6.365   3.196   6.074  0.00  0.00    +0.040 A 
ATOM     29  C   LIG    1       -6.379   2.970   4.716  0.00  0.00    +0.060 A 
ATOM     30  C   LIG    1       -5.712   3.843   3.860  0.00  0.00    -0.190 A 
ATOM     31  S   LIG    1       -5.529   3.855   2.109  0.00  0.00    +0.140 S 
ENDBRANCH  22  23
ENDBRANCH  19  22
ENDBRANCH   1  20
TORSDOF 4
