REMARK  Name = ZINCpe00000y6HkT.0
REMARK                            x       y       z     vdW  Elec       q    Type
REMARK                         _______ _______ _______ _____ _____    ______ ____
ROOT
ATOM      1  C   LIG    1       -0.247  -0.040   2.666  0.00  0.00    +0.040 C 
ATOM      2  C   LIG    1       -0.780   0.723   1.452  0.00  0.00    +0.180 C 
ATOM      3  C   LIG    1       -0.114   0.189   0.182  0.00  0.00    +0.030 C 
ATOM      4  C   LIG    1       -0.623   0.979  -1.028  0.00  0.00    +0.290 C 
ATOM      5  N   LIG    1       -2.091   0.922  -1.047  0.00  0.00    -0.590 N 
ATOM      6  C   LIG    1       -2.829   1.327   0.156  0.00  0.00    +0.280 C 
ATOM      7  C   LIG    1       -2.747   0.505  -2.148  0.00  0.00    +0.580 C 
ATOM      8  O   LIG    1       -3.949   0.330  -2.109  0.00  0.00    -0.520 OA
ATOM      9  C   LIG    1       -2.296   0.533   1.353  0.00  0.00    +0.040 C 
ENDROOT
BRANCH   7  10
ATOM     10  C   LIG    1       -2.003   0.261  -3.406  0.00  0.00    +0.030 A 
ATOM     11  C   LIG    1       -2.639  -0.349  -4.487  0.00  0.00    +0.290 A 
ATOM     12  N   LIG    1       -1.972  -0.564  -5.606  0.00  0.00    -0.440 NA
ATOM     13  C   LIG    1       -0.705  -0.202  -5.702  0.00  0.00    +0.260 A 
ATOM     14  C   LIG    1       -0.069   0.405  -4.628  0.00  0.00    +0.230 A 
ATOM     15  N   LIG    1       -0.729   0.628  -3.510  0.00  0.00    -0.410 NA
ENDBRANCH   7  10
BRANCH   2  16
ATOM     16  N   LIG    1       -0.475   2.149   1.601  0.00  0.00    -0.720 N 
ATOM     17  H   LIG    1        0.075   2.599   0.940  0.00  0.00    +0.400 HD
ATOM     18  C   LIG    1       -0.960   2.835   2.655  0.00  0.00    +0.570 C 
ATOM     19  O   LIG    1       -1.649   2.271   3.482  0.00  0.00    -0.530 OA
BRANCH  18  20
ATOM     20  C   LIG    1       -0.653   4.273   2.804  0.00  0.00    -0.140 A 
ATOM     21  C   LIG    1        0.137   4.931   1.861  0.00  0.00    +0.220 A 
ATOM     22  N   LIG    1        0.413   6.213   1.991  0.00  0.00    -0.440 NA
ATOM     23  C   LIG    1       -0.038   6.925   3.004  0.00  0.00    +0.210 A 
ATOM     24  C   LIG    1       -0.832   6.346   3.988  0.00  0.00    +0.160 A 
ATOM     25  C   LIG    1       -1.155   4.998   3.891  0.00  0.00    +0.050 A 
BRANCH  24  26
ATOM     26  N   LIG    1       -1.304   7.112   5.058  0.00  0.00    -0.870 N 
ATOM     27  H   LIG    1       -1.857   6.702   5.741  0.00  0.00    +0.400 HD
ATOM     28  H   LIG    1       -1.078   8.054   5.117  0.00  0.00    +0.400 HD
ENDBRANCH  24  26
ENDBRANCH  18  20
ENDBRANCH   2  16
TORSDOF 4
