REMARK  Name = ZINCnE000004Rcyp.0
REMARK                            x       y       z     vdW  Elec       q    Type
REMARK                         _______ _______ _______ _____ _____    ______ ____
ROOT
ATOM      1  C   LIG    1       -0.013   1.086   0.008  0.00  0.00    +0.030 C 
ATOM      2  C   LIG    1       -0.729   1.579   1.267  0.00  0.00    +0.050 C 
ENDROOT
BRANCH   2   3
ATOM      3  C   LIG    1       -0.749   3.086   1.275  0.00  0.00    +0.520 C 
ATOM      4  O   LIG    1       -0.221   3.698   2.188  0.00  0.00    -0.670 OA
ATOM      5  O   LIG    1       -1.294   3.693   0.369  0.00  0.00    -0.690 OA
ENDBRANCH   2   3
BRANCH   2   6
ATOM      6  O   LIG    1       -0.038   1.106   2.425  0.00  0.00    -0.290 OA
BRANCH   6   7
ATOM      7  C   LIG    1        1.257   1.487   2.568  0.00  0.00    +0.350 A 
ATOM      8  N   LIG    1        1.816   2.263   1.655  0.00  0.00    -0.470 NA
ATOM      9  C   LIG    1        3.072   2.657   1.756  0.00  0.00    +0.290 A 
ATOM     10  C   LIG    1        3.852   2.270   2.827  0.00  0.00    -0.070 A 
ATOM     11  C   LIG    1        3.304   1.456   3.809  0.00  0.00    +0.060 A 
ATOM     12  C   LIG    1        1.981   1.063   3.678  0.00  0.00    +0.000 A 
ATOM     13  F   LIG    1        1.405   0.276   4.612  0.00  0.00    -0.130 F 
ENDBRANCH   6   7
ENDBRANCH   2   6
BRANCH   2  14
ATOM     14  C   LIG    1       -2.164   1.050   1.278  0.00  0.00    +0.150 C 
BRANCH  14  15
ATOM     15  C   LIG    1       -2.906   1.634   2.452  0.00  0.00    -0.150 A 
ATOM     16  C   LIG    1       -3.071   1.076   3.659  0.00  0.00    +0.200 A 
ATOM     17  O   LIG    1       -3.789   1.890   4.452  0.00  0.00    -0.200 OA
ATOM     18  C   LIG    1       -4.128   3.020   3.800  0.00  0.00    +0.050 A 
ATOM     19  C   LIG    1       -4.848   4.151   4.162  0.00  0.00    -0.010 A 
ATOM     20  C   LIG    1       -5.033   5.170   3.252  0.00  0.00    +0.030 A 
ATOM     21  C   LIG    1       -4.507   5.080   1.972  0.00  0.00    -0.030 A 
ATOM     22  C   LIG    1       -3.789   3.966   1.592  0.00  0.00    +0.120 A 
ATOM     23  C   LIG    1       -3.589   2.932   2.505  0.00  0.00    -0.110 A 
ENDBRANCH  14  15
ENDBRANCH   2  14
TORSDOF 5
