REMARK  Name = ZINCkj00000kIZ42.0
REMARK                            x       y       z     vdW  Elec       q    Type
REMARK                         _______ _______ _______ _____ _____    ______ ____
ROOT
ATOM      1  C   LIG    1       -2.962   0.569  -1.095  0.00  0.00    +0.070 C 
ATOM      2  C   LIG    1       -2.867   1.611   0.021  0.00  0.00    -0.020 C 
ATOM      3  C   LIG    1       -4.264   1.897   0.625  0.00  0.00    +0.290 C 
ATOM      4  N   LIG    1       -3.951   2.393   1.985  0.00  0.00    -0.640 N 
ATOM      5  C   LIG    1       -2.829   1.566   2.469  0.00  0.00    +0.280 C 
ATOM      6  C   LIG    1       -4.566   3.394   2.646  0.00  0.00    +0.540 C 
ATOM      7  O   LIG    1       -4.203   3.696   3.763  0.00  0.00    -0.490 OA
ATOM      8  C   LIG    1       -2.078   1.051   1.227  0.00  0.00    +0.170 C 
ENDROOT
BRANCH   8   9
ATOM      9  N   LIG    1       -0.700   1.560   1.217  0.00  0.00    -0.380 N 
ATOM     10  C   LIG    1        0.010   1.073   2.407  0.00  0.00    +0.330 C 
ATOM     11  C   LIG    1       -0.013   1.086   0.008  0.00  0.00    +0.330 C 
ATOM     12  H   LIG    1       -0.714   2.568   1.222  0.00  0.00    +0.430 HD
ENDBRANCH   8   9
BRANCH   6  13
ATOM     13  C   LIG    1       -5.703   4.138   1.996  0.00  0.00    +0.190 C 
BRANCH  13  14
ATOM     14  C   LIG    1       -6.212   5.200   2.938  0.00  0.00    +0.040 A 
ATOM     15  C   LIG    1       -6.323   6.509   2.659  0.00  0.00    +0.140 A 
ATOM     16  N   LIG    1       -6.830   7.135   3.793  0.00  0.00    -0.420 N 
ATOM     17  C   LIG    1       -7.182   8.399   4.210  0.00  0.00    +0.210 A 
ATOM     18  C   LIG    1       -7.646   8.556   5.437  0.00  0.00    +0.020 A 
ATOM     19  S   LIG    1       -7.644   6.936   6.159  0.00  0.00    +0.170 S 
ATOM     20  C   LIG    1       -6.999   6.146   4.712  0.00  0.00    +0.160 A 
ATOM     21  N   LIG    1       -6.635   4.997   4.193  0.00  0.00    -0.430 NA
ENDBRANCH  13  14
ENDBRANCH   6  13
TORSDOF 3
