REMARK  Name = ZINCkj00000xkkNz.0
REMARK                            x       y       z     vdW  Elec       q    Type
REMARK                         _______ _______ _______ _____ _____    ______ ____
ROOT
ATOM      1  C   LIG    1       -5.731   1.429  -0.627  0.00  0.00    +0.330 C 
ATOM      2  N   LIG    1       -4.683   0.812   0.199  0.00  0.00    -0.380 N 
ATOM      3  C   LIG    1       -5.091   0.844   1.609  0.00  0.00    +0.270 C 
ATOM      4  C   LIG    1       -4.044   0.119   2.457  0.00  0.00    +0.110 C 
ATOM      5  C   LIG    1       -2.690   0.810   2.299  0.00  0.00    +0.160 C 
ATOM      6  O   LIG    1       -2.754   2.136   2.824  0.00  0.00    -0.370 OA
ATOM      7  C   LIG    1       -1.510   2.840   2.787  0.00  0.00    +0.230 C 
ATOM      8  C   LIG    1       -1.057   2.994   1.336  0.00  0.00    +0.280 C 
ATOM      9  N   LIG    1       -1.082   1.673   0.690  0.00  0.00    -0.600 N 
ATOM     10  C   LIG    1       -0.014   1.211   0.009  0.00  0.00    +0.580 C 
ATOM     11  O   LIG    1       -0.079   0.146  -0.573  0.00  0.00    -0.490 OA
ATOM     12  C   LIG    1       -2.309   0.867   0.816  0.00  0.00    +0.230 C 
ATOM     13  C   LIG    1       -3.429   1.554   0.030  0.00  0.00    +0.250 C 
ATOM     14  H   LIG    1       -4.549  -0.145  -0.090  0.00  0.00    +0.430 HD
ENDROOT
BRANCH  10  15
ATOM     15  C   LIG    1        1.235   2.005  -0.036  0.00  0.00    +0.100 A 
ATOM     16  N   LIG    1        1.172   3.326  -0.146  0.00  0.00    -0.450 NA
ATOM     17  C   LIG    1        2.257   4.068  -0.184  0.00  0.00    +0.290 A 
ATOM     18  C   LIG    1        3.516   3.492  -0.121  0.00  0.00    +0.030 A 
ATOM     19  C   LIG    1        3.629   2.116  -0.010  0.00  0.00    +0.110 A 
ATOM     20  C   LIG    1        2.468   1.358   0.033  0.00  0.00    -0.100 A 
ATOM     21 BR   LIG    1        2.557  -0.525   0.183  0.00  0.00    +0.000 Br
ENDBRANCH  10  15
TORSDOF 1
