REMARK  Name = ZINCkj00000xkkNz.1
REMARK                            x       y       z     vdW  Elec       q    Type
REMARK                         _______ _______ _______ _____ _____    ______ ____
ROOT
ATOM      1  C   LIG    1        0.545  -0.141   1.703  0.00  0.00    +0.320 C 
ATOM      2  N   LIG    1       -0.154   0.192   0.455  0.00  0.00    -0.380 N 
ATOM      3  C   LIG    1       -1.580   0.406   0.737  0.00  0.00    +0.270 C 
ATOM      4  C   LIG    1       -1.730   1.495   1.801  0.00  0.00    +0.090 C 
ATOM      5  C   LIG    1       -1.107   2.795   1.294  0.00  0.00    +0.150 C 
ATOM      6  O   LIG    1       -1.828   3.271   0.157  0.00  0.00    -0.370 OA
ATOM      7  C   LIG    1       -1.363   4.526  -0.347  0.00  0.00    +0.240 C 
ATOM      8  C   LIG    1        0.089   4.377  -0.815  0.00  0.00    +0.270 C 
ATOM      9  N   LIG    1        0.873   3.779   0.277  0.00  0.00    -0.600 N 
ATOM     10  C   LIG    1        2.027   4.337   0.691  0.00  0.00    +0.570 C 
ATOM     11  O   LIG    1        2.475   5.307   0.113  0.00  0.00    -0.470 OA
ATOM     12  C   LIG    1        0.355   2.550   0.904  0.00  0.00    +0.230 C 
ATOM     13  C   LIG    1        0.424   1.413  -0.118  0.00  0.00    +0.260 C 
ATOM     14  H   LIG    1       -0.052  -0.568  -0.201  0.00  0.00    +0.430 HD
ENDROOT
BRANCH  10  15
ATOM     15  C   LIG    1        2.751   3.768   1.852  0.00  0.00    +0.100 A 
ATOM     16  N   LIG    1        2.814   2.451   2.007  0.00  0.00    -0.470 NA
ATOM     17  C   LIG    1        3.450   1.906   3.020  0.00  0.00    +0.280 A 
ATOM     18  C   LIG    1        4.073   2.692   3.977  0.00  0.00    +0.030 A 
ATOM     19  C   LIG    1        4.027   4.071   3.858  0.00  0.00    +0.120 A 
ATOM     20  C   LIG    1        3.354   4.620   2.776  0.00  0.00    -0.100 A 
ATOM     21 BR   LIG    1        3.256   6.496   2.558  0.00  0.00    +0.010 Br
ENDBRANCH  10  15
TORSDOF 1
