REMARK  Name = ZINCpk000000oNcl.0
REMARK                            x       y       z     vdW  Elec       q    Type
REMARK                         _______ _______ _______ _____ _____    ______ ____
ROOT
ATOM      1  N   LIG    1       -2.048   8.270   2.617  0.00  0.00    -0.610 N 
ATOM      2  C   LIG    1       -1.631   7.949   1.376  0.00  0.00    +0.710 C 
ATOM      3  N   LIG    1       -0.657   7.034   1.207  0.00  0.00    -0.740 N 
ATOM      4  H   LIG    1       -0.255   6.606   1.979  0.00  0.00    +0.400 HD
ATOM      5  O   LIG    1       -2.135   8.486   0.408  0.00  0.00    -0.590 OA
ENDROOT
BRANCH   1   6
ATOM      6  C   LIG    1       -1.441   7.623   3.783  0.00  0.00    +0.270 C 
ATOM      7  C   LIG    1       -0.237   8.443   4.252  0.00  0.00    +0.020 C 
ENDBRANCH   1   6
BRANCH   1   8
ATOM      8  C   LIG    1       -3.107   9.264   2.800  0.00  0.00    +0.350 C 
BRANCH   8  11
ATOM      9  N   LIG    1       -5.576   9.297   2.956  0.00  0.00    -0.730 N 
ATOM     10  H   LIG    1       -5.525  10.260   3.067  0.00  0.00    +0.400 HD
ATOM     11  C   LIG    1       -4.448   8.576   2.801  0.00  0.00    +0.490 C 
ATOM     12  O   LIG    1       -4.512   7.373   2.662  0.00  0.00    -0.530 OA
BRANCH   9  14
ATOM     13  C   LIG    1       -7.986   9.667   3.148  0.00  0.00    +0.020 C 
ATOM     14  C   LIG    1       -6.879   8.628   2.957  0.00  0.00    +0.250 C 
ENDBRANCH   9  14
ENDBRANCH   8  11
ENDBRANCH   1   8
BRANCH   3  15
ATOM     15  C   LIG    1       -0.204   6.686  -0.142  0.00  0.00    +0.340 C 
BRANCH  15  16
ATOM     16  C   LIG    1        0.884   5.648  -0.055  0.00  0.00    -0.080 A 
ATOM     17  C   LIG    1        2.207   6.040   0.037  0.00  0.00    +0.010 A 
ATOM     18  C   LIG    1        3.209   5.090   0.118  0.00  0.00    +0.040 A 
ATOM     19  C   LIG    1        2.890   3.746   0.112  0.00  0.00    +0.010 A 
ATOM     20  C   LIG    1        1.563   3.349   0.013  0.00  0.00    +0.160 A 
ATOM     21  C   LIG    1        0.560   4.305  -0.067  0.00  0.00    -0.010 A 
BRANCH  20  22
ATOM     22  N   LIG    1        1.237   1.988   0.001  0.00  0.00    -0.560 N 
ATOM     23  C   LIG    1       -0.134   1.464   0.027  0.00  0.00    +0.260 C 
ATOM     24  C   LIG    1       -0.022  -0.006  -0.434  0.00  0.00    +0.060 C 
ATOM     25  C   LIG    1        1.437  -0.347  -0.049  0.00  0.00    +0.070 C 
ATOM     26  C   LIG    1        2.140   0.993  -0.036  0.00  0.00    +0.520 C 
ATOM     27  O   LIG    1        3.343   1.146  -0.052  0.00  0.00    -0.510 OA
ENDBRANCH  20  22
ENDBRANCH  15  16
ENDBRANCH   3  15
TORSDOF 7
