REMARK  Name = ZINCqH0000008spA.0
REMARK                            x       y       z     vdW  Elec       q    Type
REMARK                         _______ _______ _______ _____ _____    ______ ____
ROOT
ATOM      1  C   LIG    1        0.907  -0.629  -0.257  0.00  0.00    +0.310 A 
ATOM      2  C   LIG    1       -0.228   0.177  -0.289  0.00  0.00    -0.070 A 
ATOM      3  C   LIG    1       -0.123   1.522  -0.019  0.00  0.00    +0.220 A 
ATOM      4  C   LIG    1        1.126   2.074   0.289  0.00  0.00    -0.220 A 
ATOM      5  C   LIG    1        2.260   1.256   0.319  0.00  0.00    +0.210 A 
ATOM      6  C   LIG    1        2.149  -0.078   0.050  0.00  0.00    -0.130 A 
ENDROOT
BRANCH   6   7
ATOM      7  N   LIG    1        3.351  -0.941   0.083  0.00  0.00    +0.040 N 
ATOM      8  O   LIG    1        4.416  -0.518  -0.331  0.00  0.00    -0.140 OA
ATOM      9  O   LIG    1        3.276  -2.073   0.525  0.00  0.00    -0.180 OA
ENDBRANCH   6   7
BRANCH   1  10
ATOM     10  N   LIG    1        0.800  -1.988  -0.530  0.00  0.00    -0.710 N 
ATOM     11  H   LIG    1        1.600  -2.532  -0.605  0.00  0.00    +0.410 HD
BRANCH  10  13
ATOM     12  C   LIG    1       -1.091  -2.978   0.664  0.00  0.00    +0.050 C 
ATOM     13  C   LIG    1       -0.520  -2.599  -0.704  0.00  0.00    +0.280 C 
BRANCH  13  14
ATOM     14  C   LIG    1       -0.393  -3.835  -1.556  0.00  0.00    -0.100 A 
ATOM     15  C   LIG    1        0.684  -4.684  -1.386  0.00  0.00    +0.010 A 
ATOM     16  C   LIG    1        0.798  -5.820  -2.165  0.00  0.00    +0.020 A 
ATOM     17  C   LIG    1       -0.160  -6.103  -3.120  0.00  0.00    +0.020 A 
ATOM     18  C   LIG    1       -1.235  -5.252  -3.293  0.00  0.00    +0.010 A 
ATOM     19  C   LIG    1       -1.352  -4.117  -2.512  0.00  0.00    +0.020 A 
ENDBRANCH  13  14
ENDBRANCH  10  13
ENDBRANCH   1  10
BRANCH   4  20
ATOM     20  C   LIG    1        1.245   3.515   0.580  0.00  0.00    +0.500 C 
ATOM     21  O   LIG    1        2.344   4.017   0.724  0.00  0.00    -0.450 OA
BRANCH  20  22
ATOM     22  C   LIG    1        0.035   4.346   0.695  0.00  0.00    +0.120 A 
ATOM     23  N   LIG    1       -1.198   3.950   0.455  0.00  0.00    -0.440 NA
ATOM     24  C   LIG    1       -2.030   4.968   0.663  0.00  0.00    +0.160 A 
ATOM     25  C   LIG    1       -1.300   6.045   1.048  0.00  0.00    +0.170 A 
ATOM     26  N   LIG    1       -0.002   5.659   1.074  0.00  0.00    -0.420 N 
ATOM     27  C   LIG    1        1.147   6.492   1.438  0.00  0.00    +0.340 C 
ENDBRANCH  20  22
ENDBRANCH   4  20
TORSDOF 6
