REMARK  Name = ZINCrg00000IZqGm.0
REMARK                            x       y       z     vdW  Elec       q    Type
REMARK                         _______ _______ _______ _____ _____    ______ ____
ROOT
ATOM      1  N   LIG    1        3.335   3.450  -1.020  0.00  0.00    -1.110 NA
ATOM      2  H   LIG    1        3.786   4.119  -0.482  0.00  0.00    +0.420 HD
ENDROOT
BRANCH   1   3
ATOM      3  C   LIG    1        4.117   2.454  -1.758  0.00  0.00    +0.230 C 
ATOM      4  C   LIG    1        4.444   1.278  -0.835  0.00  0.00    +0.010 C 
ATOM      5  C   LIG    1        5.231   0.223  -1.619  0.00  0.00    +0.290 C 
ATOM      6  N   LIG    1        6.409   0.863  -2.222  0.00  0.00    -0.570 N 
ATOM      7  C   LIG    1        6.214   2.058  -3.055  0.00  0.00    +0.290 C 
ATOM      8  C   LIG    1        5.416   3.092  -2.255  0.00  0.00    +0.020 C 
BRANCH   6   9
ATOM      9  C   LIG    1        7.681   0.348  -2.009  0.00  0.00    +0.350 A 
ATOM     10  N   LIG    1        7.868  -0.635  -1.156  0.00  0.00    -0.510 NA
ATOM     11  C   LIG    1        9.086  -1.134  -0.947  0.00  0.00    +0.190 A 
ATOM     12  C   LIG    1       10.169  -0.656  -1.595  0.00  0.00    +0.150 A 
ATOM     13  N   LIG    1       10.054   0.363  -2.494  0.00  0.00    -0.480 N 
ATOM     14  C   LIG    1       11.237   0.875  -3.191  0.00  0.00    +0.320 C 
ATOM     15  C   LIG    1        8.834   0.890  -2.737  0.00  0.00    +0.480 A 
ATOM     16  O   LIG    1        8.695   1.799  -3.539  0.00  0.00    -0.530 OA
ENDBRANCH   6   9
ENDBRANCH   1   3
BRANCH   1  17
ATOM     17  S   LIG    1        1.681   3.434  -1.106  0.00  0.00    +2.610 S 
ATOM     18  O   LIG    1        1.327   2.094  -0.792  0.00  0.00    -0.940 OA
ATOM     19  O   LIG    1        1.277   4.512  -0.274  0.00  0.00    -0.950 OA
BRANCH  17  24
ATOM     20  C   LIG    1       -0.212   3.861  -3.061  0.00  0.00    +0.180 C 
ATOM     21  C   LIG    1       -0.403   5.002  -4.090  0.00  0.00    +0.030 C 
ATOM     22  C   LIG    1        0.659   6.040  -3.652  0.00  0.00    +0.030 C 
ATOM     23  C   LIG    1        1.868   5.185  -3.220  0.00  0.00    +0.080 C 
ATOM     24  C   LIG    1        1.315   3.799  -2.845  0.00  0.00    -0.450 C 
BRANCH  20  25
ATOM     25  O   LIG    1       -0.692   2.624  -3.591  0.00  0.00    -0.370 OA
BRANCH  25  27
ATOM     26  C   LIG    1       -2.679   1.515  -4.404  0.00  0.00    +0.050 C 
ATOM     27  C   LIG    1       -2.061   2.353  -3.283  0.00  0.00    +0.140 C 
ATOM     28  C   LIG    1       -2.145   1.581  -1.965  0.00  0.00    +0.010 C 
ENDBRANCH  25  27
ENDBRANCH  20  25
ENDBRANCH  17  24
ENDBRANCH   1  17
TORSDOF 6
