REMARK  Name = ZINCvU0000000J2k.0
REMARK                            x       y       z     vdW  Elec       q    Type
REMARK                         _______ _______ _______ _____ _____    ______ ____
ROOT
ATOM      1  C   LIG    1       -2.242   2.539   0.218  0.00  0.00    +0.330 C 
ENDROOT
BRANCH   1   5
ATOM      2  C   LIG    1       -4.730  -0.932   0.066  0.00  0.00    +0.130 A 
ATOM      3  C   LIG    1       -4.518  -0.178  -1.080  0.00  0.00    -0.060 A 
ATOM      4  C   LIG    1       -3.717   0.946  -1.026  0.00  0.00    +0.060 A 
ATOM      5  C   LIG    1       -3.119   1.315   0.164  0.00  0.00    -0.140 A 
ATOM      6  C   LIG    1       -3.329   0.565   1.307  0.00  0.00    +0.060 A 
ATOM      7  C   LIG    1       -4.133  -0.557   1.261  0.00  0.00    -0.110 A 
ATOM      8  C   LIG    1       -4.361  -1.373   2.507  0.00  0.00    +0.100 C 
BRANCH   2   9
ATOM      9  O   LIG    1       -5.522  -2.035   0.017  0.00  0.00    -0.260 OA
BRANCH   9  15
ATOM     10  C   LIG    1       -9.228  -1.661  -3.136  0.00  0.00    +0.100 C 
ATOM     11  C   LIG    1       -7.879  -2.209  -2.749  0.00  0.00    -0.070 A 
ATOM     12  C   LIG    1       -7.204  -3.054  -3.609  0.00  0.00    +0.010 A 
ATOM     13  C   LIG    1       -5.966  -3.559  -3.257  0.00  0.00    -0.070 A 
ATOM     14  C   LIG    1       -5.400  -3.220  -2.043  0.00  0.00    +0.000 A 
ATOM     15  C   LIG    1       -6.076  -2.371  -1.177  0.00  0.00    +0.090 A 
ATOM     16  C   LIG    1       -5.233  -4.480  -4.197  0.00  0.00    +0.100 C 
ATOM     17  C   LIG    1       -7.321  -1.871  -1.531  0.00  0.00    +0.000 A 
ENDBRANCH   9  15
ENDBRANCH   2   9
ENDBRANCH   1   5
BRANCH   1  18
ATOM     18  N   LIG    1       -0.857   2.160  -0.070  0.00  0.00    -0.730 N 
ATOM     19  H   LIG    1       -0.636   1.234  -0.256  0.00  0.00    +0.400 HD
ATOM     20  C   LIG    1        0.110   3.099  -0.083  0.00  0.00    +0.510 C 
ATOM     21  O   LIG    1       -0.166   4.257   0.149  0.00  0.00    -0.540 OA
BRANCH  20  22
ATOM     22  C   LIG    1        1.534   2.711  -0.386  0.00  0.00    +0.060 C 
BRANCH  22  23
ATOM     23  C   LIG    1        2.424   3.954  -0.336  0.00  0.00    +0.040 C 
BRANCH  23  24
ATOM     24  C   LIG    1        3.870   3.560  -0.644  0.00  0.00    +0.260 C 
BRANCH  24  25
ATOM     25  N   LIG    1        4.721   4.751  -0.597  0.00  0.00    -0.730 N 
ATOM     26  H   LIG    1        4.334   5.616  -0.393  0.00  0.00    +0.400 HD
ATOM     27  C   LIG    1        6.043   4.644  -0.837  0.00  0.00    +0.590 C 
ATOM     28  O   LIG    1        6.529   3.558  -1.093  0.00  0.00    -0.530 OA
BRANCH  27  29
ATOM     29  C   LIG    1        6.896   5.835  -0.790  0.00  0.00    -0.270 A 
ATOM     30  C   LIG    1        8.243   5.856  -1.014  0.00  0.00    +0.100 A 
ATOM     31  C   LIG    1        8.794   7.111  -0.906  0.00  0.00    +0.000 A 
ATOM     32  C   LIG    1        7.929   8.086  -0.604  0.00  0.00    -0.050 A 
ATOM     33  S   LIG    1        6.346   7.469  -0.443  0.00  0.00    +0.200 S 
ENDBRANCH  27  29
ENDBRANCH  24  25
ENDBRANCH  23  24
ENDBRANCH  22  23
ENDBRANCH  20  22
ENDBRANCH   1  18
TORSDOF 9
