REMARK  Name = ZINCpk00000y6vyA.0
REMARK                            x       y       z     vdW  Elec       q    Type
REMARK                         _______ _______ _______ _____ _____    ______ ____
ROOT
ATOM      1  O   LIG    1        0.955   0.431  -2.373  0.00  0.00    -0.510 OA
ATOM      2  C   LIG    1       -0.046   1.108  -2.471  0.00  0.00    +0.510 C 
ATOM      3  N   LIG    1       -0.524   1.433  -3.689  0.00  0.00    -0.670 N 
ATOM      4  H   LIG    1       -1.361   1.917  -3.769  0.00  0.00    +0.420 HD
ENDROOT
BRANCH   3   5
ATOM      5  C   LIG    1        0.188   1.070  -4.840  0.00  0.00    +0.170 A 
ATOM      6  C   LIG    1        0.190   1.907  -5.948  0.00  0.00    +0.020 A 
ATOM      7  C   LIG    1        0.897   1.552  -7.080  0.00  0.00    +0.090 A 
ATOM      8  C   LIG    1        1.596   0.354  -7.114  0.00  0.00    +0.030 A 
ATOM      9  C   LIG    1        1.590  -0.485  -6.010  0.00  0.00    +0.050 A 
ATOM     10  C   LIG    1        0.888  -0.128  -4.875  0.00  0.00    +0.060 A 
BRANCH   8  11
ATOM     11  O   LIG    1        2.287   0.003  -8.231  0.00  0.00    -0.660 OA
BRANCH  11  12
ATOM     12  S   LIG    1        1.473  -0.802  -9.235  0.00  0.00    +2.740 S 
ATOM     13  F   LIG    1        1.475  -2.332  -8.734  0.00  0.00    -0.480 F 
ATOM     14  O   LIG    1        2.203  -0.778 -10.454  0.00  0.00    -0.920 OA
ATOM     15  O   LIG    1        0.132  -0.345  -9.123  0.00  0.00    -0.940 OA
ENDBRANCH  11  12
ENDBRANCH   8  11
ENDBRANCH   3   5
BRANCH   2  16
ATOM     16  C   LIG    1       -0.757   1.587  -1.232  0.00  0.00    +0.090 C 
BRANCH  16  17
ATOM     17  C   LIG    1       -0.015   1.084   0.008  0.00  0.00    +0.080 C 
BRANCH  17  18
ATOM     18  C   LIG    1       -0.736   1.570   1.267  0.00  0.00    -0.370 C 
BRANCH  18  19
ATOM     19  S   LIG    1        0.144   0.973   2.736  0.00  0.00    +2.630 S 
ATOM     20  O   LIG    1        1.408   1.611   2.854  0.00  0.00    -0.950 OA
ATOM     21  O   LIG    1        0.022  -0.438   2.852  0.00  0.00    -0.950 OA
BRANCH  19  22
ATOM     22  N   LIG    1       -0.732   1.564   4.011  0.00  0.00    -1.020 NA
ATOM     23  C   LIG    1       -0.512   2.857   4.676  0.00  0.00    +0.260 C 
ATOM     24  C   LIG    1       -1.545   2.967   5.817  0.00  0.00    +0.030 C 
ATOM     25  C   LIG    1       -1.912   1.486   6.096  0.00  0.00    +0.030 C 
ATOM     26  C   LIG    1       -1.858   0.879   4.671  0.00  0.00    +0.270 C 
ENDBRANCH  19  22
ENDBRANCH  18  19
ENDBRANCH  17  18
ENDBRANCH  16  17
ENDBRANCH   2  16
TORSDOF 8
