REMARK  Name = ZINCrD000000D7yT.0
REMARK                            x       y       z     vdW  Elec       q    Type
REMARK                         _______ _______ _______ _____ _____    ______ ____
ROOT
ATOM      1  N   LIG    1       -3.925   2.395   3.551  0.00  0.00    -1.000 NA
ATOM      2  C   LIG    1       -3.772   3.783   3.090  0.00  0.00    +0.310 C 
ATOM      3  C   LIG    1       -3.342   3.763   1.619  0.00  0.00    +0.180 C 
ATOM      4  N   LIG    1       -2.146   2.924   1.473  0.00  0.00    -0.530 NA
ATOM      5  C   LIG    1       -2.426   1.528   1.835  0.00  0.00    +0.170 C 
ATOM      6  C   LIG    1       -2.818   1.457   3.315  0.00  0.00    +0.300 C 
ENDROOT
BRANCH   1   8
ATOM      7  O   LIG    1       -4.933   0.841   5.183  0.00  0.00    -0.930 OA
ATOM      8  S   LIG    1       -5.309   1.902   4.315  0.00  0.00    +2.670 S 
ATOM      9  O   LIG    1       -5.961   3.081   4.767  0.00  0.00    -0.930 OA
BRANCH   8  10
ATOM     10  C   LIG    1       -6.358   1.193   3.089  0.00  0.00    -0.630 A 
ATOM     11  C   LIG    1       -6.088   1.396   1.749  0.00  0.00    +0.100 A 
ATOM     12  C   LIG    1       -6.908   0.836   0.786  0.00  0.00    +0.040 A 
ATOM     13  C   LIG    1       -8.003   0.082   1.165  0.00  0.00    +0.080 A 
ATOM     14  C   LIG    1       -8.276  -0.116   2.506  0.00  0.00    +0.070 A 
ATOM     15  C   LIG    1       -7.453   0.439   3.468  0.00  0.00    -0.090 A 
BRANCH  15  16
ATOM     16  C   LIG    1       -7.750   0.224   4.929  0.00  0.00    +0.480 C 
ATOM     17  F   LIG    1       -7.830   1.461   5.577  0.00  0.00    -0.170 F 
ATOM     18  F   LIG    1       -6.729  -0.539   5.505  0.00  0.00    -0.140 F 
ATOM     19  F   LIG    1       -8.968  -0.451   5.063  0.00  0.00    -0.170 F 
ENDBRANCH  15  16
ENDBRANCH   8  10
ENDBRANCH   1   8
BRANCH   4  20
ATOM     20  C   LIG    1       -1.602   3.015   0.112  0.00  0.00    +0.230 C 
BRANCH  20  21
ATOM     21  C   LIG    1       -0.252   2.346   0.064  0.00  0.00    -0.110 A 
ATOM     22  C   LIG    1        0.899   3.109   0.109  0.00  0.00    +0.060 A 
ATOM     23  C   LIG    1        2.137   2.496   0.060  0.00  0.00    +0.000 A 
ATOM     24  C   LIG    1        2.225   1.120  -0.035  0.00  0.00    +0.040 A 
ATOM     25  C   LIG    1        1.075   0.355  -0.081  0.00  0.00    -0.010 A 
ATOM     26  C   LIG    1       -0.166   0.968  -0.032  0.00  0.00    +0.100 A 
ATOM     27  F   LIG    1       -1.291   0.221  -0.076  0.00  0.00    -0.140 F 
ENDBRANCH  20  21
ENDBRANCH   4  20
TORSDOF 5
