REMARK  Name = ZINCrD0000071f3P.0
REMARK                            x       y       z     vdW  Elec       q    Type
REMARK                         _______ _______ _______ _____ _____    ______ ____
ROOT
ATOM      1  C   LIG    1       -0.112   6.470  -0.306  0.00  0.00    +0.380 C 
ENDROOT
BRANCH   1   6
ATOM      2  C   LIG    1       -1.561   9.806   0.447  0.00  0.00    +0.130 C 
ATOM      3  N   LIG    1       -0.238   9.817   1.095  0.00  0.00    -0.710 N 
ATOM      4  H   LIG    1        0.152  10.545   1.603  0.00  0.00    +0.440 HD
ATOM      5  C   LIG    1        0.323   8.620   0.846  0.00  0.00    +0.710 C 
ATOM      6  N   LIG    1       -0.469   7.827   0.114  0.00  0.00    -0.560 N 
ATOM      7  O   LIG    1        1.425   8.295   1.241  0.00  0.00    -0.540 OA
ATOM      8  C   LIG    1       -2.671   9.982   1.484  0.00  0.00    +0.090 C 
ATOM      9  C   LIG    1       -1.632   8.434  -0.193  0.00  0.00    +0.540 C 
ATOM     10  O   LIG    1       -2.546   7.976  -0.845  0.00  0.00    -0.460 OA
BRANCH   2  11
ATOM     11  C   LIG    1       -1.646  10.898  -0.621  0.00  0.00    +0.050 C 
BRANCH  11  12
ATOM     12  C   LIG    1       -1.337  12.256   0.013  0.00  0.00    +0.020 C 
BRANCH  12  14
ATOM     13  C   LIG    1       -1.236  14.719  -0.399  0.00  0.00    +0.020 C 
ATOM     14  C   LIG    1       -1.422  13.349  -1.055  0.00  0.00    -0.030 C 
ATOM     15  C   LIG    1       -0.324  13.130  -2.097  0.00  0.00    +0.010 C 
ENDBRANCH  12  14
ENDBRANCH  11  12
ENDBRANCH   2  11
ENDBRANCH   1   6
BRANCH   1  16
ATOM     16  C   LIG    1       -0.569   5.484   0.739  0.00  0.00    +0.510 C 
ATOM     17  N   LIG    1       -0.346   4.167   0.565  0.00  0.00    -0.670 N 
ATOM     18  H   LIG    1        0.177   3.859  -0.192  0.00  0.00    +0.410 HD
ATOM     19  O   LIG    1       -1.136   5.877   1.736  0.00  0.00    -0.500 OA
BRANCH  17  20
ATOM     20  C   LIG    1       -0.870   3.242   1.476  0.00  0.00    +0.200 A 
ATOM     21  C   LIG    1       -1.995   3.564   2.224  0.00  0.00    +0.030 A 
ATOM     22  C   LIG    1       -2.506   2.652   3.126  0.00  0.00    +0.080 A 
ATOM     23  C   LIG    1       -1.903   1.417   3.280  0.00  0.00    +0.000 A 
ATOM     24  C   LIG    1       -0.786   1.092   2.533  0.00  0.00    +0.090 A 
ATOM     25  C   LIG    1       -0.270   1.999   1.629  0.00  0.00    -0.220 A 
BRANCH  25  26
ATOM     26  C   LIG    1        0.947   1.644   0.815  0.00  0.00    +0.510 C 
ATOM     27  F   LIG    1        0.628   1.694  -0.547  0.00  0.00    -0.180 F 
ATOM     28  F   LIG    1        1.973   2.555   1.087  0.00  0.00    -0.170 F 
ATOM     29  F   LIG    1        1.370   0.352   1.147  0.00  0.00    -0.170 F 
ENDBRANCH  25  26
ENDBRANCH  17  20
ENDBRANCH   1  16
TORSDOF 7
