REMARK  Name = ZINCkj000005hvFq.0
REMARK                            x       y       z     vdW  Elec       q    Type
REMARK                         _______ _______ _______ _____ _____    ______ ____
ROOT
ATOM      1  N   LIG    1       -0.322   2.917   4.121  0.00  0.00    -0.640 N 
ATOM      2  H   LIG    1       -0.009   3.504   3.415  0.00  0.00    +0.420 HD
ATOM      3  C   LIG    1       -0.101   1.590   4.040  0.00  0.00    +0.500 C 
ATOM      4  O   LIG    1       -0.403   0.868   4.967  0.00  0.00    -0.500 OA
ENDROOT
BRANCH   1   8
ATOM      5  C   LIG    1       -2.347   4.497   7.400  0.00  0.00    -0.130 A 
ATOM      6  C   LIG    1       -2.550   3.166   7.026  0.00  0.00    +0.070 A 
ATOM      7  C   LIG    1       -1.879   2.647   5.942  0.00  0.00    +0.020 A 
ATOM      8  C   LIG    1       -1.000   3.446   5.218  0.00  0.00    +0.140 A 
ATOM      9  C   LIG    1       -0.791   4.770   5.591  0.00  0.00    -0.110 A 
ATOM     10  C   LIG    1        0.167   5.630   4.808  0.00  0.00    +0.100 C 
ATOM     11  C   LIG    1       -1.463   5.297   6.670  0.00  0.00    +0.110 A 
BRANCH   5  15
ATOM     12  C   LIG    1       -4.628   4.839  10.418  0.00  0.00    +0.290 C 
ATOM     13  N   LIG    1       -3.916   4.284   9.264  0.00  0.00    -0.730 N 
ATOM     14  H   LIG    1       -4.058   3.359   9.006  0.00  0.00    +0.400 HD
ATOM     15  C   LIG    1       -3.065   5.057   8.562  0.00  0.00    +0.550 C 
ATOM     16  O   LIG    1       -2.887   6.215   8.885  0.00  0.00    -0.530 OA
ENDBRANCH   5  15
ENDBRANCH   1   8
BRANCH   3  17
ATOM     17  C   LIG    1        0.520   1.003   2.799  0.00  0.00    +0.190 C 
BRANCH  17  18
ATOM     18  N   LIG    1        1.089  -0.315   3.112  0.00  0.00    -0.620 N 
ATOM     19  H   LIG    1        1.794  -0.215   3.826  0.00  0.00    +0.440 HD
ATOM     20  H   LIG    1        1.504  -0.708   2.281  0.00  0.00    +0.440 HD
ATOM     21  H   LIG    1        0.358  -0.926   3.444  0.00  0.00    +0.450 HD
ENDBRANCH  17  18
BRANCH  17  22
ATOM     22  C   LIG    1       -0.550   0.852   1.716  0.00  0.00    +0.110 C 
BRANCH  22  23
ATOM     23  C   LIG    1        0.102   0.374   0.417  0.00  0.00    +0.060 C 
BRANCH  23  24
ATOM     24  S   LIG    1       -1.167   0.195  -0.867  0.00  0.00    -0.220 S 
ATOM     25  C   LIG    1       -0.215  -0.370  -2.304  0.00  0.00    +0.140 C 
ENDBRANCH  23  24
ENDBRANCH  22  23
ENDBRANCH  17  22
ENDBRANCH   3  17
TORSDOF 7
