REMARK  Name = ZINCrH000004s9LF.0
REMARK                            x       y       z     vdW  Elec       q    Type
REMARK                         _______ _______ _______ _____ _____    ______ ____
ROOT
ATOM      1  C   LIG    1        2.877  -4.481  -0.049  0.00  0.00    +0.590 C 
ATOM      2  N   LIG    1        3.554  -3.315  -0.049  0.00  0.00    -0.640 N 
ATOM      3  H   LIG    1        4.524  -3.318  -0.058  0.00  0.00    +0.410 HD
ATOM      4  O   LIG    1        1.660  -4.478  -0.037  0.00  0.00    -0.450 OA
ENDROOT
BRANCH   1   9
ATOM      5  C   LIG    1        0.074  -9.225  -0.044  0.00  0.00    +0.170 C 
ATOM      6  C   LIG    1        1.508  -8.760  -0.056  0.00  0.00    +0.220 A 
ATOM      7  N   LIG    1        1.780  -7.473  -0.053  0.00  0.00    -0.450 NA
ATOM      8  C   LIG    1        3.042  -7.042  -0.057  0.00  0.00    +0.340 A 
ATOM      9  C   LIG    1        3.606  -5.751  -0.062  0.00  0.00    -0.300 A 
ATOM     10  C   LIG    1        5.003  -5.915  -0.075  0.00  0.00    +0.330 A 
ATOM     11  N   LIG    1        5.276  -7.194  -0.083  0.00  0.00    -0.300 NA
ATOM     12  N   LIG    1        4.084  -7.926  -0.076  0.00  0.00    -0.310 N 
ATOM     13  C   LIG    1        3.833  -9.266  -0.079  0.00  0.00    +0.360 A 
ATOM     14  C   LIG    1        2.546  -9.698  -0.069  0.00  0.00    -0.030 A 
ENDBRANCH   1   9
BRANCH   2  15
ATOM     15  C   LIG    1        2.866  -2.115  -0.037  0.00  0.00    +0.510 A 
ATOM     16  N   LIG    1        1.562  -1.997  -0.024  0.00  0.00    -0.470 NA
ATOM     17  C   LIG    1        1.224  -0.681  -0.013  0.00  0.00    +0.060 A 
ATOM     18  C   LIG    1        0.002  -0.004   0.002  0.00  0.00    +0.060 A 
ATOM     19  C   LIG    1       -0.017   1.373   0.010  0.00  0.00    +0.000 A 
ATOM     20  C   LIG    1        1.169   2.093   0.002  0.00  0.00    +0.020 A 
ATOM     21  C   LIG    1        2.384   1.439  -0.013  0.00  0.00    +0.010 A 
ATOM     22  C   LIG    1        2.421   0.053  -0.021  0.00  0.00    +0.050 A 
ATOM     23  N   LIG    1        3.445  -0.879  -0.036  0.00  0.00    -0.500 N 
BRANCH  23  24
ATOM     24  C   LIG    1        4.881  -0.593  -0.048  0.00  0.00    +0.240 C 
ATOM     25  C   LIG    1        5.542  -1.254  -1.275  0.00  0.00    +0.010 C 
ATOM     26  C   LIG    1        6.921  -1.729  -0.755  0.00  0.00    +0.030 C 
ATOM     27  C   LIG    1        6.596  -2.217   0.679  0.00  0.00    +0.010 C 
ATOM     28  C   LIG    1        5.551  -1.205   1.195  0.00  0.00    +0.020 C 
ENDBRANCH  23  24
ENDBRANCH   2  15
TORSDOF 3
