REMARK  Name = ZINCtV00001bB3nF.1
REMARK                            x       y       z     vdW  Elec       q    Type
REMARK                         _______ _______ _______ _____ _____    ______ ____
ROOT
ATOM      1  C   LIG    1        0.023  -0.705   1.199  0.00  0.00    +0.150 A 
ATOM      2  C   LIG    1        0.041  -2.092   1.188  0.00  0.00    -0.080 A 
ATOM      3  C   LIG    1        0.039  -2.772  -0.014  0.00  0.00    +0.090 A 
ATOM      4  C   LIG    1        0.018  -2.071  -1.206  0.00  0.00    -0.110 A 
ATOM      5  C   LIG    1       -0.006  -0.689  -1.198  0.00  0.00    +0.080 A 
ATOM      6  C   LIG    1        0.002  -0.004   0.002  0.00  0.00    -0.120 A 
ENDROOT
BRANCH   1   8
ATOM      7  C   LIG    1        0.047  -0.820   3.574  0.00  0.00    +0.250 C 
ATOM      8  O   LIG    1        0.025  -0.033   2.381  0.00  0.00    -0.310 OA
ENDBRANCH   1   8
BRANCH   4   9
ATOM      9  C   LIG    1        0.015  -2.816  -2.516  0.00  0.00    +0.200 C 
ATOM     10  C   LIG    1       -1.402  -3.305  -2.822  0.00  0.00    +0.060 C 
BRANCH   9  11
ATOM     11  N   LIG    1        0.919  -3.965  -2.427  0.00  0.00    -0.190 NA
ATOM     12  N   LIG    1        1.137  -4.662  -3.429  0.00  0.00    -0.190 NA
BRANCH  12  13
ATOM     13  C   LIG    1        1.981  -5.736  -3.345  0.00  0.00    +0.060 A 
ATOM     14  C   LIG    1        2.605  -6.046  -2.133  0.00  0.00    -0.010 A 
ATOM     15  C   LIG    1        3.450  -7.135  -2.054  0.00  0.00    +0.050 A 
ATOM     16  C   LIG    1        3.691  -7.911  -3.176  0.00  0.00    +0.010 A 
ATOM     17  C   LIG    1        3.082  -7.605  -4.381  0.00  0.00    +0.050 A 
ATOM     18 CL   LIG    1        4.762  -9.273  -3.070  0.00  0.00    -0.030 Cl
ATOM     19 CL   LIG    1        2.310  -5.071  -0.728  0.00  0.00    +0.000 Cl
ATOM     20  C   LIG    1        2.229  -6.524  -4.473  0.00  0.00    +0.040 A 
ATOM     21 CL   LIG    1        1.466  -6.144  -5.985  0.00  0.00    -0.020 Cl
ENDBRANCH  12  13
ENDBRANCH   9  11
ENDBRANCH   4   9
BRANCH   6  22
ATOM     22  C   LIG    1       -0.018   1.503   0.010  0.00  0.00    +0.160 C 
BRANCH  22  23
ATOM     23  S   LIG    1        1.680   2.129  -0.003  0.00  0.00    +0.020 S 
BRANCH  23  24
ATOM     24  C   LIG    1        1.366   3.863   0.010  0.00  0.00    +0.290 A 
ATOM     25  N   LIG    1        0.113   4.294   0.019  0.00  0.00    -0.530 NA
ATOM     26  C   LIG    1       -0.157   5.589   0.033  0.00  0.00    +0.330 A 
ATOM     27  C   LIG    1        0.890   6.498   0.028  0.00  0.00    -0.090 A 
ATOM     28  C   LIG    1        2.189   6.013   0.013  0.00  0.00    +0.330 A 
ATOM     29  N   LIG    1        2.389   4.706   0.004  0.00  0.00    -0.500 NA
ENDBRANCH  23  24
ENDBRANCH  22  23
ENDBRANCH   6  22
TORSDOF 7
