REMARK  Name = ZINCtV00001bB3nF.0
REMARK                            x       y       z     vdW  Elec       q    Type
REMARK                         _______ _______ _______ _____ _____    ______ ____
ROOT
ATOM      1  C   LIG    1        1.041   6.306   0.025  0.00  0.00    +0.160 A 
ATOM      2  C   LIG    1        2.254   5.631   0.010  0.00  0.00    -0.070 A 
ATOM      3  C   LIG    1        2.278   4.253   0.003  0.00  0.00    +0.100 A 
ATOM      4  C   LIG    1        1.079   3.535   0.011  0.00  0.00    -0.080 A 
ATOM      5  C   LIG    1       -0.140   4.220   0.020  0.00  0.00    +0.120 A 
ATOM      6  C   LIG    1       -0.153   5.598   0.034  0.00  0.00    -0.120 A 
ENDROOT
BRANCH   4   7
ATOM      7  C   LIG    1        1.099   2.061   0.003  0.00  0.00    +0.130 C 
ATOM      8  N   LIG    1       -0.017   1.397   0.010  0.00  0.00    -0.220 NA
ATOM      9  C   LIG    1        2.414   1.326  -0.014  0.00  0.00    +0.090 C 
BRANCH   8  10
ATOM     10  N   LIG    1        0.002  -0.004   0.002  0.00  0.00    -0.580 N 
ATOM     11  H   LIG    1        0.849  -0.478  -0.009  0.00  0.00    +0.400 HD
BRANCH  10  12
ATOM     12  C   LIG    1       -1.198  -0.719   0.010  0.00  0.00    +0.240 A 
ATOM     13  C   LIG    1       -2.388  -0.080   0.341  0.00  0.00    -0.060 A 
ATOM     14  C   LIG    1       -3.574  -0.789   0.342  0.00  0.00    +0.090 A 
ATOM     15  C   LIG    1       -3.577  -2.136   0.025  0.00  0.00    -0.060 A 
ATOM     16  C   LIG    1       -2.394  -2.776  -0.300  0.00  0.00    +0.100 A 
ATOM     17 CL   LIG    1       -5.069  -3.024   0.034  0.00  0.00    -0.050 Cl
ATOM     18 CL   LIG    1       -2.384   1.608   0.747  0.00  0.00    -0.020 Cl
ATOM     19  C   LIG    1       -1.205  -2.072  -0.309  0.00  0.00    -0.080 A 
ATOM     20 CL   LIG    1        0.278  -2.877  -0.718  0.00  0.00    -0.050 Cl
ENDBRANCH  10  12
ENDBRANCH   8  10
ENDBRANCH   4   7
BRANCH   1  22
ATOM     21  C   LIG    1        2.287   8.331   0.024  0.00  0.00    +0.240 C 
ATOM     22  O   LIG    1        1.023   7.665   0.033  0.00  0.00    -0.310 OA
ENDBRANCH   1  22
BRANCH   6  23
ATOM     23  C   LIG    1       -1.467   6.337   0.051  0.00  0.00    +0.150 C 
BRANCH  23  24
ATOM     24  S   LIG    1       -2.009   6.642  -1.649  0.00  0.00    +0.020 S 
BRANCH  24  25
ATOM     25  C   LIG    1       -3.521   7.493  -1.339  0.00  0.00    +0.290 A 
ATOM     26  N   LIG    1       -3.901   7.701  -0.087  0.00  0.00    -0.530 NA
ATOM     27  C   LIG    1       -5.028   8.341   0.180  0.00  0.00    +0.330 A 
ATOM     28  C   LIG    1       -5.818   8.785  -0.869  0.00  0.00    -0.090 A 
ATOM     29  C   LIG    1       -5.393   8.546  -2.167  0.00  0.00    +0.330 A 
ATOM     30  N   LIG    1       -4.253   7.905  -2.365  0.00  0.00    -0.500 NA
ENDBRANCH  24  25
ENDBRANCH  23  24
ENDBRANCH   6  23
TORSDOF 7
