REMARK  Name = ZINCvU00000006em.0
REMARK                            x       y       z     vdW  Elec       q    Type
REMARK                         _______ _______ _______ _____ _____    ______ ____
ROOT
ATOM      1  C   LIG    1       -4.408   5.994  -1.934  0.00  0.00    +0.210 C 
ATOM      2  C   LIG    1       -4.308   5.347  -3.291  0.00  0.00    +0.150 A 
ATOM      3  N   LIG    1       -4.895   5.746  -4.379  0.00  0.00    -0.270 NA
ATOM      4  O   LIG    1       -4.560   4.883  -5.446  0.00  0.00    -0.080 OA
ATOM      5  C   LIG    1       -3.735   3.915  -4.998  0.00  0.00    +0.310 A 
ATOM      6  N   LIG    1       -3.148   2.886  -5.587  0.00  0.00    -0.460 NA
ATOM      7  C   LIG    1       -2.362   2.053  -4.923  0.00  0.00    +0.250 A 
ATOM      8  C   LIG    1       -2.111   2.221  -3.559  0.00  0.00    -0.010 A 
ATOM      9  C   LIG    1       -2.703   3.287  -2.887  0.00  0.00    +0.010 A 
ATOM     10  C   LIG    1       -3.538   4.150  -3.626  0.00  0.00    -0.210 A 
ENDROOT
BRANCH   9  11
ATOM     11  C   LIG    1       -2.467   3.504  -1.442  0.00  0.00    +0.570 C 
ATOM     12  N   LIG    1       -1.210   3.499  -0.956  0.00  0.00    -0.610 N 
ATOM     13  C   LIG    1        0.005   3.191  -1.725  0.00  0.00    +0.230 C 
ATOM     14  C   LIG    1        1.199   3.283  -0.752  0.00  0.00    +0.040 C 
ATOM     15  C   LIG    1        0.536   3.086   0.637  0.00  0.00    -0.010 C 
ATOM     16  C   LIG    1       -0.825   3.801   0.434  0.00  0.00    +0.270 C 
ATOM     17  O   LIG    1       -3.407   3.687  -0.694  0.00  0.00    -0.510 OA
BRANCH  15  18
ATOM     18  C   LIG    1        1.357   3.761   1.737  0.00  0.00    +0.040 C 
BRANCH  18  19
ATOM     19  C   LIG    1        0.743   3.441   3.102  0.00  0.00    -0.030 C 
ATOM     20  C   LIG    1        1.487   4.216   4.191  0.00  0.00    +0.010 C 
ATOM     21  C   LIG    1        0.859   1.940   3.374  0.00  0.00    +0.020 C 
ENDBRANCH  18  19
ENDBRANCH  15  18
ENDBRANCH   9  11
BRANCH   7  22
ATOM     22  C   LIG    1       -1.734   0.918  -5.641  0.00  0.00    -0.060 A 
ATOM     23  C   LIG    1       -0.989  -0.028  -4.940  0.00  0.00    +0.080 A 
ATOM     24  C   LIG    1       -0.407  -1.082  -5.615  0.00  0.00    +0.030 A 
ATOM     25  C   LIG    1       -0.562  -1.201  -6.984  0.00  0.00    +0.100 A 
ATOM     26  C   LIG    1       -1.301  -0.264  -7.685  0.00  0.00    -0.190 A 
ATOM     27  C   LIG    1       -1.892   0.791  -7.021  0.00  0.00    +0.130 A 
BRANCH  26  28
ATOM     28  C   LIG    1       -1.466  -0.400  -9.177  0.00  0.00    +0.510 C 
ATOM     29  F   LIG    1       -0.938   0.730  -9.810  0.00  0.00    -0.170 F 
ATOM     30  F   LIG    1       -2.825  -0.517  -9.488  0.00  0.00    -0.170 F 
ATOM     31  F   LIG    1       -0.787  -1.541  -9.619  0.00  0.00    -0.180 F 
ENDBRANCH  26  28
ENDBRANCH   7  22
TORSDOF 5
