REMARK  Name = ZINCpe000000Z588.0
REMARK                            x       y       z     vdW  Elec       q    Type
REMARK                         _______ _______ _______ _____ _____    ______ ____
ROOT
ATOM      1  O   LIG    1       -1.204   2.840   0.023  0.00  0.00    -0.530 OA
ATOM      2  C   LIG    1       -1.187   1.624   0.017  0.00  0.00    +0.600 C 
ATOM      3  N   LIG    1       -0.011   0.966   0.007  0.00  0.00    -0.710 N 
ATOM      4  H   LIG    1        0.002  -0.004   0.002  0.00  0.00    +0.410 HD
ENDROOT
BRANCH   2   5
ATOM      5  C   LIG    1       -2.455   0.869   0.018  0.00  0.00    +0.000 A 
ATOM      6  C   LIG    1       -3.710   1.409   0.033  0.00  0.00    +0.190 A 
ATOM      7  N   LIG    1       -4.592   0.372   0.026  0.00  0.00    -0.360 N 
ATOM      8  C   LIG    1       -5.958   0.326   0.032  0.00  0.00    +0.220 A 
ATOM      9  C   LIG    1       -6.607  -0.856   0.030  0.00  0.00    +0.030 A 
ATOM     10  C   LIG    1       -5.885  -2.062   0.020  0.00  0.00    +0.050 A 
ATOM     11  C   LIG    1       -4.526  -2.034   0.014  0.00  0.00    +0.070 A 
ATOM     12  C   LIG    1       -3.860  -0.789   0.016  0.00  0.00    +0.230 A 
ATOM     13  N   LIG    1       -2.576  -0.472   0.012  0.00  0.00    -0.470 NA
ENDBRANCH   2   5
BRANCH   3  14
ATOM     14  C   LIG    1        1.248   1.716  -0.001  0.00  0.00    +0.280 C 
BRANCH  14  15
ATOM     15  C   LIG    1        2.424   0.737  -0.017  0.00  0.00    +0.010 C 
BRANCH  15  16
ATOM     16  C   LIG    1        3.738   1.520  -0.025  0.00  0.00    +0.370 C 
BRANCH  16  17
ATOM     17  N   LIG    1        4.864   0.583  -0.041  0.00  0.00    -0.450 N 
ATOM     18  N   LIG    1        5.514   0.045   1.080  0.00  0.00    -0.280 NA
ATOM     19  C   LIG    1        6.458  -0.727   0.664  0.00  0.00    +0.280 A 
ATOM     20  C   LIG    1        7.416  -1.541   1.503  0.00  0.00    +0.170 C 
ATOM     21  C   LIG    1        8.608  -1.931   0.619  0.00  0.00    +0.040 C 
ATOM     22  C   LIG    1        8.084  -2.539  -0.686  0.00  0.00    +0.030 C 
ATOM     23  C   LIG    1        7.444  -1.437  -1.539  0.00  0.00    +0.300 C 
ATOM     24  N   LIG    1        6.470  -0.713  -0.716  0.00  0.00    -0.560 N 
ATOM     25  C   LIG    1        5.466   0.073  -1.138  0.00  0.00    +0.650 A 
ATOM     26  O   LIG    1        5.156   0.288  -2.297  0.00  0.00    -0.550 OA
ENDBRANCH  16  17
ENDBRANCH  15  16
ENDBRANCH  14  15
ENDBRANCH   3  14
TORSDOF 5
