REMARK  Name = ZINCrH000004oiRx.0
REMARK                            x       y       z     vdW  Elec       q    Type
REMARK                         _______ _______ _______ _____ _____    ______ ____
ROOT
ATOM      1  N   LIG    1       -1.136   6.473   0.934  0.00  0.00    -0.740 N 
ATOM      2  H   LIG    1       -1.899   5.905   1.124  0.00  0.00    +0.400 HD
ATOM      3  C   LIG    1       -1.046   7.693   1.499  0.00  0.00    +0.710 C 
ATOM      4  N   LIG    1       -2.018   8.125   2.328  0.00  0.00    -0.740 N 
ATOM      5  H   LIG    1       -2.782   7.557   2.517  0.00  0.00    +0.400 HD
ATOM      6  O   LIG    1       -0.089   8.405   1.262  0.00  0.00    -0.590 OA
ENDROOT
BRANCH   1   8
ATOM      7  C   LIG    1       -0.350   6.517  -1.381  0.00  0.00    +0.040 C 
ATOM      8  C   LIG    1       -0.079   6.003   0.034  0.00  0.00    +0.300 C 
BRANCH   8   9
ATOM      9  C   LIG    1       -0.059   4.497   0.026  0.00  0.00    -0.090 A 
ATOM     10  C   LIG    1        1.148   3.822   0.012  0.00  0.00    +0.050 A 
ATOM     11  C   LIG    1        1.167   2.440   0.004  0.00  0.00    +0.040 A 
ATOM     12  C   LIG    1       -0.021   1.732   0.012  0.00  0.00    -0.030 A 
ATOM     13  C   LIG    1       -1.229   2.407   0.021  0.00  0.00    +0.030 A 
ATOM     14 CL   LIG    1        0.002  -0.004   0.002  0.00  0.00    -0.070 Cl
ATOM     15  C   LIG    1       -1.247   3.789   0.034  0.00  0.00    +0.030 A 
ENDBRANCH   8   9
ENDBRANCH   1   8
BRANCH   4  16
ATOM     16  C   LIG    1       -1.921   9.451   2.942  0.00  0.00    +0.340 C 
BRANCH  16  17
ATOM     17  C   LIG    1       -3.125   9.689   3.816  0.00  0.00    -0.110 A 
ATOM     18  C   LIG    1       -4.259  10.277   3.287  0.00  0.00    +0.030 A 
ATOM     19  C   LIG    1       -5.365  10.491   4.088  0.00  0.00    +0.030 A 
ATOM     20  C   LIG    1       -5.333  10.126   5.421  0.00  0.00    -0.070 A 
ATOM     21  C   LIG    1       -4.198   9.543   5.952  0.00  0.00    +0.000 A 
ATOM     22  C   LIG    1       -3.094   9.324   5.149  0.00  0.00    +0.020 A 
BRANCH  20  23
ATOM     23  C   LIG    1       -6.537  10.364   6.296  0.00  0.00    +0.230 C 
BRANCH  23  24
ATOM     24  N   LIG    1       -6.439  11.694   6.912  0.00  0.00    -0.530 NA
ATOM     25  C   LIG    1       -5.313  11.757   7.854  0.00  0.00    +0.140 C 
ATOM     26  C   LIG    1       -5.211  13.174   8.426  0.00  0.00    +0.220 C 
ATOM     27  O   LIG    1       -6.453  13.523   9.043  0.00  0.00    -0.390 OA
ATOM     28  C   LIG    1       -7.572  13.473   8.154  0.00  0.00    +0.220 C 
ATOM     29  C   LIG    1       -7.697  12.060   7.580  0.00  0.00    +0.150 C 
ENDBRANCH  23  24
ENDBRANCH  20  23
ENDBRANCH  16  17
ENDBRANCH   4  16
TORSDOF 6
