REMARK  Name = ZINCbu0000001gUa.0
REMARK                            x       y       z     vdW  Elec       q    Type
REMARK                         _______ _______ _______ _____ _____    ______ ____
ROOT
ATOM      1  C   LIG    1       -2.879   3.440   2.665  0.00  0.00    +0.070 C 
ATOM      2  C   LIG    1       -2.853   1.913   2.585  0.00  0.00    +0.170 C 
ATOM      3  C   LIG    1       -2.169   1.482   1.286  0.00  0.00    +0.060 C 
ATOM      4  C   LIG    1       -0.735   2.019   1.269  0.00  0.00    +0.000 C 
ATOM      5  C   LIG    1        0.005   1.513   2.511  0.00  0.00    +0.050 C 
ATOM      6  C   LIG    1       -0.761   1.942   3.764  0.00  0.00    +0.250 C 
ATOM      7  N   LIG    1       -2.114   1.376   3.734  0.00  0.00    -0.500 N 
ATOM      8  H   LIG    1       -2.598   1.616   4.586  0.00  0.00    +0.430 HD
ATOM      9  H   LIG    1       -2.055   0.371   3.655  0.00  0.00    +0.430 HD
ENDROOT
BRANCH   4  10
ATOM     10  C   LIG    1       -0.019   1.526   0.010  0.00  0.00    -0.060 C 
ATOM     11  C   LIG    1       -0.759   2.033  -1.229  0.00  0.00    +0.030 C 
ATOM     12  C   LIG    1        1.417   2.055  -0.000  0.00  0.00    +0.030 C 
ATOM     13  C   LIG    1        0.002  -0.004   0.002  0.00  0.00    +0.030 C 
ENDBRANCH   4  10
TORSDOF 1
