REMARK  Name = ZINCpe00000MJMk5.2
REMARK                            x       y       z     vdW  Elec       q    Type
REMARK                         _______ _______ _______ _____ _____    ______ ____
ROOT
ATOM      1  N   LIG    1       -0.977   1.343   0.927  0.00  0.00    -0.530 NA
ATOM      2  C   LIG    1       -0.500   0.877  -0.382  0.00  0.00    +0.180 C 
ATOM      3  C   LIG    1       -1.274   1.597  -1.491  0.00  0.00    +0.300 C 
ATOM      4  N   LIG    1       -1.166   3.047  -1.271  0.00  0.00    -0.620 N 
ATOM      5  C   LIG    1       -1.497   3.575   0.061  0.00  0.00    +0.280 C 
ATOM      6  C   LIG    1       -0.774   3.870  -2.263  0.00  0.00    +0.520 C 
ATOM      7  O   LIG    1       -0.504   3.417  -3.356  0.00  0.00    -0.510 OA
ATOM      8  C   LIG    1       -0.714   2.777   1.109  0.00  0.00    +0.190 C 
ENDROOT
BRANCH   1   9
ATOM      9  C   LIG    1       -0.383   0.555   2.015  0.00  0.00    +0.330 C 
BRANCH   9  10
ATOM     10  C   LIG    1       -0.797   1.139   3.341  0.00  0.00    -0.100 A 
ATOM     11  C   LIG    1       -2.087   1.602   3.520  0.00  0.00    +0.040 A 
ATOM     12  C   LIG    1       -2.468   2.132   4.738  0.00  0.00    +0.010 A 
ATOM     13  C   LIG    1       -1.556   2.209   5.774  0.00  0.00    +0.010 A 
ATOM     14  C   LIG    1       -0.265   1.751   5.594  0.00  0.00    +0.010 A 
ATOM     15  C   LIG    1        0.115   1.216   4.377  0.00  0.00    +0.030 A 
ENDBRANCH   9  10
BRANCH   9  17
ATOM     16  N   LIG    1       -1.210  -1.912   1.854  0.00  0.00    -0.410 NA
ATOM     17  C   LIG    1       -0.850  -0.838   1.924  0.00  0.00    +0.210 C 
ENDBRANCH   9  17
ENDBRANCH   1   9
BRANCH   6  18
ATOM     18  C   LIG    1       -0.670   5.353  -2.015  0.00  0.00    +0.210 C 
BRANCH  18  19
ATOM     19  N   LIG    1       -0.086   6.006  -3.194  0.00  0.00    -0.520 NA
ATOM     20  C   LIG    1       -0.198   7.467  -3.095  0.00  0.00    +0.170 C 
ATOM     21  C   LIG    1        0.286   8.107  -4.399  0.00  0.00    +0.040 C 
ATOM     22  C   LIG    1        1.742   7.704  -4.650  0.00  0.00    -0.020 C 
ATOM     23  C   LIG    1        1.839   6.176  -4.700  0.00  0.00    +0.180 C 
ATOM     24  C   LIG    1        1.310   5.593  -3.388  0.00  0.00    +0.190 C 
BRANCH  23  25
ATOM     25  O   LIG    1        3.203   5.790  -4.878  0.00  0.00    -0.570 OA
ATOM     26  H   LIG    1        3.604   6.125  -5.692  0.00  0.00    +0.380 HD
ENDBRANCH  23  25
ENDBRANCH  18  19
ENDBRANCH   6  18
TORSDOF 6
