REMARK  Name = ZINCpk00000eb9Uo.0
REMARK                            x       y       z     vdW  Elec       q    Type
REMARK                         _______ _______ _______ _____ _____    ______ ____
ROOT
ATOM      1  C   LIG    1        2.725  -5.399  -3.217  0.00  0.00    +0.350 C 
ENDROOT
BRANCH   1   8
ATOM      2  C   LIG    1        3.874  -5.169  -5.435  0.00  0.00    +0.120 A 
ATOM      3  C   LIG    1        3.924  -5.374  -6.807  0.00  0.00    +0.060 A 
ATOM      4  C   LIG    1        2.880  -6.013  -7.448  0.00  0.00    +0.020 A 
ATOM      5  C   LIG    1        1.787  -6.453  -6.721  0.00  0.00    +0.110 A 
ATOM      6  C   LIG    1        1.737  -6.254  -5.352  0.00  0.00    +0.030 A 
ATOM      7  F   LIG    1        0.767  -7.077  -7.350  0.00  0.00    -0.130 F 
ATOM      8  C   LIG    1        2.779  -5.616  -4.708  0.00  0.00    -0.070 A 
BRANCH   2  14
ATOM      9  C   LIG    1        5.725  -6.477  -3.359  0.00  0.00    +0.180 C 
ATOM     10  C   LIG    1        5.769  -5.057  -3.863  0.00  0.00    +0.220 A 
ATOM     11  N   LIG    1        6.620  -4.142  -3.486  0.00  0.00    -0.480 NA
ATOM     12  C   LIG    1        6.363  -2.999  -4.140  0.00  0.00    +0.150 A 
ATOM     13  C   LIG    1        5.315  -3.212  -4.960  0.00  0.00    +0.120 A 
ATOM     14  N   LIG    1        4.931  -4.515  -4.783  0.00  0.00    -0.420 N 
ENDBRANCH   2  14
ENDBRANCH   1   8
BRANCH   1  15
ATOM     15  N   LIG    1        2.308  -4.023  -2.939  0.00  0.00    -0.740 N 
ATOM     16  H   LIG    1        2.118  -3.416  -3.671  0.00  0.00    +0.400 HD
ATOM     17  C   LIG    1        2.189  -3.599  -1.665  0.00  0.00    +0.710 C 
ATOM     18  N   LIG    1        1.806  -2.333  -1.408  0.00  0.00    -0.740 N 
ATOM     19  H   LIG    1        1.616  -1.726  -2.141  0.00  0.00    +0.400 HD
ATOM     20  O   LIG    1        2.428  -4.360  -0.747  0.00  0.00    -0.580 OA
BRANCH  18  21
ATOM     21  C   LIG    1        1.677  -1.873  -0.024  0.00  0.00    +0.420 C 
BRANCH  21  22
ATOM     22  C   LIG    1        1.239  -0.431  -0.012  0.00  0.00    +0.250 A 
ATOM     23  N   LIG    1        0.002  -0.004   0.002  0.00  0.00    -0.520 NA
ATOM     24  C   LIG    1       -0.016   1.328   0.009  0.00  0.00    +0.420 A 
ATOM     25  N   LIG    1        1.214   1.769   0.000  0.00  0.00    -0.310 NA
ATOM     26  N   LIG    1        2.050   0.641  -0.014  0.00  0.00    -0.370 N 
ATOM     27  C   LIG    1        3.515   0.633  -0.028  0.00  0.00    +0.370 C 
ENDBRANCH  21  22
ENDBRANCH  18  21
ENDBRANCH   1  15
TORSDOF 5
