REMARK  Name = ZINCnE000001TxT0.0
REMARK                            x       y       z     vdW  Elec       q    Type
REMARK                         _______ _______ _______ _____ _____    ______ ____
ROOT
ATOM      1  C   LIG    1       -0.478   1.716   3.686  0.00  0.00    +0.530 C 
ATOM      2  N   LIG    1       -0.025   1.403   2.455  0.00  0.00    -0.730 N 
ATOM      3  H   LIG    1        0.771   0.857   2.356  0.00  0.00    +0.400 HD
ATOM      4  O   LIG    1       -1.472   2.399   3.810  0.00  0.00    -0.540 OA
ENDROOT
BRANCH   1   8
ATOM      5  C   LIG    1        1.485   0.372   6.972  0.00  0.00    -0.120 C 
ATOM      6  C   LIG    1        0.275   1.203   7.405  0.00  0.00    +0.030 C 
ATOM      7  C   LIG    1       -0.465   1.710   6.165  0.00  0.00    +0.030 C 
ATOM      8  C   LIG    1        0.251   1.216   4.907  0.00  0.00    -0.070 C 
ATOM      9  C   LIG    1        1.687   1.746   4.896  0.00  0.00    +0.020 C 
ATOM     10  C   LIG    1        0.272  -0.313   4.898  0.00  0.00    +0.020 C 
ATOM     11  C   LIG    1        2.427   1.239   6.135  0.00  0.00    +0.030 C 
ATOM     12  C   LIG    1        1.012  -0.820   6.138  0.00  0.00    +0.040 C 
BRANCH   5  14
ATOM     13  O   LIG    1        2.820  -1.185   8.152  0.00  0.00    -0.700 OA
ATOM     14  C   LIG    1        2.213  -0.128   8.193  0.00  0.00    +0.500 C 
ATOM     15  O   LIG    1        2.197   0.526   9.223  0.00  0.00    -0.700 OA
ENDBRANCH   5  14
ENDBRANCH   1   8
BRANCH   2  16
ATOM     16  C   LIG    1       -0.733   1.888   1.268  0.00  0.00    +0.250 C 
BRANCH  16  17
ATOM     17  C   LIG    1       -0.017   1.395   0.010  0.00  0.00    +0.180 C 
ATOM     18  F   LIG    1        0.002  -0.004   0.002  0.00  0.00    -0.200 F 
BRANCH  17  19
ATOM     19  C   LIG    1       -0.757   1.902  -1.230  0.00  0.00    -0.020 C 
ATOM     20  C   LIG    1       -2.192   1.372  -1.219  0.00  0.00    +0.020 C 
ATOM     21  C   LIG    1       -2.932   1.879  -2.458  0.00  0.00    +0.000 C 
ATOM     22  C   LIG    1       -2.216   1.385  -3.717  0.00  0.00    +0.000 C 
ATOM     23  C   LIG    1       -0.781   1.915  -3.728  0.00  0.00    +0.000 C 
ATOM     24  C   LIG    1       -0.041   1.408  -2.489  0.00  0.00    +0.010 C 
ENDBRANCH  17  19
ENDBRANCH  16  17
ENDBRANCH   2  16
TORSDOF 5
