REMARK  Name = ZINCrg000000paEg.1
REMARK                            x       y       z     vdW  Elec       q    Type
REMARK                         _______ _______ _______ _____ _____    ______ ____
ROOT
ATOM      1  C   LIG    1       -1.748   4.459   5.473  0.00  0.00    +0.560 C 
ATOM      2  N   LIG    1       -1.987   3.306   4.818  0.00  0.00    -0.720 N 
ATOM      3  H   LIG    1       -2.748   2.758   5.064  0.00  0.00    +0.400 HD
ATOM      4  O   LIG    1       -0.794   5.147   5.164  0.00  0.00    -0.530 OA
ENDROOT
BRANCH   1   7
ATOM      5  C   LIG    1       -3.237   6.485   8.274  0.00  0.00    +0.210 A 
ATOM      6  C   LIG    1       -2.393   6.080   7.250  0.00  0.00    +0.030 A 
ATOM      7  C   LIG    1       -2.645   4.888   6.568  0.00  0.00    -0.090 A 
ATOM      8  C   LIG    1       -3.738   4.101   6.922  0.00  0.00    +0.030 A 
ATOM      9  C   LIG    1       -4.581   4.508   7.955  0.00  0.00    +0.020 A 
ATOM     10  C   LIG    1       -4.327   5.704   8.630  0.00  0.00    +0.010 A 
BRANCH   5  12
ATOM     11  C   LIG    1       -3.872   8.108  10.037  0.00  0.00    +0.280 C 
ATOM     12  N   LIG    1       -2.986   7.681   8.952  0.00  0.00    -0.630 N 
ATOM     13  C   LIG    1       -1.836   8.508   8.578  0.00  0.00    +0.290 C 
ENDBRANCH   5  12
BRANCH   9  14
ATOM     14  C   LIG    1       -5.706   3.702   8.322  0.00  0.00    +0.250 C 
ATOM     15  N   LIG    1       -6.598   3.063   8.614  0.00  0.00    -0.410 NA
ENDBRANCH   9  14
ENDBRANCH   1   7
BRANCH   2  16
ATOM     16  C   LIG    1       -1.099   2.881   3.733  0.00  0.00    +0.240 C 
ATOM     17  C   LIG    1       -1.168   1.359   3.581  0.00  0.00    +0.040 C 
ATOM     18  C   LIG    1       -0.285   0.928   2.408  0.00  0.00    +0.180 C 
ATOM     19  N   LIG    1       -0.749   1.582   1.178  0.00  0.00    -0.510 NA
ATOM     20  C   LIG    1       -0.647   3.043   1.283  0.00  0.00    +0.180 C 
ATOM     21  C   LIG    1       -1.540   3.538   2.423  0.00  0.00    +0.030 C 
BRANCH  19  22
ATOM     22  C   LIG    1       -0.013   1.086   0.008  0.00  0.00    +0.180 C 
ATOM     23  C   LIG    1        1.511   1.246   0.216  0.00  0.00    +0.010 C 
ATOM     24  C   LIG    1        2.058  -0.026  -0.469  0.00  0.00    +0.260 C 
ATOM     25  N   LIG    1        0.965  -1.003  -0.409  0.00  0.00    -0.630 N 
ATOM     26  C   LIG    1        1.133  -2.445  -0.608  0.00  0.00    +0.290 C 
ATOM     27  C   LIG    1       -0.211  -0.406  -0.148  0.00  0.00    +0.520 C 
ATOM     28  O   LIG    1       -1.275  -0.979  -0.053  0.00  0.00    -0.510 OA
ENDBRANCH  19  22
ENDBRANCH   2  16
TORSDOF 5
