REMARK  Name = ZINCrH000004rePb.0
REMARK                            x       y       z     vdW  Elec       q    Type
REMARK                         _______ _______ _______ _____ _____    ______ ____
ROOT
ATOM      1  C   LIG    1        6.690   2.677  -4.078  0.00  0.00    -0.070 A 
ATOM      2  N   LIG    1        7.159   2.739  -2.859  0.00  0.00    -0.210 NA
ATOM      3  N   LIG    1        6.476   2.163  -1.968  0.00  0.00    -0.260 NA
ATOM      4  C   LIG    1        5.387   1.558  -2.336  0.00  0.00    -0.010 A 
ATOM      5  S   LIG    1        5.191   1.749  -4.027  0.00  0.00    +0.270 S 
ENDROOT
BRANCH   1   8
ATOM      6  N   LIG    1        8.457   3.961  -5.173  0.00  0.00    -0.700 N 
ATOM      7  H   LIG    1        8.884   4.063  -4.309  0.00  0.00    +0.410 HD
ATOM      8  C   LIG    1        7.303   3.273  -5.278  0.00  0.00    +0.600 C 
ATOM      9  O   LIG    1        6.767   3.145  -6.362  0.00  0.00    -0.520 OA
BRANCH   6  10
ATOM     10  C   LIG    1        9.067   4.554  -6.366  0.00  0.00    +0.320 C 
BRANCH  10  15
ATOM     11  C   LIG    1       13.948   7.271  -4.888  0.00  0.00    +0.090 C 
ATOM     12  C   LIG    1       12.675   6.563  -5.273  0.00  0.00    -0.070 A 
ATOM     13  C   LIG    1       12.709   5.229  -5.636  0.00  0.00    +0.010 A 
ATOM     14  C   LIG    1       11.541   4.579  -5.989  0.00  0.00    +0.040 A 
ATOM     15  C   LIG    1       10.340   5.263  -5.980  0.00  0.00    -0.120 A 
ATOM     16  C   LIG    1       10.306   6.598  -5.623  0.00  0.00    +0.040 A 
ATOM     17  C   LIG    1       11.473   7.246  -5.264  0.00  0.00    +0.010 A 
ENDBRANCH  10  15
ENDBRANCH   6  10
ENDBRANCH   1   8
BRANCH   4  18
ATOM     18  C   LIG    1        4.447   0.814  -1.423  0.00  0.00    +0.320 C 
BRANCH  18  19
ATOM     19  N   LIG    1        3.427   1.739  -0.912  0.00  0.00    -0.680 NA
ATOM     20  H   LIG    1        3.853   2.528  -0.449  0.00  0.00    +0.350 HD
BRANCH  19  21
ATOM     21  C   LIG    1        2.490   1.048  -0.016  0.00  0.00    +0.230 C 
ATOM     22  C   LIG    1        3.071   1.010   1.399  0.00  0.00    +0.010 C 
BRANCH  21  23
ATOM     23  C   LIG    1        1.175   1.783   0.000  0.00  0.00    -0.040 A 
ATOM     24  C   LIG    1        1.156   3.166   0.007  0.00  0.00    +0.020 A 
ATOM     25  C   LIG    1       -0.050   3.842   0.022  0.00  0.00    +0.040 A 
ATOM     26  C   LIG    1       -1.238   3.137   0.029  0.00  0.00    -0.030 A 
ATOM     27  C   LIG    1       -1.221   1.752   0.017  0.00  0.00    +0.100 A 
ATOM     28  F   LIG    1       -2.382   1.061   0.019  0.00  0.00    -0.140 F 
ATOM     29  C   LIG    1       -0.013   1.076   0.008  0.00  0.00    -0.020 A 
ENDBRANCH  21  23
ENDBRANCH  19  21
ENDBRANCH  18  19
ENDBRANCH   4  18
TORSDOF 7
