REMARK  Name = ZINCtV000002Kh4R.0
REMARK                            x       y       z     vdW  Elec       q    Type
REMARK                         _______ _______ _______ _____ _____    ______ ____
ROOT
ATOM      1  C   LIG    1       -4.702   2.527  -1.046  0.00  0.00    +0.180 C 
ATOM      2  C   LIG    1       -3.307   2.579  -0.480  0.00  0.00    +0.150 A 
ATOM      3  N   LIG    1       -2.374   1.697  -0.680  0.00  0.00    -0.250 NA
ATOM      4  N   LIG    1       -1.218   2.077   0.008  0.00  0.00    -0.300 N 
ATOM      5  C   LIG    1       -1.475   3.261   0.647  0.00  0.00    +0.030 A 
ATOM      6  S   LIG    1       -0.746   4.480   1.685  0.00  0.00    +0.250 S 
ATOM      7  C   LIG    1       -2.230   5.418   1.703  0.00  0.00    -0.270 A 
ATOM      8  C   LIG    1       -3.175   4.813   0.964  0.00  0.00    +0.200 A 
ATOM      9  C   LIG    1       -2.785   3.610   0.363  0.00  0.00    -0.220 A 
ENDROOT
BRANCH   4  10
ATOM     10  C   LIG    1       -0.007   1.374   0.033  0.00  0.00    +0.150 A 
ATOM     11  C   LIG    1        1.198   2.064   0.065  0.00  0.00    +0.000 A 
ATOM     12  C   LIG    1        2.390   1.368   0.085  0.00  0.00    +0.050 A 
ATOM     13  C   LIG    1        2.386  -0.015   0.073  0.00  0.00    +0.010 A 
ATOM     14  C   LIG    1        1.188  -0.705   0.041  0.00  0.00    +0.040 A 
ATOM     15  C   LIG    1       -0.008  -0.015   0.021  0.00  0.00    +0.030 A 
ENDBRANCH   4  10
BRANCH   7  16
ATOM     16  C   LIG    1       -2.412   6.680   2.421  0.00  0.00    +0.550 C 
ATOM     17  O   LIG    1       -3.481   7.259   2.372  0.00  0.00    -0.480 OA
BRANCH  16  18
ATOM     18  O   LIG    1       -1.395   7.202   3.136  0.00  0.00    -0.290 OA
BRANCH  18  19
ATOM     19  C   LIG    1       -1.574   8.425   3.703  0.00  0.00    +0.100 A 
ATOM     20  C   LIG    1       -0.996   9.523   3.132  0.00  0.00    +0.040 A 
ATOM     21  C   LIG    1       -1.185  10.787   3.713  0.00  0.00    -0.030 A 
ATOM     22  C   LIG    1       -0.611  11.941   3.151  0.00  0.00    +0.050 A 
ATOM     23  C   LIG    1       -0.811  13.150   3.743  0.00  0.00    +0.050 A 
ATOM     24  C   LIG    1       -1.578  13.263   4.902  0.00  0.00    -0.080 A 
ATOM     25  C   LIG    1       -2.150  12.167   5.474  0.00  0.00    +0.070 A 
ATOM     26 BR   LIG    1       -1.829  14.964   5.690  0.00  0.00    -0.040 Br
ATOM     27  C   LIG    1       -1.965  10.903   4.891  0.00  0.00    -0.050 A 
ATOM     28  C   LIG    1       -2.541   9.750   5.454  0.00  0.00    +0.060 A 
ATOM     29  C   LIG    1       -2.344   8.541   4.864  0.00  0.00    +0.010 A 
ENDBRANCH  18  19
ENDBRANCH  16  18
ENDBRANCH   7  16
TORSDOF 4
