REMARK  Name = ZINCvU0000000IKG.0
REMARK                            x       y       z     vdW  Elec       q    Type
REMARK                         _______ _______ _______ _____ _____    ______ ____
ROOT
ATOM      1  C   LIG    1        5.350   4.250   0.611  0.00  0.00    +0.560 C 
ATOM      2  N   LIG    1        4.004   4.201   0.626  0.00  0.00    -0.660 N 
ATOM      3  H   LIG    1        3.493   4.982   0.890  0.00  0.00    +0.410 HD
ATOM      4  O   LIG    1        5.989   3.306   0.189  0.00  0.00    -0.510 OA
ENDROOT
BRANCH   2   5
ATOM      5  C   LIG    1        3.342   3.023   0.259  0.00  0.00    +0.160 A 
ATOM      6  C   LIG    1        2.115   3.088  -0.387  0.00  0.00    +0.010 A 
ATOM      7  C   LIG    1        1.460   1.925  -0.750  0.00  0.00    +0.060 A 
ATOM      8  C   LIG    1        2.026   0.695  -0.469  0.00  0.00    +0.020 A 
ATOM      9  O   LIG    1        1.597  -0.585  -0.714  0.00  0.00    -0.290 OA
ATOM     10  C   LIG    1        2.799  -1.366  -0.657  0.00  0.00    +0.250 C 
ATOM     11  O   LIG    1        3.592  -0.695   0.333  0.00  0.00    -0.290 OA
ATOM     12  C   LIG    1        2.504  -2.812  -0.246  0.00  0.00    +0.080 C 
ATOM     13  C   LIG    1        2.502  -3.590  -1.588  0.00  0.00    +0.040 C 
ATOM     14  C   LIG    1        3.633  -2.897  -2.390  0.00  0.00    +0.030 C 
ATOM     15  C   LIG    1        3.507  -1.403  -2.011  0.00  0.00    +0.020 C 
ATOM     16  C   LIG    1        3.260   0.626   0.179  0.00  0.00    +0.050 A 
ATOM     17  C   LIG    1        3.914   1.789   0.541  0.00  0.00    +0.050 A 
ENDBRANCH   2   5
BRANCH   1  22
ATOM     18  C   LIG    1        8.095   6.637   1.562  0.00  0.00    +0.130 A 
ATOM     19  C   LIG    1        7.360   7.712   2.044  0.00  0.00    -0.040 A 
ATOM     20  C   LIG    1        5.978   7.660   2.058  0.00  0.00    +0.060 A 
ATOM     21  C   LIG    1        5.321   6.542   1.589  0.00  0.00    +0.010 A 
ATOM     22  C   LIG    1        6.051   5.453   1.109  0.00  0.00    -0.100 A 
ATOM     23  C   LIG    1        7.445   5.507   1.095  0.00  0.00    +0.060 A 
BRANCH  18  24
ATOM     24  O   LIG    1        9.453   6.694   1.550  0.00  0.00    -0.310 OA
BRANCH  24  25
ATOM     25  C   LIG    1       10.057   7.889   2.048  0.00  0.00    +0.300 C 
BRANCH  25  32
ATOM     26  C   LIG    1       11.967   8.744  -0.432  0.00  0.00    +0.160 C 
ATOM     27  C   LIG    1       12.395   8.141   0.881  0.00  0.00    +0.040 A 
ATOM     28  N   LIG    1       13.611   7.857   1.248  0.00  0.00    -0.360 NA
ATOM     29  O   LIG    1       13.641   7.380   2.360  0.00  0.00    +0.100 OA
ATOM     30  C   LIG    1       12.413   7.289   2.889  0.00  0.00    +0.010 A 
ATOM     31  C   LIG    1       12.056   6.754   4.252  0.00  0.00    +0.200 C 
ATOM     32  C   LIG    1       11.556   7.770   1.957  0.00  0.00    -0.220 A 
ENDBRANCH  25  32
ENDBRANCH  24  25
ENDBRANCH  18  24
ENDBRANCH   1  22
TORSDOF 5
