REMARK  Name = ZINCAx0000000bxO.0
REMARK                            x       y       z     vdW  Elec       q    Type
REMARK                         _______ _______ _______ _____ _____    ______ ____
ROOT
ATOM      1  N   LIG    1        1.037   1.968  -0.561  0.00  0.00    -0.540 N 
ATOM      2  C   LIG    1        2.192   1.387  -0.173  0.00  0.00    +0.610 A 
ATOM      3  C   LIG    1        2.372   0.009  -0.379  0.00  0.00    -0.180 A 
ATOM      4  C   LIG    1        1.352  -0.728  -0.979  0.00  0.00    +0.380 A 
ATOM      5  N   LIG    1        0.189  -0.074  -1.355  0.00  0.00    -0.510 N 
ATOM      6  C   LIG    1       -0.901  -0.822  -1.987  0.00  0.00    +0.360 C 
ATOM      7  N   LIG    1        1.763  -1.991  -1.060  0.00  0.00    -0.500 NA
ATOM      8  C   LIG    1        2.980  -2.105  -0.549  0.00  0.00    +0.450 A 
ATOM      9  N   LIG    1        3.984  -3.004  -0.294  0.00  0.00    -0.410 N 
ATOM     10  C   LIG    1        5.029  -2.313   0.307  0.00  0.00    +0.120 A 
ATOM     11  C   LIG    1        4.665  -1.024   0.414  0.00  0.00    +0.210 A 
ATOM     12  N   LIG    1        3.397  -0.886  -0.114  0.00  0.00    -0.350 N 
ATOM     13  O   LIG    1        3.070   2.052   0.349  0.00  0.00    -0.520 OA
ATOM     14  C   LIG    1        0.059   1.249  -1.139  0.00  0.00    +0.720 A 
ATOM     15  O   LIG    1       -0.965   1.808  -1.479  0.00  0.00    -0.530 OA
ENDROOT
BRANCH   9  16
ATOM     16  C   LIG    1        3.961  -4.375  -0.588  0.00  0.00    +0.070 A 
ATOM     17  C   LIG    1        4.540  -4.844  -1.759  0.00  0.00    +0.090 A 
ATOM     18  C   LIG    1        4.520  -6.195  -2.045  0.00  0.00    -0.060 A 
ATOM     19  C   LIG    1        3.913  -7.081  -1.168  0.00  0.00    +0.160 A 
ATOM     20  C   LIG    1        3.330  -6.612   0.000  0.00  0.00    +0.010 A 
ATOM     21  C   LIG    1        3.353  -5.263   0.290  0.00  0.00    +0.090 A 
BRANCH  19  22
ATOM     22  O   LIG    1        3.890  -8.411  -1.453  0.00  0.00    -0.310 OA
BRANCH  22  23
ATOM     23  C   LIG    1        4.510  -8.824  -2.672  0.00  0.00    +0.190 C 
ATOM     24  C   LIG    1        4.385 -10.341  -2.820  0.00  0.00    +0.070 C 
ENDBRANCH  22  23
ENDBRANCH  19  22
ENDBRANCH   9  16
BRANCH  10  25
ATOM     25  C   LIG    1        6.316  -2.894   0.751  0.00  0.00    -0.030 A 
ATOM     26  C   LIG    1        6.495  -4.278   0.756  0.00  0.00    +0.020 A 
ATOM     27  C   LIG    1        7.699  -4.813   1.166  0.00  0.00    +0.020 A 
ATOM     28  C   LIG    1        8.723  -3.981   1.582  0.00  0.00    +0.030 A 
ATOM     29  C   LIG    1        8.549  -2.609   1.585  0.00  0.00    +0.020 A 
ATOM     30  C   LIG    1        7.352  -2.061   1.172  0.00  0.00    +0.040 A 
ENDBRANCH  10  25
BRANCH   1  31
ATOM     31  C   LIG    1        0.846   3.405  -0.348  0.00  0.00    +0.430 C 
BRANCH  31  32
ATOM     32  C   LIG    1        0.220   3.634   1.003  0.00  0.00    +0.450 C 
ATOM     33  O   LIG    1       -0.041   2.693   1.715  0.00  0.00    -0.500 OA
BRANCH  32  34
ATOM     34  O   LIG    1       -0.049   4.882   1.415  0.00  0.00    -0.350 OA
BRANCH  34  36
ATOM     35  C   LIG    1       -0.884   6.511   3.021  0.00  0.00    +0.070 C 
ATOM     36  C   LIG    1       -0.653   5.028   2.727  0.00  0.00    +0.200 C 
ENDBRANCH  34  36
ENDBRANCH  32  34
ENDBRANCH  31  32
ENDBRANCH   1  31
TORSDOF 8
