REMARK  Name = ZINCpk000000nmiv.0
REMARK                            x       y       z     vdW  Elec       q    Type
REMARK                         _______ _______ _______ _____ _____    ______ ____
ROOT
ATOM      1  C   LIG    1       -3.060   3.289   3.640  0.00  0.00    +0.170 C 
ATOM      2  C   LIG    1       -2.476   4.449   4.449  0.00  0.00    -0.010 C 
ATOM      3  C   LIG    1       -1.385   5.145   3.633  0.00  0.00    +0.020 C 
ATOM      4  C   LIG    1       -1.998   5.713   2.348  0.00  0.00    +0.290 C 
ATOM      5  N   LIG    1       -2.687   4.629   1.635  0.00  0.00    -0.990 NA
ATOM      6  C   LIG    1       -3.696   3.839   2.354  0.00  0.00    +0.310 C 
ENDROOT
BRANCH   5   7
ATOM      7  S   LIG    1       -2.339   4.309   0.048  0.00  0.00    +2.720 S 
ATOM      8  O   LIG    1       -3.479   3.652  -0.489  0.00  0.00    -0.940 OA
ATOM      9  O   LIG    1       -1.805   5.508  -0.496  0.00  0.00    -0.950 OA
BRANCH   7  10
ATOM     10  C   LIG    1       -1.031   3.129   0.029  0.00  0.00    -0.800 A 
ATOM     11  C   LIG    1       -1.190   1.804   0.017  0.00  0.00    +0.170 A 
ATOM     12  C   LIG    1       -0.013   1.076   0.008  0.00  0.00    -0.010 A 
ATOM     13  C   LIG    1        1.102   1.808   0.001  0.00  0.00    +0.000 A 
ATOM     14  S   LIG    1        0.685   3.517   0.015  0.00  0.00    +0.210 S 
ENDBRANCH   7  10
ENDBRANCH   5   7
BRANCH   1  15
ATOM     15  N   LIG    1       -4.084   2.601   4.437  0.00  0.00    -0.680 NA
ATOM     16  H   LIG    1       -4.635   3.261   4.965  0.00  0.00    +0.350 HD
BRANCH  15  17
ATOM     17  C   LIG    1       -3.477   1.596   5.320  0.00  0.00    +0.330 C 
BRANCH  17  21
ATOM     18  N   LIG    1       -5.928   0.447   7.642  0.00  0.00    -0.130 N 
ATOM     19  N   LIG    1       -6.059  -0.445   6.723  0.00  0.00    -0.060 NA
ATOM     20  N   LIG    1       -5.228  -0.185   5.772  0.00  0.00    -0.270 NA
ATOM     21  C   LIG    1       -4.556   0.913   6.120  0.00  0.00    +0.160 A 
ATOM     22  N   LIG    1       -5.010   1.282   7.292  0.00  0.00    -0.300 NA
BRANCH  18  24
ATOM     23  C   LIG    1       -7.681  -0.668   8.934  0.00  0.00    +0.100 C 
ATOM     24  C   LIG    1       -6.696   0.502   8.889  0.00  0.00    +0.180 C 
ATOM     25  C   LIG    1       -7.468   1.821   8.955  0.00  0.00    +0.080 C 
ATOM     26  C   LIG    1       -5.740   0.410  10.081  0.00  0.00    +0.080 C 
ENDBRANCH  18  24
ENDBRANCH  17  21
ENDBRANCH  15  17
ENDBRANCH   1  15
TORSDOF 6
