REMARK  Name = ZINCrD000000BXjp.0
REMARK                            x       y       z     vdW  Elec       q    Type
REMARK                         _______ _______ _______ _____ _____    ______ ____
ROOT
ATOM      1  O   LIG    1       -1.085  -2.351   0.149  0.00  0.00    -0.560 OA
ATOM      2  C   LIG    1       -1.139  -1.655   1.144  0.00  0.00    +0.710 C 
ATOM      3  N   LIG    1       -0.580  -0.428   1.140  0.00  0.00    -0.730 N 
ATOM      4  H   LIG    1       -0.623   0.127   1.934  0.00  0.00    +0.400 HD
ATOM      5  N   LIG    1       -1.757  -2.109   2.252  0.00  0.00    -0.690 N 
ATOM      6  H   LIG    1       -1.869  -1.526   3.019  0.00  0.00    +0.410 HD
ENDROOT
BRANCH   5   7
ATOM      7  C   LIG    1       -2.238  -3.423   2.296  0.00  0.00    +0.180 A 
ATOM      8  C   LIG    1       -3.404  -3.713   2.993  0.00  0.00    +0.010 A 
ATOM      9  C   LIG    1       -3.881  -5.008   3.032  0.00  0.00    +0.050 A 
ATOM     10  C   LIG    1       -3.189  -6.022   2.383  0.00  0.00    +0.100 A 
ATOM     11  C   LIG    1       -2.021  -5.734   1.690  0.00  0.00    +0.070 A 
ATOM     12  C   LIG    1       -1.547  -4.438   1.647  0.00  0.00    +0.050 A 
BRANCH  10  13
ATOM     13  N   LIG    1       -3.672  -7.339   2.427  0.00  0.00    -0.240 N 
ATOM     14  C   LIG    1       -4.795  -7.758   3.071  0.00  0.00    +0.140 A 
ATOM     15  C   LIG    1       -4.879  -9.091   2.850  0.00  0.00    +0.160 A 
ATOM     16  N   LIG    1       -3.820  -9.420   2.103  0.00  0.00    -0.260 NA
ATOM     17  N   LIG    1       -3.125  -8.363   1.869  0.00  0.00    -0.080 NA
ENDBRANCH  10  13
ENDBRANCH   5   7
BRANCH   3  18
ATOM     18  C   LIG    1        0.092   0.066  -0.064  0.00  0.00    +0.260 C 
ATOM     19  C   LIG    1        1.585  -0.336  -0.052  0.00  0.00    +0.040 C 
ATOM     20  C   LIG    1        2.281   0.933   0.501  0.00  0.00    +0.180 C 
ATOM     21  N   LIG    1        1.504   2.041  -0.112  0.00  0.00    -0.480 N 
ATOM     22  C   LIG    1        0.091   1.606  -0.083  0.00  0.00    +0.190 C 
BRANCH  21  23
ATOM     23  C   LIG    1        1.677   3.228   0.603  0.00  0.00    +0.090 A 
ATOM     24  C   LIG    1        2.262   4.330  -0.008  0.00  0.00    +0.050 A 
ATOM     25  C   LIG    1        2.432   5.503   0.701  0.00  0.00    +0.040 A 
ATOM     26  C   LIG    1        2.021   5.582   2.018  0.00  0.00    +0.030 A 
ATOM     27  C   LIG    1        1.437   4.486   2.631  0.00  0.00    -0.020 A 
ATOM     28 CL   LIG    1        0.922   4.590   4.286  0.00  0.00    -0.070 Cl
ATOM     29  C   LIG    1        1.260   3.312   1.925  0.00  0.00    -0.010 A 
ENDBRANCH  21  23
ENDBRANCH   3  18
TORSDOF 4
