REMARK  Name = ZINCrH000004k0V6.0
REMARK                            x       y       z     vdW  Elec       q    Type
REMARK                         _______ _______ _______ _____ _____    ______ ____
ROOT
ATOM      1  C   LIG    1       -2.937   0.696   1.501  0.00  0.00    +0.250 C 
ENDROOT
BRANCH   1   4
ATOM      2  C   LIG    1       -3.045  -1.963   0.520  0.00  0.00    +0.280 C 
ATOM      3  N   LIG    1       -4.280  -1.312   0.965  0.00  0.00    -0.600 N 
ATOM      4  C   LIG    1       -4.239  -0.063   1.470  0.00  0.00    +0.520 C 
ATOM      5  O   LIG    1       -5.250   0.451   1.899  0.00  0.00    -0.530 OA
BRANCH   3   6
ATOM      6  C   LIG    1       -5.559  -2.018   0.860  0.00  0.00    +0.360 C 
BRANCH   6   7
ATOM      7  C   LIG    1       -6.185  -1.727  -0.480  0.00  0.00    -0.130 A 
ATOM      8  C   LIG    1       -7.016  -0.701  -0.676  0.00  0.00    -0.010 A 
ATOM      9  S   LIG    1       -7.540  -0.679  -2.354  0.00  0.00    +0.100 S 
ATOM     10  C   LIG    1       -6.580  -2.111  -2.704  0.00  0.00    -0.050 A 
ATOM     11  C   LIG    1       -5.947  -2.506  -1.598  0.00  0.00    +0.010 A 
ENDBRANCH   6   7
ENDBRANCH   3   6
ENDBRANCH   1   4
BRANCH   1  12
ATOM     12  N   LIG    1       -3.074   1.865   2.372  0.00  0.00    -0.710 N 
ATOM     13  H   LIG    1       -3.948   2.255   2.527  0.00  0.00    +0.410 HD
ATOM     14  C   LIG    1       -1.984   2.399   2.959  0.00  0.00    +0.560 C 
ATOM     15  O   LIG    1       -0.888   1.910   2.766  0.00  0.00    -0.510 OA
BRANCH  14  16
ATOM     16  C   LIG    1       -2.122   3.579   3.839  0.00  0.00    -0.130 A 
ATOM     17  C   LIG    1       -3.378   4.147   4.059  0.00  0.00    +0.040 A 
ATOM     18  C   LIG    1       -3.501   5.246   4.884  0.00  0.00    +0.000 A 
ATOM     19  C   LIG    1       -2.380   5.791   5.485  0.00  0.00    +0.040 A 
ATOM     20  C   LIG    1       -1.131   5.237   5.267  0.00  0.00    +0.000 A 
ATOM     21  C   LIG    1       -0.996   4.135   4.448  0.00  0.00    +0.080 A 
ENDBRANCH  14  16
ENDBRANCH   1  12
BRANCH   1  22
ATOM     22  C   LIG    1       -2.579   1.153   0.085  0.00  0.00    +0.080 C 
BRANCH  22  23
ATOM     23  C   LIG    1       -1.212   1.787   0.093  0.00  0.00    -0.070 A 
ATOM     24  C   LIG    1       -0.089   1.010  -0.124  0.00  0.00    +0.000 A 
ATOM     25  C   LIG    1        1.165   1.593  -0.122  0.00  0.00    +0.010 A 
ATOM     26  C   LIG    1        1.296   2.951   0.100  0.00  0.00    +0.000 A 
ATOM     27  C   LIG    1        0.173   3.726   0.322  0.00  0.00    +0.010 A 
ATOM     28  C   LIG    1       -1.081   3.144   0.321  0.00  0.00    +0.010 A 
ENDBRANCH  22  23
ENDBRANCH   1  22
TORSDOF 7
