REMARK  Name = ZINCkj000005lhp6.0
REMARK                            x       y       z     vdW  Elec       q    Type
REMARK                         _______ _______ _______ _____ _____    ______ ____
ROOT
ATOM      1  C   LIG    1        1.561   3.185   0.775  0.00  0.00    +0.280 C 
ENDROOT
BRANCH   1   5
ATOM      2  C   LIG    1        0.055  -0.028  -0.075  0.00  0.00    +0.010 C 
ATOM      3  C   LIG    1        1.556  -0.397  -0.071  0.00  0.00    +0.090 C 
ATOM      4  C   LIG    1        2.223   0.868   0.526  0.00  0.00    +0.270 C 
ATOM      5  N   LIG    1        1.423   1.978  -0.051  0.00  0.00    -0.390 N 
ATOM      6  H   LIG    1        1.721   2.166  -0.997  0.00  0.00    +0.430 HD
ATOM      7  C   LIG    1        0.020   1.511  -0.042  0.00  0.00    +0.290 C 
BRANCH   2  11
ATOM      8  N   LIG    1       -0.684  -1.866  -1.556  0.00  0.00    -0.840 N 
ATOM      9  H   LIG    1       -1.109  -2.196  -2.363  0.00  0.00    +0.420 HD
ATOM     10  H   LIG    1       -0.314  -2.491  -0.913  0.00  0.00    +0.410 HD
ATOM     11  C   LIG    1       -0.606  -0.540  -1.328  0.00  0.00    +0.520 C 
ATOM     12  O   LIG    1       -1.069   0.241  -2.132  0.00  0.00    -0.530 OA
ENDBRANCH   2  11
ENDBRANCH   1   5
BRANCH   1  13
ATOM     13  C   LIG    1        2.988   3.725   0.654  0.00  0.00    -0.040 C 
ATOM     14  C   LIG    1        3.222   4.348  -0.747  0.00  0.00    +0.030 C 
ATOM     15  C   LIG    1        4.347   5.371  -0.450  0.00  0.00    +0.210 C 
ATOM     16  N   LIG    1        4.024   5.910   0.889  0.00  0.00    -0.490 N 
ATOM     17  C   LIG    1        3.201   4.920   1.607  0.00  0.00    +0.220 C 
BRANCH  16  18
ATOM     18  C   LIG    1        5.187   6.206   1.603  0.00  0.00    +0.070 A 
ATOM     19  C   LIG    1        6.032   5.183   2.014  0.00  0.00    -0.040 A 
ATOM     20  C   LIG    1        7.184   5.480   2.715  0.00  0.00    +0.010 A 
ATOM     21  C   LIG    1        7.491   6.794   3.018  0.00  0.00    +0.020 A 
ATOM     22  C   LIG    1        6.649   7.815   2.615  0.00  0.00    +0.020 A 
ATOM     23  C   LIG    1        5.499   7.525   1.909  0.00  0.00    +0.040 A 
ENDBRANCH  16  18
ENDBRANCH   1  13
TORSDOF 4
