REMARK  Name = ZINCkj000005lhp6.1
REMARK                            x       y       z     vdW  Elec       q    Type
REMARK                         _______ _______ _______ _____ _____    ______ ____
ROOT
ATOM      1  C   LIG    1        2.888   6.522   0.113  0.00  0.00    +0.280 C 
ENDROOT
BRANCH   1   5
ATOM      2  C   LIG    1        2.912  10.122   0.938  0.00  0.00    +0.000 C 
ATOM      3  C   LIG    1        1.641   9.634   1.664  0.00  0.00    +0.090 C 
ATOM      4  C   LIG    1        1.522   8.138   1.301  0.00  0.00    +0.270 C 
ATOM      5  N   LIG    1        2.906   7.725   0.955  0.00  0.00    -0.390 N 
ATOM      6  H   LIG    1        3.448   7.563   1.791  0.00  0.00    +0.430 HD
ATOM      7  C   LIG    1        3.454   8.881   0.198  0.00  0.00    +0.300 C 
BRANCH   2  11
ATOM      8  N   LIG    1        2.078  12.386   0.393  0.00  0.00    -0.840 N 
ATOM      9  H   LIG    1        1.858  13.087  -0.241  0.00  0.00    +0.420 HD
ATOM     10  H   LIG    1        1.945  12.532   1.343  0.00  0.00    +0.410 HD
ATOM     11  C   LIG    1        2.570  11.211  -0.046  0.00  0.00    +0.530 C 
ATOM     12  O   LIG    1        2.736  11.029  -1.234  0.00  0.00    -0.530 OA
ENDBRANCH   2  11
ENDBRANCH   1   5
BRANCH   1  13
ATOM     13  C   LIG    1        2.440   5.321   0.949  0.00  0.00    -0.020 C 
ATOM     14  C   LIG    1        0.946   5.454   1.323  0.00  0.00    +0.040 C 
ATOM     15  C   LIG    1        0.425   4.001   1.190  0.00  0.00    +0.200 C 
ATOM     16  N   LIG    1        1.162   3.483   0.009  0.00  0.00    -0.480 N 
ATOM     17  C   LIG    1        2.533   4.027   0.119  0.00  0.00    +0.200 C 
BRANCH  16  18
ATOM     18  C   LIG    1        1.178   2.086   0.002  0.00  0.00    +0.060 A 
ATOM     19  C   LIG    1        0.561   1.389  -1.029  0.00  0.00    +0.040 A 
ATOM     20  C   LIG    1        0.578   0.008  -1.033  0.00  0.00    +0.020 A 
ATOM     21  C   LIG    1        1.209  -0.681  -0.013  0.00  0.00    +0.020 A 
ATOM     22  C   LIG    1        1.824   0.011   1.015  0.00  0.00    +0.020 A 
ATOM     23  C   LIG    1        1.810   1.392   1.025  0.00  0.00    -0.030 A 
ENDBRANCH  16  18
ENDBRANCH   1  13
TORSDOF 4
