REMARK  Name = ZINCvU0000000H2l.0
REMARK                            x       y       z     vdW  Elec       q    Type
REMARK                         _______ _______ _______ _____ _____    ______ ____
ROOT
ATOM      1  N   LIG    1        0.381  -0.070  -1.008  0.00  0.00    -0.520 NA
ATOM      2  C   LIG    1       -0.277   0.469   0.189  0.00  0.00    +0.180 C 
ATOM      3  C   LIG    1       -0.211   1.997   0.164  0.00  0.00    +0.080 C 
ATOM      4  C   LIG    1        1.254   2.440   0.120  0.00  0.00    -0.010 C 
ATOM      5  C   LIG    1        1.928   1.826  -1.110  0.00  0.00    +0.050 C 
ATOM      6  C   LIG    1        1.800   0.302  -1.048  0.00  0.00    +0.180 C 
ENDROOT
BRANCH   4   7
ATOM      7  C   LIG    1        1.324   3.943   0.035  0.00  0.00    +0.520 C 
ATOM      8  N   LIG    1        2.521   4.560  -0.015  0.00  0.00    -0.670 N 
ATOM      9  H   LIG    1        3.335   4.036  -0.079  0.00  0.00    +0.420 HD
ATOM     10  O   LIG    1        0.303   4.597   0.012  0.00  0.00    -0.510 OA
BRANCH   8  11
ATOM     11  C   LIG    1        2.590   5.959   0.025  0.00  0.00    +0.140 A 
ATOM     12  C   LIG    1        1.567   6.689   0.611  0.00  0.00    +0.050 A 
ATOM     13  C   LIG    1        1.640   8.070   0.653  0.00  0.00    -0.020 A 
ATOM     14  C   LIG    1        2.727   8.725   0.103  0.00  0.00    +0.030 A 
ATOM     15  C   LIG    1        3.748   8.003  -0.488  0.00  0.00    +0.030 A 
ATOM     16 CL   LIG    1        0.362   8.982   1.393  0.00  0.00    -0.060 Cl
ATOM     17  C   LIG    1        3.684   6.620  -0.529  0.00  0.00    +0.080 A 
BRANCH  17  18
ATOM     18  O   LIG    1        4.688   5.909  -1.110  0.00  0.00    -0.490 OA
ATOM     19  H   LIG    1        4.558   5.746  -2.055  0.00  0.00    +0.390 HD
ENDBRANCH  17  18
ENDBRANCH   8  11
ENDBRANCH   4   7
BRANCH   1  21
ATOM     20  C   LIG    1        1.012  -2.067  -2.279  0.00  0.00    +0.060 C 
ATOM     21  C   LIG    1        0.216  -1.528  -1.088  0.00  0.00    +0.230 C 
BRANCH  21  22
ATOM     22  C   LIG    1       -1.243  -1.860  -1.268  0.00  0.00    +0.300 A 
ATOM     23  N   LIG    1       -2.027  -1.318  -2.153  0.00  0.00    -0.440 NA
ATOM     24  C   LIG    1       -3.274  -1.844  -2.042  0.00  0.00    +0.050 A 
ATOM     25  C   LIG    1       -4.474  -1.630  -2.724  0.00  0.00    +0.070 A 
ATOM     26  C   LIG    1       -5.592  -2.332  -2.370  0.00  0.00    +0.010 A 
ATOM     27  C   LIG    1       -5.550  -3.259  -1.339  0.00  0.00    +0.030 A 
ATOM     28  C   LIG    1       -4.376  -3.486  -0.651  0.00  0.00    +0.020 A 
ATOM     29  C   LIG    1       -3.230  -2.782  -0.996  0.00  0.00    +0.050 A 
ATOM     30  N   LIG    1       -1.931  -2.774  -0.531  0.00  0.00    -0.550 N 
BRANCH  30  31
ATOM     31  C   LIG    1       -1.393  -3.594   0.558  0.00  0.00    +0.640 C 
ATOM     32  F   LIG    1       -0.035  -3.843   0.327  0.00  0.00    -0.180 F 
ATOM     33  F   LIG    1       -2.087  -4.807   0.614  0.00  0.00    -0.180 F 
ENDBRANCH  30  31
ENDBRANCH  21  22
ENDBRANCH   1  21
TORSDOF 6
