REMARK  Name = ZINCrD000000BzAr.0
REMARK                            x       y       z     vdW  Elec       q    Type
REMARK                         _______ _______ _______ _____ _____    ______ ____
ROOT
ATOM      1  C   LIG    1       -4.838   1.055   0.031  0.00  0.00    -0.170 A 
ATOM      2  C   LIG    1       -4.824  -0.342   0.023  0.00  0.00    +0.080 A 
ATOM      3  C   LIG    1       -6.011  -1.041   0.025  0.00  0.00    -0.020 A 
ATOM      4  C   LIG    1       -7.220  -0.365   0.035  0.00  0.00    +0.090 A 
ATOM      5  C   LIG    1       -7.249   1.015   0.043  0.00  0.00    -0.080 A 
ATOM      6  C   LIG    1       -6.064   1.735   0.046  0.00  0.00    +0.190 A 
ENDROOT
BRANCH   1   9
ATOM      7  N   LIG    1       -2.394   1.152   0.020  0.00  0.00    -0.520 N 
ATOM      8  H   LIG    1       -2.381   0.182   0.014  0.00  0.00    +0.430 HD
ATOM      9  C   LIG    1       -3.571   1.810   0.029  0.00  0.00    +0.560 C 
ATOM     10  O   LIG    1       -3.587   3.026   0.035  0.00  0.00    -0.510 OA
BRANCH   7  13
ATOM     11  O   LIG    1        0.002  -0.004   0.002  0.00  0.00    -0.530 OA
ATOM     12  C   LIG    1       -0.014   1.211   0.009  0.00  0.00    +0.560 C 
ATOM     13  N   LIG    1       -1.191   1.869   0.018  0.00  0.00    -0.510 N 
ATOM     14  H   LIG    1       -1.204   2.839   0.023  0.00  0.00    +0.430 HD
BRANCH  12  15
ATOM     15  C   LIG    1        1.258   1.969   0.001  0.00  0.00    -0.080 A 
ATOM     16  C   LIG    1        1.262   3.367   0.002  0.00  0.00    +0.000 A 
ATOM     17  C   LIG    1        2.472   4.034   0.000  0.00  0.00    +0.270 A 
ATOM     18  N   LIG    1        3.611   3.370  -0.014  0.00  0.00    -0.460 NA
ATOM     19  C   LIG    1        3.652   2.053  -0.022  0.00  0.00    +0.270 A 
ATOM     20  C   LIG    1        2.489   1.306  -0.015  0.00  0.00    +0.040 A 
ENDBRANCH  12  15
ENDBRANCH   7  13
ENDBRANCH   1   9
BRANCH   6  21
ATOM     21  O   LIG    1       -6.090   3.091   0.059  0.00  0.00    -0.270 OA
BRANCH  21  22
ATOM     22  C   LIG    1       -7.376   3.715   0.074  0.00  0.00    +0.250 C 
BRANCH  22  23
ATOM     23  C   LIG    1       -7.207   5.213   0.088  0.00  0.00    -0.090 A 
ATOM     24  C   LIG    1       -7.127   5.888   1.291  0.00  0.00    +0.050 A 
ATOM     25  C   LIG    1       -6.968   7.261   1.304  0.00  0.00    +0.030 A 
ATOM     26  C   LIG    1       -6.900   7.960   0.112  0.00  0.00    -0.020 A 
ATOM     27  C   LIG    1       -6.986   7.284  -1.092  0.00  0.00    +0.030 A 
ATOM     28 CL   LIG    1       -6.708   9.686   0.127  0.00  0.00    -0.070 Cl
ATOM     29  C   LIG    1       -7.139   5.911  -1.104  0.00  0.00    +0.050 A 
ENDBRANCH  22  23
ENDBRANCH  21  22
ENDBRANCH   6  21
TORSDOF 6
