REMARK  Name = ZINCAx0000000a90.0
REMARK                            x       y       z     vdW  Elec       q    Type
REMARK                         _______ _______ _______ _____ _____    ______ ____
ROOT
ATOM      1  C   LIG    1       -2.379  -6.749  -1.936  0.00  0.00    +0.110 C 
ATOM      2  C   LIG    1       -1.585  -6.892  -0.636  0.00  0.00    +0.170 C 
ATOM      3  N   LIG    1       -2.495  -7.032   0.514  0.00  0.00    -0.720 N 
ATOM      4  H   LIG    1       -3.139  -7.743   0.660  0.00  0.00    +0.440 HD
ATOM      5  C   LIG    1       -2.256  -5.986   1.325  0.00  0.00    +0.710 C 
ATOM      6  N   LIG    1       -1.308  -5.173   0.844  0.00  0.00    -0.560 N 
ATOM      7  O   LIG    1       -2.838  -5.798   2.375  0.00  0.00    -0.540 OA
ATOM      8  C   LIG    1       -0.824  -5.616  -0.333  0.00  0.00    +0.540 C 
ATOM      9  O   LIG    1        0.041  -5.102  -1.010  0.00  0.00    -0.460 OA
ENDROOT
BRANCH   2  10
ATOM     10  C   LIG    1       -0.643  -8.065  -0.717  0.00  0.00    -0.090 A 
ATOM     11  C   LIG    1       -1.085  -9.305  -0.371  0.00  0.00    +0.050 A 
ATOM     12  C   LIG    1       -0.209 -10.401  -0.446  0.00  0.00    -0.050 A 
ATOM     13  C   LIG    1       -0.629 -11.696  -0.097  0.00  0.00    +0.030 A 
ATOM     14  C   LIG    1        0.248 -12.734  -0.182  0.00  0.00    +0.020 A 
ATOM     15  C   LIG    1        1.558 -12.533  -0.611  0.00  0.00    +0.020 A 
ATOM     16  C   LIG    1        2.000 -11.293  -0.956  0.00  0.00    +0.020 A 
ATOM     17  C   LIG    1        1.124 -10.197  -0.881  0.00  0.00    -0.050 A 
ATOM     18  C   LIG    1        1.544  -8.902  -1.231  0.00  0.00    +0.030 A 
ATOM     19  C   LIG    1        0.666  -7.865  -1.151  0.00  0.00    +0.030 A 
ENDBRANCH   2  10
BRANCH   6  20
ATOM     20  C   LIG    1       -0.848  -3.956   1.517  0.00  0.00    +0.350 C 
BRANCH  20  21
ATOM     21  C   LIG    1       -1.678  -2.785   1.058  0.00  0.00    +0.500 C 
ATOM     22  N   LIG    1       -1.434  -1.553   1.547  0.00  0.00    -0.700 N 
ATOM     23  H   LIG    1       -0.724  -1.420   2.195  0.00  0.00    +0.410 HD
ATOM     24  O   LIG    1       -2.566  -2.950   0.248  0.00  0.00    -0.530 OA
BRANCH  22  25
ATOM     25  C   LIG    1       -2.240  -0.414   1.101  0.00  0.00    +0.320 C 
BRANCH  25  26
ATOM     26  C   LIG    1       -1.768   0.838   1.794  0.00  0.00    -0.090 A 
ATOM     27  C   LIG    1       -2.458   1.326   2.887  0.00  0.00    +0.030 A 
ATOM     28  C   LIG    1       -2.024   2.475   3.522  0.00  0.00    +0.000 A 
ATOM     29  C   LIG    1       -0.900   3.135   3.064  0.00  0.00    +0.010 A 
ATOM     30  C   LIG    1       -0.206   2.645   1.974  0.00  0.00    +0.000 A 
ATOM     31  C   LIG    1       -0.643   1.499   1.335  0.00  0.00    -0.060 A 
BRANCH  31  32
ATOM     32  C   LIG    1        0.110   0.968   0.143  0.00  0.00    +0.230 C 
BRANCH  32  33
ATOM     33  N   LIG    1        0.971  -0.145   0.564  0.00  0.00    -0.530 NA
ATOM     34  C   LIG    1        2.099   0.339   1.372  0.00  0.00    +0.140 C 
ATOM     35  C   LIG    1        2.935  -0.856   1.839  0.00  0.00    +0.220 C 
ATOM     36  O   LIG    1        3.367  -1.604   0.699  0.00  0.00    -0.380 OA
ATOM     37  C   LIG    1        2.294  -2.091  -0.111  0.00  0.00    +0.220 C 
ATOM     38  C   LIG    1        1.451  -0.908  -0.597  0.00  0.00    +0.150 C 
ENDBRANCH  32  33
ENDBRANCH  31  32
ENDBRANCH  25  26
ENDBRANCH  22  25
ENDBRANCH  20  21
ENDBRANCH   6  20
TORSDOF 7
