REMARK  Name = ZINCvU00000006gL.0
REMARK                            x       y       z     vdW  Elec       q    Type
REMARK                         _______ _______ _______ _____ _____    ______ ____
ROOT
ATOM      1  S   LIG    1        0.679   5.880   0.028  0.00  0.00    +0.110 S 
ENDROOT
BRANCH   1  13
ATOM      2  N   LIG    1       -0.884   3.674   0.031  0.00  0.00    -0.510 N 
ATOM      3  C   LIG    1       -1.124   2.348   0.031  0.00  0.00    +0.570 A 
ATOM      4  C   LIG    1       -0.018   1.447   0.010  0.00  0.00    -0.230 A 
ATOM      5  C   LIG    1        1.266   1.988   0.001  0.00  0.00    +0.090 A 
ATOM      6  S   LIG    1        2.454   0.691  -0.018  0.00  0.00    +0.190 S 
ATOM      7  C   LIG    1        1.206  -0.541  -0.012  0.00  0.00    -0.200 A 
ATOM      8  C   LIG    1        1.476  -2.024  -0.023  0.00  0.00    +0.150 C 
ATOM      9  N   LIG    1        1.426   3.327   0.007  0.00  0.00    -0.510 NA
ATOM     10  C   LIG    1        0.002  -0.004   0.002  0.00  0.00    -0.030 A 
ATOM     11  C   LIG    1       -1.256  -0.833   0.009  0.00  0.00    +0.120 C 
ATOM     12  O   LIG    1       -2.267   1.925   0.045  0.00  0.00    -0.510 OA
ATOM     13  C   LIG    1        0.398   4.141   0.021  0.00  0.00    +0.360 A 
BRANCH   2  14
ATOM     14  C   LIG    1       -2.005   4.617   0.047  0.00  0.00    +0.340 C 
BRANCH  14  16
ATOM     15  C   LIG    1       -3.641   4.776  -1.758  0.00  0.00    +0.070 C 
ATOM     16  C   LIG    1       -2.402   4.949  -1.369  0.00  0.00    -0.070 C 
ENDBRANCH  14  16
ENDBRANCH   2  14
ENDBRANCH   1  13
BRANCH   1  17
ATOM     17  C   LIG    1        2.489   5.906   0.010  0.00  0.00    +0.120 C 
BRANCH  17  18
ATOM     18  C   LIG    1        2.971   7.334   0.013  0.00  0.00    +0.530 C 
ATOM     19  N   LIG    1        4.292   7.599   0.001  0.00  0.00    -0.650 N 
ATOM     20  H   LIG    1        4.933   6.871  -0.009  0.00  0.00    +0.430 HD
ATOM     21  O   LIG    1        2.170   8.245   0.026  0.00  0.00    -0.440 OA
BRANCH  19  22
ATOM     22  C   LIG    1        4.738   8.921   0.004  0.00  0.00    +0.410 A 
ATOM     23  N   LIG    1        3.859   9.909   0.012  0.00  0.00    -0.460 NA
ATOM     24  C   LIG    1        4.238  11.173   0.020  0.00  0.00    +0.380 A 
ATOM     25  C   LIG    1        5.577  11.511   0.009  0.00  0.00    -0.260 A 
ATOM     26  C   LIG    1        6.532  10.504  -0.006  0.00  0.00    +0.190 A 
ATOM     27  C   LIG    1        6.104   9.187  -0.008  0.00  0.00    -0.130 A 
ATOM     28 CL   LIG    1        7.254   7.888  -0.027  0.00  0.00    -0.030 Cl
BRANCH  25  29
ATOM     29  C   LIG    1        5.997  12.959   0.011  0.00  0.00    +0.520 C 
ATOM     30  F   LIG    1        7.230  13.085   0.659  0.00  0.00    -0.170 F 
ATOM     31  F   LIG    1        5.036  13.721   0.684  0.00  0.00    -0.170 F 
ATOM     32  F   LIG    1        6.113  13.413  -1.307  0.00  0.00    -0.170 F 
ENDBRANCH  25  29
ENDBRANCH  19  22
ENDBRANCH  17  18
ENDBRANCH   1  17
TORSDOF 7
