REMARK  Name = ZINC650000003Wq6.0
REMARK                            x       y       z     vdW  Elec       q    Type
REMARK                         _______ _______ _______ _____ _____    ______ ____
ROOT
ATOM      1  N   LIG    1       -0.011   0.966   0.007  0.00  0.00    -0.860 NA
ATOM      2  H   LIG    1        0.002  -0.004   0.002  0.00  0.00    +0.330 HD
ATOM      3  C   LIG    1        1.112   1.635   0.000  0.00  0.00    +0.440 A 
ATOM      4  N   LIG    1        2.376   1.107  -0.015  0.00  0.00    -0.560 NA
ATOM      5  N   LIG    1        3.261   2.196  -0.018  0.00  0.00    -0.310 NA
ATOM      6  C   LIG    1        2.562   3.281  -0.005  0.00  0.00    +0.280 A 
ATOM      7  O   LIG    1        1.248   2.976   0.001  0.00  0.00    -0.310 OA
ENDROOT
TORSDOF 0
