REMARK  Name = ZINCrH000004uamh.0
REMARK                            x       y       z     vdW  Elec       q    Type
REMARK                         _______ _______ _______ _____ _____    ______ ____
ROOT
ATOM      1  O   LIG    1        3.567  -0.058  -1.544  0.00  0.00    -0.510 OA
ATOM      2  C   LIG    1        2.355  -0.024  -1.565  0.00  0.00    +0.560 C 
ATOM      3  N   LIG    1        1.659  -1.074  -2.044  0.00  0.00    -0.720 N 
ATOM      4  H   LIG    1        0.690  -1.038  -2.079  0.00  0.00    +0.390 HD
ENDROOT
BRANCH   2   5
ATOM      5  C   LIG    1        1.627   1.194  -1.055  0.00  0.00    -0.210 C 
ATOM      6  C   LIG    1        1.245   1.220   0.426  0.00  0.00    +0.090 C 
ATOM      7  C   LIG    1        2.377   2.112  -0.089  0.00  0.00    +0.130 C 
BRANCH   5   8
ATOM      8  C   LIG    1        0.676   1.838  -2.030  0.00  0.00    +0.560 C 
ATOM      9  N   LIG    1       -0.311   1.111  -2.590  0.00  0.00    -0.670 N 
ATOM     10  H   LIG    1       -0.362   0.156  -2.427  0.00  0.00    +0.400 HD
ATOM     11  O   LIG    1        0.799   3.011  -2.312  0.00  0.00    -0.500 OA
BRANCH   9  12
ATOM     12  C   LIG    1       -1.261   1.732  -3.410  0.00  0.00    +0.130 A 
ATOM     13  C   LIG    1       -0.896   2.817  -4.196  0.00  0.00    +0.060 A 
ATOM     14  C   LIG    1       -1.833   3.426  -5.009  0.00  0.00    +0.010 A 
ATOM     15  C   LIG    1       -3.137   2.961  -5.032  0.00  0.00    +0.090 A 
ATOM     16  C   LIG    1       -3.504   1.883  -4.244  0.00  0.00    +0.010 A 
ATOM     17  F   LIG    1       -4.053   3.561  -5.823  0.00  0.00    -0.140 F 
ATOM     18  C   LIG    1       -2.569   1.268  -3.434  0.00  0.00    +0.030 A 
ENDBRANCH   9  12
ENDBRANCH   5   8
ENDBRANCH   2   5
BRANCH   3  19
ATOM     19  C   LIG    1        2.365  -2.269  -2.510  0.00  0.00    +0.330 C 
BRANCH  19  20
ATOM     20  C   LIG    1        2.539  -3.246  -1.346  0.00  0.00    -0.060 C 
ATOM     21  C   LIG    1        3.555  -2.773  -0.292  0.00  0.00    +0.030 C 
ATOM     22  C   LIG    1        4.632  -3.493  -1.126  0.00  0.00    +0.010 C 
ATOM     23  C   LIG    1        3.507  -4.401  -1.650  0.00  0.00    +0.030 C 
BRANCH  20  24
ATOM     24  C   LIG    1        1.226  -3.697  -0.759  0.00  0.00    -0.060 A 
ATOM     25  C   LIG    1        0.801  -5.000  -0.937  0.00  0.00    +0.000 A 
ATOM     26  C   LIG    1       -0.401  -5.415  -0.395  0.00  0.00    +0.000 A 
ATOM     27  C   LIG    1       -1.182  -4.524   0.318  0.00  0.00    +0.000 A 
ATOM     28  C   LIG    1       -0.759  -3.220   0.492  0.00  0.00    +0.000 A 
ATOM     29  C   LIG    1        0.445  -2.806  -0.047  0.00  0.00    +0.000 A 
ENDBRANCH  20  24
ENDBRANCH  19  20
ENDBRANCH   3  19
TORSDOF 6
