REMARK  Name = ZINCrg00000KIPk8.0
REMARK                            x       y       z     vdW  Elec       q    Type
REMARK                         _______ _______ _______ _____ _____    ______ ____
ROOT
ATOM      1  C   LIG    1        5.282  -3.373  -0.390  0.00  0.00    +0.520 C 
ATOM      2  N   LIG    1        6.280  -2.786   0.300  0.00  0.00    -0.730 N 
ATOM      3  H   LIG    1        6.143  -1.913   0.701  0.00  0.00    +0.400 HD
ATOM      4  O   LIG    1        5.453  -4.464  -0.892  0.00  0.00    -0.530 OA
ENDROOT
BRANCH   1  10
ATOM      5  C   LIG    1        0.513   0.438  -2.283  0.00  0.00    +0.570 A 
ATOM      6  N   LIG    1        0.529  -0.853  -1.993  0.00  0.00    -0.570 NA
ATOM      7  C   LIG    1        1.659  -1.463  -1.652  0.00  0.00    +0.230 A 
ATOM      8  C   LIG    1        2.826  -0.732  -1.610  0.00  0.00    -0.250 A 
ATOM      9  C   LIG    1        4.154  -1.338  -1.250  0.00  0.00    +0.110 C 
ATOM     10  C   LIG    1        3.955  -2.676  -0.538  0.00  0.00    -0.010 C 
ATOM     11  C   LIG    1        3.010  -3.539  -1.381  0.00  0.00    +0.070 C 
ATOM     12  C   LIG    1        2.774   0.623  -1.918  0.00  0.00    +0.370 A 
ATOM     13  C   LIG    1        1.610  -2.930  -1.319  0.00  0.00    +0.120 C 
ATOM     14  N   LIG    1        1.617   1.169  -2.246  0.00  0.00    -0.570 NA
BRANCH   5  15
ATOM     15  N   LIG    1       -0.684   1.035  -2.639  0.00  0.00    -0.820 N 
ATOM     16  H   LIG    1       -0.709   1.981  -2.854  0.00  0.00    +0.410 HD
ATOM     17  H   LIG    1       -1.498   0.509  -2.673  0.00  0.00    +0.410 HD
ENDBRANCH   5  15
ENDBRANCH   1  10
BRANCH   2  18
ATOM     18  C   LIG    1        7.570  -3.464   0.443  0.00  0.00    +0.330 C 
BRANCH  18  19
ATOM     19  C   LIG    1        8.504  -2.601   1.252  0.00  0.00    -0.120 A 
ATOM     20  C   LIG    1        9.424  -1.792   0.615  0.00  0.00    +0.050 A 
ATOM     21  C   LIG    1       10.281  -1.000   1.356  0.00  0.00    -0.010 A 
ATOM     22  C   LIG    1       10.221  -1.015   2.737  0.00  0.00    +0.030 A 
ATOM     23  C   LIG    1        9.304  -1.822   3.381  0.00  0.00    -0.040 A 
ATOM     24  C   LIG    1        8.437  -2.615   2.640  0.00  0.00    +0.110 A 
BRANCH  24  25
ATOM     25  N   LIG    1        7.505  -3.428   3.288  0.00  0.00    -0.470 N 
ATOM     26  C   LIG    1        7.672  -3.359   4.762  0.00  0.00    +0.180 C 
ATOM     27  C   LIG    1        6.303  -3.850   5.297  0.00  0.00    +0.010 C 
ATOM     28  C   LIG    1        5.300  -3.244   4.289  0.00  0.00    +0.160 C 
ATOM     29  C   LIG    1        6.124  -2.971   3.017  0.00  0.00    +0.210 C 
BRANCH  28  30
ATOM     30  O   LIG    1        4.252  -4.174   4.010  0.00  0.00    -0.560 OA
ATOM     31  H   LIG    1        3.699  -4.385   4.775  0.00  0.00    +0.380 HD
ENDBRANCH  28  30
ENDBRANCH  24  25
ENDBRANCH  18  19
ENDBRANCH   2  18
TORSDOF 6
