REMARK  Name = ZINCpe00000c7rsa.0
REMARK                            x       y       z     vdW  Elec       q    Type
REMARK                         _______ _______ _______ _____ _____    ______ ____
ROOT
ATOM      1  C   LIG    1       -1.158  -2.098  -0.074  0.00  0.00    +0.240 C 
ATOM      2  C   LIG    1       -1.488  -2.749   1.279  0.00  0.00    +0.030 C 
ATOM      3  C   LIG    1       -2.962  -2.744   0.830  0.00  0.00    +0.230 C 
ATOM      4  C   LIG    1       -2.439  -2.753  -0.616  0.00  0.00    +0.050 C 
ENDROOT
BRANCH   3   5
ATOM      5  N   LIG    1       -3.679  -1.517   1.187  0.00  0.00    -0.700 N 
ATOM      6  H   LIG    1       -3.493  -0.691   0.714  0.00  0.00    +0.400 HD
ATOM      7  C   LIG    1       -4.598  -1.536   2.173  0.00  0.00    +0.560 C 
ATOM      8  O   LIG    1       -4.897  -2.586   2.702  0.00  0.00    -0.500 OA
BRANCH   7   9
ATOM      9  C   LIG    1       -5.253  -0.254   2.618  0.00  0.00    +0.040 C 
ATOM     10  C   LIG    1       -6.773  -0.261   2.791  0.00  0.00    +0.120 C 
ATOM     11  C   LIG    1       -6.141   0.473   1.606  0.00  0.00    +0.110 C 
BRANCH   9  12
ATOM     12  N   LIG    1       -4.470   0.568   3.544  0.00  0.00    -0.260 N 
ATOM     13  C   LIG    1       -3.804   0.119   4.633  0.00  0.00    +0.150 A 
ATOM     14  C   LIG    1       -3.223   1.206   5.194  0.00  0.00    +0.140 A 
ATOM     15  N   LIG    1       -3.557   2.252   4.430  0.00  0.00    -0.260 NA
ATOM     16  N   LIG    1       -4.291   1.839   3.457  0.00  0.00    -0.080 NA
ENDBRANCH   9  12
ENDBRANCH   7   9
ENDBRANCH   3   5
BRANCH   1  17
ATOM     17  N   LIG    1       -1.212  -0.634  -0.050  0.00  0.00    -0.680 N 
ATOM     18  H   LIG    1       -2.070  -0.181  -0.022  0.00  0.00    +0.410 HD
BRANCH  17  21
ATOM     19  C   LIG    1        2.264   0.197  -0.117  0.00  0.00    +0.450 A 
ATOM     20  N   LIG    1        1.140  -0.506  -0.102  0.00  0.00    -0.530 NA
ATOM     21  C   LIG    1       -0.039   0.104  -0.065  0.00  0.00    +0.460 A 
ATOM     22  C   LIG    1       -0.079   1.502  -0.042  0.00  0.00    -0.200 A 
ATOM     23  C   LIG    1        1.119   2.196  -0.059  0.00  0.00    +0.400 A 
ATOM     24 CL   LIG    1       -1.595   2.346  -0.001  0.00  0.00    -0.020 Cl
ATOM     25  N   LIG    1        2.257   1.522  -0.096  0.00  0.00    -0.510 NA
BRANCH  19  27
ATOM     26  N   LIG    1        4.513  -1.041  -0.188  0.00  0.00    -0.340 NA
ATOM     27  C   LIG    1        3.518  -0.493  -0.156  0.00  0.00    +0.280 C 
ENDBRANCH  19  27
ENDBRANCH  17  21
ENDBRANCH   1  17
TORSDOF 6
