REMARK  Name = ZINCqH0000006HHW.0
REMARK                            x       y       z     vdW  Elec       q    Type
REMARK                         _______ _______ _______ _____ _____    ______ ____
ROOT
ATOM      1  C   LIG    1        2.421  -0.245   0.080  0.00  0.00    +0.560 C 
ATOM      2  N   LIG    1        2.402   1.099  -0.015  0.00  0.00    -0.670 N 
ATOM      3  H   LIG    1        3.234   1.592  -0.088  0.00  0.00    +0.410 HD
ATOM      4  O   LIG    1        1.377  -0.869   0.087  0.00  0.00    -0.510 OA
ENDROOT
BRANCH   2   5
ATOM      5  C   LIG    1        1.181   1.784  -0.007  0.00  0.00    +0.150 A 
ATOM      6  C   LIG    1        1.087   3.028   0.603  0.00  0.00    +0.010 A 
ATOM      7  C   LIG    1       -0.119   3.705   0.617  0.00  0.00    +0.040 A 
ATOM      8  C   LIG    1       -1.230   3.144   0.011  0.00  0.00    +0.050 A 
ATOM      9  O   LIG    1       -2.424   3.808   0.016  0.00  0.00    -0.320 OA
ATOM     10  C   LIG    1       -2.882   4.279  -1.254  0.00  0.00    +0.230 C 
ATOM     11  C   LIG    1       -3.622   3.182  -2.001  0.00  0.00    -0.010 C 
ATOM     12  C   LIG    1       -2.717   2.014  -2.363  0.00  0.00    +0.230 C 
ATOM     13  O   LIG    1       -2.245   1.356  -1.185  0.00  0.00    -0.320 OA
ATOM     14  C   LIG    1       -1.140   1.901  -0.599  0.00  0.00    +0.090 A 
ATOM     15  C   LIG    1        0.064   1.218  -0.610  0.00  0.00    +0.030 A 
ENDBRANCH   2   5
BRANCH   1  18
ATOM     16  C   LIG    1        4.937  -3.019   0.362  0.00  0.00    +0.110 A 
ATOM     17  C   LIG    1        3.730  -2.354   0.279  0.00  0.00    +0.050 A 
ATOM     18  C   LIG    1        3.708  -0.960   0.175  0.00  0.00    -0.120 A 
ATOM     19  C   LIG    1        4.908  -0.245   0.167  0.00  0.00    +0.060 A 
ATOM     20  C   LIG    1        6.110  -0.914   0.256  0.00  0.00    -0.010 A 
ATOM     21  C   LIG    1        6.131  -2.299   0.354  0.00  0.00    +0.110 A 
BRANCH  16  23
ATOM     22  C   LIG    1        3.701  -5.048   0.458  0.00  0.00    +0.250 C 
ATOM     23  O   LIG    1        4.962  -4.375   0.456  0.00  0.00    -0.300 OA
ENDBRANCH  16  23
BRANCH  21  24
ATOM     24  O   LIG    1        7.318  -2.953   0.441  0.00  0.00    -0.300 OA
BRANCH  24  25
ATOM     25  C   LIG    1        8.502  -2.154   0.427  0.00  0.00    +0.600 C 
ATOM     26  F   LIG    1        8.481  -1.269   1.510  0.00  0.00    -0.200 F 
ATOM     27  F   LIG    1        8.561  -1.428  -0.767  0.00  0.00    -0.200 F 
ENDBRANCH  24  25
ENDBRANCH  21  24
ENDBRANCH   1  18
TORSDOF 5
