REMARK  Name = ZINCtV00000vyBjP.0
REMARK                            x       y       z     vdW  Elec       q    Type
REMARK                         _______ _______ _______ _____ _____    ______ ____
ROOT
ATOM      1  C   LIG    1       -2.898   0.149  -1.429  0.00  0.00    +0.190 A 
ATOM      2  N   LIG    1       -3.677  -0.626  -2.129  0.00  0.00    -0.270 NA
ATOM      3  N   LIG    1       -3.966  -0.065  -3.249  0.00  0.00    -0.290 NA
ATOM      4  C   LIG    1       -3.381   1.108  -3.324  0.00  0.00    +0.160 A 
ATOM      5  N   LIG    1       -2.686   1.284  -2.162  0.00  0.00    -0.450 N 
ENDROOT
BRANCH   5   6
ATOM      6  C   LIG    1       -1.877   2.445  -1.782  0.00  0.00    +0.240 C 
ATOM      7  C   LIG    1       -2.761   3.694  -1.754  0.00  0.00    +0.020 C 
ATOM      8  C   LIG    1       -1.917   4.906  -1.356  0.00  0.00    +0.030 C 
ATOM      9  C   LIG    1       -0.791   5.100  -2.375  0.00  0.00    +0.010 C 
ATOM     10  C   LIG    1        0.092   3.851  -2.403  0.00  0.00    +0.030 C 
ATOM     11  C   LIG    1       -0.752   2.639  -2.800  0.00  0.00    +0.010 C 
ENDBRANCH   5   6
BRANCH   1  12
ATOM     12  C   LIG    1       -2.340  -0.147  -0.061  0.00  0.00    +0.210 C 
BRANCH  12  19
ATOM     13  C   LIG    1       -6.398  -2.352   2.147  0.00  0.00    +0.010 A 
ATOM     14  C   LIG    1       -6.320  -1.126   2.734  0.00  0.00    +0.020 A 
ATOM     15  C   LIG    1       -5.299  -0.238   2.356  0.00  0.00    -0.050 A 
ATOM     16  C   LIG    1       -5.187   1.036   2.939  0.00  0.00    +0.030 A 
ATOM     17  C   LIG    1       -4.185   1.870   2.548  0.00  0.00    +0.000 A 
ATOM     18  C   LIG    1       -3.266   1.481   1.576  0.00  0.00    +0.010 A 
ATOM     19  C   LIG    1       -3.343   0.255   0.989  0.00  0.00    -0.070 A 
ATOM     20  C   LIG    1       -4.364  -0.634   1.367  0.00  0.00    -0.040 A 
ATOM     21  C   LIG    1       -4.476  -1.907   0.784  0.00  0.00    +0.040 A 
ATOM     22  C   LIG    1       -5.479  -2.741   1.175  0.00  0.00    +0.010 A 
ENDBRANCH  12  19
ENDBRANCH   1  12
BRANCH   4  23
ATOM     23  S   LIG    1       -3.481   2.244  -4.667  0.00  0.00    +0.020 S 
BRANCH  23  24
ATOM     24  C   LIG    1       -4.559   1.316  -5.785  0.00  0.00    +0.190 C 
BRANCH  24  25
ATOM     25  C   LIG    1       -4.791   2.117  -7.040  0.00  0.00    +0.070 A 
ATOM     26  C   LIG    1       -5.806   2.976  -7.173  0.00  0.00    -0.050 A 
ATOM     27  S   LIG    1       -5.704   3.692  -8.780  0.00  0.00    +0.140 S 
ATOM     28  C   LIG    1       -4.311   2.760  -9.116  0.00  0.00    +0.220 A 
ATOM     29  N   LIG    1       -4.012   2.023  -8.100  0.00  0.00    -0.460 NA
ENDBRANCH  24  25
ENDBRANCH  23  24
ENDBRANCH   4  23
TORSDOF 6
