REMARK  Name = ZINCvU0000000Bk8.0
REMARK                            x       y       z     vdW  Elec       q    Type
REMARK                         _______ _______ _______ _____ _____    ______ ____
ROOT
ATOM      1  C   LIG    1       -4.498   6.211  -3.505  0.00  0.00    +0.290 A 
ATOM      2  N   LIG    1       -5.046   6.100  -4.680  0.00  0.00    -0.480 NA
ATOM      3  C   LIG    1       -5.732   4.931  -4.755  0.00  0.00    +0.050 A 
ATOM      4  C   LIG    1       -6.493   4.322  -5.756  0.00  0.00    +0.070 A 
ATOM      5  C   LIG    1       -7.077   3.109  -5.526  0.00  0.00    +0.000 A 
ATOM      6  C   LIG    1       -6.923   2.470  -4.304  0.00  0.00    +0.030 A 
ATOM      7  C   LIG    1       -6.176   3.051  -3.301  0.00  0.00    +0.010 A 
ATOM      8  C   LIG    1       -5.576   4.284  -3.517  0.00  0.00    +0.050 A 
ATOM      9  N   LIG    1       -4.787   5.117  -2.749  0.00  0.00    -0.480 N 
ENDROOT
BRANCH   1  13
ATOM     10  O   LIG    1       -1.384   9.733  -4.482  0.00  0.00    -0.520 OA
ATOM     11  C   LIG    1       -2.352   9.133  -4.066  0.00  0.00    +0.520 C 
ATOM     12  C   LIG    1       -2.483   7.626  -4.017  0.00  0.00    +0.090 C 
ATOM     13  C   LIG    1       -3.662   7.379  -3.049  0.00  0.00    +0.090 C 
ATOM     14  C   LIG    1       -4.450   8.702  -3.166  0.00  0.00    +0.300 C 
ATOM     15  N   LIG    1       -3.465   9.709  -3.579  0.00  0.00    -0.610 N 
BRANCH  15  16
ATOM     16  C   LIG    1       -3.668  11.156  -3.474  0.00  0.00    +0.350 C 
BRANCH  16  17
ATOM     17  C   LIG    1       -4.299  11.669  -4.742  0.00  0.00    -0.110 A 
ATOM     18  C   LIG    1       -3.501  12.095  -5.788  0.00  0.00    +0.030 A 
ATOM     19  C   LIG    1       -4.080  12.562  -6.953  0.00  0.00    +0.000 A 
ATOM     20  C   LIG    1       -5.457  12.609  -7.070  0.00  0.00    +0.010 A 
ATOM     21  C   LIG    1       -6.254  12.187  -6.023  0.00  0.00    +0.000 A 
ATOM     22  C   LIG    1       -5.676  11.717  -4.859  0.00  0.00    +0.020 A 
ENDBRANCH  16  17
ENDBRANCH  15  16
ENDBRANCH   1  13
BRANCH   9  23
ATOM     23  C   LIG    1       -4.347   4.872  -1.373  0.00  0.00    +0.300 C 
BRANCH  23  24
ATOM     24  C   LIG    1       -3.012   4.125  -1.390  0.00  0.00    +0.010 C 
BRANCH  24  25
ATOM     25  C   LIG    1       -2.553   3.869   0.047  0.00  0.00    +0.080 C 
BRANCH  25  26
ATOM     26  C   LIG    1       -1.238   3.133   0.030  0.00  0.00    -0.090 A 
ATOM     27  C   LIG    1       -1.219   1.751   0.017  0.00  0.00    +0.000 A 
ATOM     28  C   LIG    1       -0.013   1.076   0.008  0.00  0.00    +0.000 A 
ATOM     29  C   LIG    1        1.175   1.783   0.000  0.00  0.00    +0.000 A 
ATOM     30  C   LIG    1        1.156   3.165   0.008  0.00  0.00    +0.000 A 
ATOM     31  C   LIG    1       -0.050   3.840   0.022  0.00  0.00    +0.000 A 
ENDBRANCH  25  26
ENDBRANCH  24  25
ENDBRANCH  23  24
ENDBRANCH   9  23
TORSDOF 7
