REMARK  Name = ZINCtV00000KYsVn.0
REMARK                            x       y       z     vdW  Elec       q    Type
REMARK                         _______ _______ _______ _____ _____    ______ ____
ROOT
ATOM      1  S   LIG    1       -1.545   4.721   9.597  0.00  0.00    +0.110 S 
ENDROOT
BRANCH   1   2
ATOM      2  C   LIG    1       -1.305   4.056   7.983  0.00  0.00    -0.000 A 
ATOM      3  N   LIG    1       -2.238   3.865   7.103  0.00  0.00    -0.260 NA
ATOM      4  N   LIG    1       -1.823   3.332   5.903  0.00  0.00    -0.330 NA
ATOM      5  C   LIG    1       -0.554   3.089   5.805  0.00  0.00    +0.300 A 
ATOM      6  S   LIG    1        0.238   3.539   7.312  0.00  0.00    +0.100 S 
BRANCH   5   7
ATOM      7  N   LIG    1        0.081   2.554   4.690  0.00  0.00    -0.620 N 
ATOM      8  H   LIG    1        1.025   2.333   4.729  0.00  0.00    +0.430 HD
BRANCH   7   9
ATOM      9  C   LIG    1       -0.640   2.334   3.514  0.00  0.00    +0.150 A 
ATOM     10  C   LIG    1       -0.219   1.368   2.609  0.00  0.00    -0.020 A 
ATOM     11  C   LIG    1       -0.934   1.153   1.447  0.00  0.00    +0.040 A 
ATOM     12  C   LIG    1       -2.071   1.895   1.187  0.00  0.00    -0.100 A 
ATOM     13  C   LIG    1       -2.491   2.862   2.083  0.00  0.00    -0.060 A 
ATOM     14  C   LIG    1       -3.728   3.672   1.792  0.00  0.00    +0.090 C 
ATOM     15  C   LIG    1       -2.853   1.654  -0.079  0.00  0.00    +0.090 C 
ATOM     16  C   LIG    1       -1.781   3.081   3.247  0.00  0.00    +0.010 A 
ENDBRANCH   7   9
ENDBRANCH   5   7
ENDBRANCH   1   2
BRANCH   1  17
ATOM     17  C   LIG    1       -3.331   5.030   9.650  0.00  0.00    +0.100 C 
BRANCH  17  20
ATOM     18  N   LIG    1       -4.985   5.921  11.259  0.00  0.00    -0.660 N 
ATOM     19  H   LIG    1       -5.682   5.697  10.623  0.00  0.00    +0.410 HD
ATOM     20  C   LIG    1       -3.702   5.609  10.991  0.00  0.00    +0.540 C 
ATOM     21  O   LIG    1       -2.844   5.796  11.828  0.00  0.00    -0.500 OA
BRANCH  18  27
ATOM     22  C   LIG    1       -6.588   6.434  12.992  0.00  0.00    -0.100 A 
ATOM     23  C   LIG    1       -6.908   7.073  14.174  0.00  0.00    +0.030 A 
ATOM     24  C   LIG    1       -5.961   7.843  14.825  0.00  0.00    -0.010 A 
ATOM     25  C   LIG    1       -4.691   7.976  14.294  0.00  0.00    +0.030 A 
ATOM     26  C   LIG    1       -4.363   7.335  13.115  0.00  0.00    +0.020 A 
ATOM     27  C   LIG    1       -5.313   6.566  12.457  0.00  0.00    +0.150 A 
BRANCH  22  28
ATOM     28  C   LIG    1       -7.620   5.596  12.284  0.00  0.00    +0.020 C 
ATOM     29  C   LIG    1       -8.766   6.492  11.808  0.00  0.00    +0.030 C 
BRANCH  28  31
ATOM     30  C   LIG    1       -9.121   3.609  12.495  0.00  0.00    +0.010 C 
ATOM     31  C   LIG    1       -8.165   4.538  13.246  0.00  0.00    +0.010 C 
ENDBRANCH  28  31
ENDBRANCH  22  28
ENDBRANCH  18  27
ENDBRANCH  17  20
ENDBRANCH   1  17
TORSDOF 8
