REMARK  Name = ZINCkj000005f8FE.0
REMARK                            x       y       z     vdW  Elec       q    Type
REMARK                         _______ _______ _______ _____ _____    ______ ____
ROOT
ATOM      1  C   LIG    1       -0.143   1.097  -2.446  0.00  0.00    +0.110 C 
ATOM      2  C   LIG    1       -0.957   1.913  -3.449  0.00  0.00    +0.090 C 
ATOM      3  C   LIG    1       -2.371   1.324  -3.516  0.00  0.00    +0.030 C 
ATOM      4  C   LIG    1       -2.294  -0.040  -4.199  0.00  0.00    +0.090 C 
ATOM      5  C   LIG    1       -1.237  -0.896  -3.553  0.00  0.00    -0.040 A 
ATOM      6  C   LIG    1       -1.280  -2.264  -3.789  0.00  0.00    +0.020 A 
ATOM      7  C   LIG    1       -0.340  -3.102  -3.231  0.00  0.00    +0.060 A 
ATOM      8  C   LIG    1        0.657  -2.578  -2.429  0.00  0.00    +0.020 A 
ATOM      9  C   LIG    1        0.701  -1.219  -2.191  0.00  0.00    +0.020 A 
ATOM     10  C   LIG    1       -0.248  -0.374  -2.751  0.00  0.00    -0.130 A 
ENDROOT
BRANCH   1  11
ATOM     11  N   LIG    1       -0.653   1.348  -1.091  0.00  0.00    -0.490 N 
ATOM     12  H   LIG    1       -1.635   1.118  -1.053  0.00  0.00    +0.440 HD
ATOM     13  H   LIG    1       -0.148   0.777  -0.430  0.00  0.00    +0.430 HD
BRANCH  11  14
ATOM     14  C   LIG    1       -0.470   2.766  -0.753  0.00  0.00    +0.280 C 
BRANCH  14  17
ATOM     15  N   LIG    1       -0.851   4.246   1.192  0.00  0.00    -0.700 N 
ATOM     16  H   LIG    1       -0.502   4.980   0.662  0.00  0.00    +0.410 HD
ATOM     17  C   LIG    1       -0.926   3.009   0.662  0.00  0.00    +0.500 C 
ATOM     18  O   LIG    1       -1.362   2.091   1.325  0.00  0.00    -0.530 OA
BRANCH  15  20
ATOM     19  C   LIG    1       -0.153   4.157   3.535  0.00  0.00    +0.030 C 
ATOM     20  C   LIG    1       -1.294   4.481   2.568  0.00  0.00    +0.230 C 
ATOM     21  C   LIG    1       -1.698   5.948   2.730  0.00  0.00    +0.050 C 
ENDBRANCH  15  20
ENDBRANCH  14  17
ENDBRANCH  11  14
ENDBRANCH   1  11
BRANCH   1  22
ATOM     22  C   LIG    1        1.324   1.525  -2.519  0.00  0.00    +0.210 C 
BRANCH  22  23
ATOM     23  O   LIG    1        1.861   1.168  -3.795  0.00  0.00    -0.540 OA
ATOM     24  H   LIG    1        2.789   1.410  -3.912  0.00  0.00    +0.400 HD
ENDBRANCH  22  23
ENDBRANCH   1  22
TORSDOF 6
