REMARK  Name = ZINCvU0000000I04.0
REMARK                            x       y       z     vdW  Elec       q    Type
REMARK                         _______ _______ _______ _____ _____    ______ ____
ROOT
ATOM      1  C   LIG    1       -1.046   7.692   1.503  0.00  0.00    +0.610 C 
ATOM      2  N   LIG    1       -1.135   6.472   0.937  0.00  0.00    -0.700 N 
ATOM      3  H   LIG    1       -1.899   5.904   1.126  0.00  0.00    +0.410 HD
ATOM      4  O   LIG    1       -0.088   8.404   1.265  0.00  0.00    -0.510 OA
ENDROOT
BRANCH   1   7
ATOM      5  C   LIG    1       -1.083  10.451   2.932  0.00  0.00    +0.140 C 
ATOM      6  C   LIG    1       -2.126   9.367   3.034  0.00  0.00    -0.060 A 
ATOM      7  C   LIG    1       -2.105   8.162   2.406  0.00  0.00    -0.060 A 
ATOM      8  O   LIG    1       -3.213   7.468   2.739  0.00  0.00    -0.160 OA
ATOM      9  C   LIG    1       -3.966   8.191   3.588  0.00  0.00    +0.080 A 
ATOM     10  C   LIG    1       -5.197   7.945   4.235  0.00  0.00    -0.030 A 
ATOM     11  C   LIG    1       -5.884   6.736   4.050  0.00  0.00    +0.030 A 
ATOM     12  C   LIG    1       -7.070   6.528   4.689  0.00  0.00    +0.010 A 
ATOM     13  C   LIG    1       -7.610   7.502   5.525  0.00  0.00    +0.030 A 
ATOM     14  C   LIG    1       -6.969   8.687   5.726  0.00  0.00    +0.020 A 
ATOM     15  C   LIG    1       -5.746   8.935   5.085  0.00  0.00    -0.020 A 
ATOM     16  C   LIG    1       -5.062  10.155   5.276  0.00  0.00    +0.020 A 
ATOM     17  C   LIG    1       -3.882  10.383   4.652  0.00  0.00    +0.070 A 
ATOM     18  C   LIG    1       -3.316   9.410   3.802  0.00  0.00    -0.140 A 
ENDBRANCH   1   7
BRANCH   2  19
ATOM     19  C   LIG    1       -0.079   6.003   0.036  0.00  0.00    +0.390 C 
BRANCH  19  20
ATOM     20  C   LIG    1       -0.059   4.497   0.027  0.00  0.00    -0.090 A 
ATOM     21  C   LIG    1        1.148   3.822   0.012  0.00  0.00    +0.040 A 
ATOM     22  C   LIG    1        1.167   2.440   0.004  0.00  0.00    +0.030 A 
ATOM     23  C   LIG    1       -0.021   1.732   0.012  0.00  0.00    -0.030 A 
ATOM     24  C   LIG    1       -1.229   2.407   0.021  0.00  0.00    +0.030 A 
ATOM     25 CL   LIG    1        0.002  -0.004   0.002  0.00  0.00    -0.060 Cl
ATOM     26  C   LIG    1       -1.247   3.789   0.035  0.00  0.00    +0.060 A 
ENDBRANCH  19  20
BRANCH  19  27
ATOM     27  C   LIG    1       -0.346   6.510  -1.358  0.00  0.00    +0.190 A 
ATOM     28  N   LIG    1       -1.500   6.488  -1.967  0.00  0.00    -0.470 NA
ATOM     29  C   LIG    1       -1.365   7.022  -3.190  0.00  0.00    +0.140 A 
ATOM     30  C   LIG    1       -0.077   7.382  -3.347  0.00  0.00    +0.130 A 
ATOM     31  N   LIG    1        0.570   7.058  -2.185  0.00  0.00    -0.450 N 
ATOM     32  C   LIG    1        1.990   7.265  -1.894  0.00  0.00    +0.330 C 
ENDBRANCH  19  27
ENDBRANCH   2  19
TORSDOF 4
