REMARK  Name = ZINCpk00000eaNtn.0
REMARK                            x       y       z     vdW  Elec       q    Type
REMARK                         _______ _______ _______ _____ _____    ______ ____
ROOT
ATOM      1  C   LIG    1       -1.436  -7.562  -1.481  0.00  0.00    +0.070 C 
ATOM      2  C   LIG    1       -1.004  -7.276  -0.041  0.00  0.00    +0.190 C 
ENDROOT
BRANCH   2   3
ATOM      3  C   LIG    1       -0.732  -8.576   0.669  0.00  0.00    +0.520 C 
ATOM      4  N   LIG    1       -1.713  -9.491   0.800  0.00  0.00    -0.670 N 
ATOM      5  H   LIG    1       -2.614  -9.281   0.508  0.00  0.00    +0.410 HD
ATOM      6  O   LIG    1        0.370  -8.800   1.124  0.00  0.00    -0.480 OA
BRANCH   4   7
ATOM      7  C   LIG    1       -1.433 -10.739   1.354  0.00  0.00    +0.200 A 
ATOM      8  C   LIG    1       -0.145 -11.252   1.300  0.00  0.00    +0.030 A 
ATOM      9  C   LIG    1        0.131 -12.489   1.850  0.00  0.00    +0.080 A 
ATOM     10  C   LIG    1       -0.873 -13.226   2.458  0.00  0.00    +0.000 A 
ATOM     11  C   LIG    1       -2.159 -12.732   2.520  0.00  0.00    +0.090 A 
ATOM     12  C   LIG    1       -2.451 -11.480   1.974  0.00  0.00    -0.060 A 
BRANCH  12  13
ATOM     13  C   LIG    1       -3.783 -10.958   2.040  0.00  0.00    +0.250 C 
ATOM     14  N   LIG    1       -4.840 -10.545   2.093  0.00  0.00    -0.410 NA
ENDBRANCH  12  13
ENDBRANCH   4   7
ENDBRANCH   2   3
BRANCH   2  15
ATOM     15  O   LIG    1        0.202  -6.467  -0.050  0.00  0.00    -0.320 OA
BRANCH  15  16
ATOM     16  C   LIG    1        0.042  -5.134  -0.051  0.00  0.00    +0.460 C 
ATOM     17  O   LIG    1       -1.069  -4.659  -0.045  0.00  0.00    -0.500 OA
BRANCH  16  18
ATOM     18  C   LIG    1        1.248  -4.231  -0.060  0.00  0.00    +0.370 C 
BRANCH  18  19
ATOM     19  N   LIG    1        0.810  -2.832  -0.059  0.00  0.00    -0.720 N 
ATOM     20  H   LIG    1       -0.136  -2.620  -0.054  0.00  0.00    +0.420 HD
ATOM     21  C   LIG    1        1.723  -1.841  -0.067  0.00  0.00    +0.610 C 
ATOM     22  O   LIG    1        2.911  -2.107  -0.073  0.00  0.00    -0.510 OA
BRANCH  21  23
ATOM     23  C   LIG    1        1.285  -0.441  -0.066  0.00  0.00    -0.090 A 
ATOM     24  C   LIG    1        2.100   0.655  -0.073  0.00  0.00    +0.050 A 
ATOM     25  C   LIG    1        1.262   1.781  -0.070  0.00  0.00    -0.070 A 
ATOM     26  C   LIG    1       -0.011   1.329  -0.062  0.00  0.00    +0.210 A 
ATOM     27  O   LIG    1        0.007  -0.010  -0.060  0.00  0.00    -0.160 OA
ENDBRANCH  21  23
ENDBRANCH  18  19
ENDBRANCH  16  18
ENDBRANCH  15  16
ENDBRANCH   2  15
TORSDOF 8
