REMARK  Name = ZINCqH0000051c65.0
REMARK                            x       y       z     vdW  Elec       q    Type
REMARK                         _______ _______ _______ _____ _____    ______ ____
ROOT
ATOM      1  O   LIG    1       -2.421   1.083  -0.408  0.00  0.00    -0.490 OA
ATOM      2  C   LIG    1       -2.380  -0.119  -0.255  0.00  0.00    +0.540 C 
ATOM      3  N   LIG    1       -1.204  -0.725   0.006  0.00  0.00    -0.540 N 
ATOM      4  C   LIG    1        0.000  -0.001   0.018  0.00  0.00    +0.080 A 
ATOM      5  C   LIG    1       -0.022   1.384   0.041  0.00  0.00    +0.050 A 
ATOM      6  C   LIG    1        1.166   2.092   0.049  0.00  0.00    +0.000 A 
ATOM      7  C   LIG    1        2.373   1.419   0.033  0.00  0.00    +0.030 A 
ATOM      8  C   LIG    1        2.401   0.037   0.010  0.00  0.00    +0.010 A 
ATOM      9  C   LIG    1        1.215  -0.681   0.003  0.00  0.00    +0.090 A 
ATOM     10  O   LIG    1        1.252  -2.040  -0.015  0.00  0.00    -0.300 OA
ATOM     11  C   LIG    1        0.082  -2.732  -0.457  0.00  0.00    +0.270 C 
ATOM     12  C   LIG    1       -1.137  -2.169   0.288  0.00  0.00    +0.260 C 
ENDROOT
BRANCH  12  13
ATOM     13  C   LIG    1       -0.978  -2.394   1.770  0.00  0.00    -0.110 A 
ATOM     14  C   LIG    1       -0.145  -1.574   2.508  0.00  0.00    +0.040 A 
ATOM     15  C   LIG    1       -0.003  -1.777   3.868  0.00  0.00    +0.000 A 
ATOM     16  C   LIG    1       -0.686  -2.806   4.488  0.00  0.00    +0.010 A 
ATOM     17  C   LIG    1       -1.515  -3.630   3.749  0.00  0.00    +0.010 A 
ATOM     18  C   LIG    1       -1.661  -3.424   2.390  0.00  0.00    +0.030 A 
ENDBRANCH  12  13
BRANCH   2  19
ATOM     19  C   LIG    1       -3.642  -0.936  -0.355  0.00  0.00    +0.110 C 
BRANCH  19  20
ATOM     20  S   LIG    1       -5.014   0.133  -0.855  0.00  0.00    +0.100 S 
BRANCH  20  21
ATOM     21  C   LIG    1       -6.323  -1.046  -0.892  0.00  0.00    +0.280 A 
ATOM     22  N   LIG    1       -6.064  -2.311  -0.591  0.00  0.00    -0.530 NA
ATOM     23  C   LIG    1       -7.025  -3.219  -0.605  0.00  0.00    +0.330 A 
ATOM     24  C   LIG    1       -8.312  -2.838  -0.950  0.00  0.00    -0.090 A 
ATOM     25  C   LIG    1       -8.547  -1.508  -1.264  0.00  0.00    +0.350 A 
ATOM     26  N   LIG    1       -7.543  -0.648  -1.226  0.00  0.00    -0.500 NA
ENDBRANCH  20  21
ENDBRANCH  19  20
ENDBRANCH   2  19
TORSDOF 4
