REMARK  Name = ZINCvU0000000HD1.0
REMARK                            x       y       z     vdW  Elec       q    Type
REMARK                         _______ _______ _______ _____ _____    ______ ____
ROOT
ATOM      1  C   LIG    1       -1.000   8.769   1.754  0.00  0.00    +0.170 A 
ATOM      2  C   LIG    1       -0.349   9.194   0.602  0.00  0.00    -0.080 A 
ATOM      3  C   LIG    1       -0.223  10.540   0.336  0.00  0.00    +0.090 A 
ATOM      4  C   LIG    1       -0.741  11.478   1.233  0.00  0.00    -0.180 A 
ATOM      5  C   LIG    1       -1.390  11.047   2.393  0.00  0.00    +0.140 A 
ATOM      6  C   LIG    1       -1.516   9.700   2.648  0.00  0.00    -0.020 A 
ENDROOT
BRANCH   4   7
ATOM      7  C   LIG    1       -0.603  12.921   0.955  0.00  0.00    +0.560 C 
ATOM      8  N   LIG    1        0.023  13.335  -0.164  0.00  0.00    -0.660 N 
ATOM      9  H   LIG    1        0.440  12.688  -0.754  0.00  0.00    +0.420 HD
ATOM     10  O   LIG    1       -1.053  13.736   1.736  0.00  0.00    -0.520 OA
BRANCH   8  11
ATOM     11  C   LIG    1        0.072  14.695  -0.475  0.00  0.00    +0.170 A 
ATOM     12  C   LIG    1        0.172  15.633   0.529  0.00  0.00    +0.040 A 
ATOM     13  C   LIG    1        0.226  16.992   0.233  0.00  0.00    +0.040 A 
ATOM     14  C   LIG    1        0.172  17.432  -1.054  0.00  0.00    +0.020 A 
ATOM     15  C   LIG    1        0.064  16.507  -2.106  0.00  0.00    -0.090 A 
ATOM     16  C   LIG    1        0.006  16.929  -3.447  0.00  0.00    +0.080 A 
ATOM     17  C   LIG    1       -0.099  15.975  -4.420  0.00  0.00    -0.030 A 
ATOM     18  C   LIG    1       -0.144  14.628  -4.069  0.00  0.00    +0.290 A 
ATOM     19  N   LIG    1       -0.090  14.239  -2.818  0.00  0.00    -0.480 NA
ATOM     20  C   LIG    1        0.013  15.121  -1.820  0.00  0.00    +0.110 A 
ENDBRANCH   8  11
ENDBRANCH   4   7
BRANCH   1  21
ATOM     21  O   LIG    1       -1.127   7.443   2.010  0.00  0.00    -0.310 OA
BRANCH  21  22
ATOM     22  C   LIG    1       -0.573   6.541   1.049  0.00  0.00    +0.330 C 
BRANCH  22  30
ATOM     23  C   LIG    1        0.061   1.087   0.054  0.00  0.00    +0.130 C 
ATOM     24  C   LIG    1       -0.645   1.573   1.293  0.00  0.00    -0.040 A 
ATOM     25  C   LIG    1       -1.137   0.684   2.197  0.00  0.00    +0.030 A 
ATOM     26  C   LIG    1       -1.793   1.152   3.348  0.00  0.00    +0.020 A 
ATOM     27  C   LIG    1       -1.935   2.477   3.559  0.00  0.00    +0.220 A 
ATOM     28  N   LIG    1       -1.446   3.381   2.660  0.00  0.00    -0.360 N 
ATOM     29  C   LIG    1       -1.452   4.748   2.626  0.00  0.00    +0.120 A 
ATOM     30  C   LIG    1       -0.808   5.122   1.498  0.00  0.00    +0.050 A 
ATOM     31  N   LIG    1       -0.424   4.024   0.843  0.00  0.00    -0.480 NA
ATOM     32  C   LIG    1       -0.797   2.954   1.530  0.00  0.00    +0.230 A 
ENDBRANCH  22  30
ENDBRANCH  21  22
ENDBRANCH   1  21
TORSDOF 5
