REMARK  Name = ZINCrD0000073Pgh.0
REMARK                            x       y       z     vdW  Elec       q    Type
REMARK                         _______ _______ _______ _____ _____    ______ ____
ROOT
ATOM      1  C   LIG    1       -0.013   1.271  -0.001  0.00  0.00    +0.530 C 
ATOM      2  N   LIG    1       -1.209   1.893   0.013  0.00  0.00    -0.610 N 
ATOM      3  C   LIG    1       -1.291   3.357  -0.090  0.00  0.00    +0.270 C 
ATOM      4  C   LIG    1       -2.117   3.892   1.079  0.00  0.00    +0.030 C 
ATOM      5  C   LIG    1       -3.474   3.186   1.108  0.00  0.00    +0.010 C 
ATOM      6  C   LIG    1       -3.265   1.683   1.309  0.00  0.00    +0.050 C 
ATOM      7  C   LIG    1       -2.453   1.123   0.137  0.00  0.00    +0.280 C 
ATOM      8  O   LIG    1        0.039   0.059  -0.001  0.00  0.00    -0.530 OA
ENDROOT
BRANCH   5   9
ATOM      9  C   LIG    1       -4.302   3.734   2.241  0.00  0.00    +0.520 C 
ATOM     10  N   LIG    1       -4.614   5.045   2.275  0.00  0.00    -0.670 N 
ATOM     11  H   LIG    1       -4.240   5.649   1.616  0.00  0.00    +0.410 HD
ATOM     12  O   LIG    1       -4.686   2.996   3.123  0.00  0.00    -0.510 OA
BRANCH  10  13
ATOM     13  C   LIG    1       -5.477   5.531   3.258  0.00  0.00    +0.190 A 
ATOM     14  C   LIG    1       -6.424   4.699   3.853  0.00  0.00    -0.040 A 
ATOM     15  C   LIG    1       -7.255   5.218   4.825  0.00  0.00    +0.280 A 
ATOM     16  N   LIG    1       -7.168   6.485   5.184  0.00  0.00    -0.500 NA
ATOM     17  C   LIG    1       -6.289   7.304   4.640  0.00  0.00    +0.280 A 
ATOM     18  C   LIG    1       -5.418   6.863   3.666  0.00  0.00    -0.070 A 
ENDBRANCH  10  13
ENDBRANCH   5   9
BRANCH   1  20
ATOM     19  C   LIG    1        2.380   1.250  -0.650  0.00  0.00    +0.080 C 
ATOM     20  C   LIG    1        1.258   2.080  -0.023  0.00  0.00    +0.040 C 
BRANCH  20  21
ATOM     21  C   LIG    1        1.638   2.456   1.386  0.00  0.00    -0.120 A 
ATOM     22  C   LIG    1        1.886   1.469   2.321  0.00  0.00    +0.100 A 
ATOM     23  C   LIG    1        2.235   1.812   3.614  0.00  0.00    -0.010 A 
ATOM     24  C   LIG    1        2.337   3.146   3.973  0.00  0.00    +0.130 A 
ATOM     25  C   LIG    1        2.089   4.135   3.037  0.00  0.00    -0.040 A 
ATOM     26  F   LIG    1        2.677   3.481   5.237  0.00  0.00    -0.130 F 
ATOM     27  C   LIG    1        1.744   3.790   1.742  0.00  0.00    +0.140 A 
ATOM     28  F   LIG    1        1.506   4.755   0.826  0.00  0.00    -0.130 F 
ENDBRANCH  20  21
ENDBRANCH   1  20
TORSDOF 4
