REMARK  Name = ZINCvU0000000F07.0
REMARK                            x       y       z     vdW  Elec       q    Type
REMARK                         _______ _______ _______ _____ _____    ______ ____
ROOT
ATOM      1  C   LIG    1       -3.182   4.774   0.043  0.00  0.00    +0.600 A 
ATOM      2  N   LIG    1       -4.479   4.915   0.058  0.00  0.00    -0.480 NA
ATOM      3  C   LIG    1       -5.320   3.851   0.059  0.00  0.00    +0.150 A 
ATOM      4  C   LIG    1       -4.783   2.545   0.042  0.00  0.00    -0.100 A 
ATOM      5  C   LIG    1       -3.319   2.398   0.024  0.00  0.00    +0.350 A 
ATOM      6  N   LIG    1       -2.526   1.353   0.007  0.00  0.00    -0.470 NA
ATOM      7  C   LIG    1       -1.233   1.760  -0.004  0.00  0.00    +0.080 A 
ATOM      8  C   LIG    1       -0.013   1.076  -0.022  0.00  0.00    +0.080 A 
ATOM      9  C   LIG    1        1.160   1.776  -0.033  0.00  0.00    +0.030 A 
ATOM     10  C   LIG    1        1.156   3.163  -0.022  0.00  0.00    +0.050 A 
ATOM     11  C   LIG    1       -0.035   3.859   0.001  0.00  0.00    +0.010 A 
ATOM     12  C   LIG    1       -1.237   3.167   0.013  0.00  0.00    +0.030 A 
ATOM     13  C   LIG    1       -5.631   1.441   0.042  0.00  0.00    +0.090 A 
ATOM     14  C   LIG    1       -6.996   1.632   0.057  0.00  0.00    +0.010 A 
ATOM     15  C   LIG    1       -7.529   2.914   0.075  0.00  0.00    +0.060 A 
ATOM     16  C   LIG    1       -6.706   4.019   0.075  0.00  0.00    +0.050 A 
ATOM     17  N   LIG    1       -2.565   3.551   0.036  0.00  0.00    -0.460 N 
ENDROOT
BRANCH   1  19
ATOM     18  C   LIG    1       -2.969   7.124  -0.049  0.00  0.00    +0.560 C 
ATOM     19  N   LIG    1       -2.396   5.907   0.043  0.00  0.00    -0.650 N 
ATOM     20  H   LIG    1       -1.432   5.828   0.111  0.00  0.00    +0.410 HD
ATOM     21  O   LIG    1       -4.177   7.222  -0.133  0.00  0.00    -0.450 OA
BRANCH  18  25
ATOM     22  C   LIG    1       -0.550  10.613  -0.046  0.00  0.00    +0.250 A 
ATOM     23  C   LIG    1       -1.934  10.727  -0.142  0.00  0.00    -0.080 A 
ATOM     24  C   LIG    1       -2.721   9.598  -0.144  0.00  0.00    +0.140 A 
ATOM     25  C   LIG    1       -2.129   8.335  -0.048  0.00  0.00    -0.210 A 
ATOM     26  C   LIG    1       -0.739   8.224   0.054  0.00  0.00    +0.090 A 
ATOM     27  C   LIG    1        0.043   9.357   0.050  0.00  0.00    -0.080 A 
BRANCH  22  28
ATOM     28  N   LIG    1        0.242  11.756  -0.045  0.00  0.00    -0.620 N 
BRANCH  28  30
ATOM     29  C   LIG    1        2.301  11.531  -1.347  0.00  0.00    +0.020 C 
ATOM     30  C   LIG    1        1.699  11.637   0.056  0.00  0.00    +0.270 C 
ENDBRANCH  28  30
BRANCH  28  31
ATOM     31  C   LIG    1       -0.380  13.078  -0.146  0.00  0.00    +0.270 C 
ATOM     32  C   LIG    1       -0.691  13.603   1.257  0.00  0.00    +0.020 C 
ENDBRANCH  28  31
ENDBRANCH  22  28
ENDBRANCH  18  25
ENDBRANCH   1  19
TORSDOF 5
