REMARK  Name = ZINCqH0000034Fsg.0
REMARK                            x       y       z     vdW  Elec       q    Type
REMARK                         _______ _______ _______ _____ _____    ______ ____
ROOT
ATOM      1  C   LIG    1       -2.386  -0.606   0.345  0.00  0.00    +0.190 C 
ATOM      2  N   LIG    1       -3.015   0.585   0.932  0.00  0.00    -0.500 NA
ENDROOT
BRANCH   2   3
ATOM      3  C   LIG    1       -2.205   1.785   0.683  0.00  0.00    +0.190 C 
ATOM      4  C   LIG    1       -0.775   1.603   1.248  0.00  0.00    +0.090 C 
ATOM      5  C   LIG    1       -0.013   1.086   0.008  0.00  0.00    +0.260 C 
ATOM      6  N   LIG    1       -0.759   1.590  -1.151  0.00  0.00    -0.570 N 
ATOM      7  C   LIG    1       -1.996   1.984  -0.801  0.00  0.00    +0.490 C 
ATOM      8  O   LIG    1       -2.823   2.434  -1.566  0.00  0.00    -0.510 OA
BRANCH   6   9
ATOM      9  C   LIG    1       -0.248   1.653  -2.453  0.00  0.00    +0.100 A 
ATOM     10  C   LIG    1       -0.407   0.577  -3.315  0.00  0.00    +0.050 A 
ATOM     11  C   LIG    1        0.097   0.642  -4.600  0.00  0.00    +0.020 A 
ATOM     12  C   LIG    1        0.761   1.776  -5.028  0.00  0.00    +0.060 A 
ATOM     13  C   LIG    1        0.923   2.851  -4.173  0.00  0.00    -0.010 A 
ATOM     14  C   LIG    1        0.415   2.795  -2.888  0.00  0.00    +0.110 A 
ATOM     15  F   LIG    1        0.569   3.847  -2.053  0.00  0.00    -0.130 F 
ENDBRANCH   6   9
ENDBRANCH   2   3
BRANCH   2  16
ATOM     16  C   LIG    1       -4.383   0.760   0.427  0.00  0.00    +0.300 C 
BRANCH  16  17
ATOM     17  C   LIG    1       -5.247  -0.377   0.911  0.00  0.00    -0.210 A 
ATOM     18  C   LIG    1       -5.949  -0.398   2.048  0.00  0.00    +0.250 A 
ATOM     19  N   LIG    1       -6.637  -1.494   2.277  0.00  0.00    -0.450 NA
ATOM     20  C   LIG    1       -6.563  -2.437   1.378  0.00  0.00    +0.140 A 
ATOM     21  S   LIG    1       -5.509  -1.904   0.071  0.00  0.00    +0.110 S 
BRANCH  20  22
ATOM     22  C   LIG    1       -7.253  -3.734   1.444  0.00  0.00    +0.030 A 
ATOM     23  C   LIG    1       -8.069  -4.157   2.450  0.00  0.00    +0.030 A 
ATOM     24  C   LIG    1       -8.509  -5.447   2.100  0.00  0.00    -0.060 A 
ATOM     25  C   LIG    1       -7.941  -5.752   0.916  0.00  0.00    +0.200 A 
ATOM     26  O   LIG    1       -7.184  -4.715   0.522  0.00  0.00    -0.170 OA
ENDBRANCH  20  22
ENDBRANCH  16  17
ENDBRANCH   2  16
TORSDOF 5
