REMARK  Name = ZINCrD0000074Bmf.0
REMARK                            x       y       z     vdW  Elec       q    Type
REMARK                         _______ _______ _______ _____ _____    ______ ____
ROOT
ATOM      1  C   LIG    1        0.091   5.829  -0.210  0.00  0.00    +0.270 C 
ENDROOT
BRANCH   1   2
ATOM      2  C   LIG    1        0.165   4.329  -0.090  0.00  0.00    +0.520 C 
ATOM      3  N   LIG    1        1.363   3.717  -0.012  0.00  0.00    -0.660 N 
ATOM      4  H   LIG    1        2.174   4.246   0.051  0.00  0.00    +0.420 HD
ATOM      5  O   LIG    1       -0.855   3.671  -0.064  0.00  0.00    -0.490 OA
BRANCH   3   6
ATOM      6  C   LIG    1        1.437   2.318  -0.021  0.00  0.00    +0.170 A 
ATOM      7  C   LIG    1        0.425   1.572  -0.603  0.00  0.00    +0.040 A 
ATOM      8  C   LIG    1        0.501   0.191  -0.612  0.00  0.00    +0.030 A 
ATOM      9  C   LIG    1        1.584  -0.450  -0.040  0.00  0.00    +0.020 A 
ATOM     10  C   LIG    1        2.599   0.286   0.544  0.00  0.00    +0.020 A 
ATOM     11  C   LIG    1        2.531   1.671   0.556  0.00  0.00    -0.120 A 
BRANCH  11  12
ATOM     12  S   LIG    1        3.823   2.612   1.298  0.00  0.00    -0.080 S 
BRANCH  12  13
ATOM     13  C   LIG    1        4.973   1.337   1.883  0.00  0.00    +0.260 C 
BRANCH  13  14
ATOM     14  C   LIG    1        6.125   1.977   2.538  0.00  0.00    +0.210 C 
ATOM     15  N   LIG    1        7.014   2.472   3.044  0.00  0.00    -0.390 NA
ENDBRANCH  13  14
ENDBRANCH  12  13
ENDBRANCH  11  12
ENDBRANCH   3   6
ENDBRANCH   1   2
BRANCH   1  16
ATOM     16  O   LIG    1       -1.300   6.241  -0.278  0.00  0.00    -0.330 OA
BRANCH  16  17
ATOM     17  C   LIG    1       -1.542   7.562  -0.389  0.00  0.00    +0.520 C 
ATOM     18  O   LIG    1       -0.616   8.348  -0.427  0.00  0.00    -0.490 OA
BRANCH  17  23
ATOM     19  C   LIG    1       -6.958   9.481  -0.679  0.00  0.00    +0.130 C 
ATOM     20  C   LIG    1       -5.540   8.978  -0.603  0.00  0.00    +0.020 A 
ATOM     21  C   LIG    1       -5.295   7.621  -0.490  0.00  0.00    +0.030 A 
ATOM     22  C   LIG    1       -3.998   7.154  -0.425  0.00  0.00    +0.150 A 
ATOM     23  C   LIG    1       -2.932   8.055  -0.463  0.00  0.00    -0.130 A 
ATOM     24  C   LIG    1       -3.187   9.423  -0.577  0.00  0.00    +0.180 A 
ATOM     25  C   LIG    1       -4.487   9.876  -0.646  0.00  0.00    -0.060 A 
BRANCH  25  26
ATOM     26  N   LIG    1       -4.759  11.326  -0.768  0.00  0.00    +0.030 N 
ATOM     27  O   LIG    1       -3.946  12.134  -0.355  0.00  0.00    -0.150 OA
ATOM     28  O   LIG    1       -5.794  11.711  -1.281  0.00  0.00    -0.140 OA
ENDBRANCH  25  26
ENDBRANCH  17  23
ENDBRANCH  16  17
ENDBRANCH   1  16
TORSDOF 9
