REMARK  Name = ZINCbw0000000HpZ.1
REMARK                            x       y       z     vdW  Elec       q    Type
REMARK                         _______ _______ _______ _____ _____    ______ ____
ROOT
ATOM      1  C   LIG    1        1.225  -0.686  -0.013  0.00  0.00    -0.150 A 
ATOM      2  C   LIG    1        2.422   0.038  -0.021  0.00  0.00    +0.090 A 
ATOM      3  C   LIG    1        2.389   1.420  -0.013  0.00  0.00    +0.120 A 
ATOM      4  C   LIG    1        1.170   2.088   0.002  0.00  0.00    -0.030 A 
ATOM      5  C   LIG    1       -0.017   1.375   0.010  0.00  0.00    +0.080 A 
ATOM      6 CL   LIG    1        1.136   3.824   0.012  0.00  0.00    -0.030 Cl
ATOM      7  C   LIG    1        0.002  -0.004   0.002  0.00  0.00    -0.050 A 
ATOM      8 BR   LIG    1       -1.622  -0.973   0.012  0.00  0.00    -0.010 Br
ENDROOT
BRANCH   1  10
ATOM      9  O   LIG    1        2.311  -2.744  -0.034  0.00  0.00    -0.440 OA
ATOM     10  C   LIG    1        1.251  -2.156  -0.021  0.00  0.00    +0.500 C 
ENDBRANCH   1  10
BRANCH   3  11
ATOM     11  O   LIG    1        3.550   2.127  -0.021  0.00  0.00    -0.480 OA
ATOM     12  H   LIG    1        3.878   2.336  -0.907  0.00  0.00    +0.400 HD
ENDBRANCH   3  11
TORSDOF 2
