REMARK  Name = ZINCqH0000038VAm.0
REMARK                            x       y       z     vdW  Elec       q    Type
REMARK                         _______ _______ _______ _____ _____    ______ ____
ROOT
ATOM      1  C   LIG    1        2.846  -5.302   2.817  0.00  0.00    +0.310 C 
ATOM      2  C   LIG    1        2.627  -5.087   4.330  0.00  0.00    +0.060 C 
ATOM      3  C   LIG    1        1.561  -3.961   4.370  0.00  0.00    +0.040 C 
ATOM      4  C   LIG    1        1.978  -3.097   3.150  0.00  0.00    +0.240 C 
ATOM      5  N   LIG    1        2.420  -4.071   2.135  0.00  0.00    -0.620 N 
ATOM      6  C   LIG    1        2.436  -3.865   0.803  0.00  0.00    +0.730 C 
ATOM      7  N   LIG    1        2.018  -2.687   0.299  0.00  0.00    -0.740 N 
ATOM      8  H   LIG    1        1.705  -1.988   0.894  0.00  0.00    +0.400 HD
ATOM      9  O   LIG    1        2.828  -4.741   0.057  0.00  0.00    -0.570 OA
ENDROOT
BRANCH   1  15
ATOM     10  C   LIG    1        4.204  -8.075   2.533  0.00  0.00    +0.300 C 
ATOM     11  N   LIG    1        4.891  -6.785   2.420  0.00  0.00    -0.440 N 
ATOM     12  C   LIG    1        6.221  -6.613   2.174  0.00  0.00    +0.150 A 
ATOM     13  C   LIG    1        6.475  -5.289   2.142  0.00  0.00    -0.070 A 
ATOM     14  C   LIG    1        5.256  -4.620   2.371  0.00  0.00    -0.060 A 
ATOM     15  C   LIG    1        4.306  -5.560   2.543  0.00  0.00    +0.010 A 
ENDBRANCH   1  15
BRANCH   7  16
ATOM     16  C   LIG    1        2.035  -2.463  -1.149  0.00  0.00    +0.450 C 
BRANCH  16  17
ATOM     17  C   LIG    1        1.522  -1.079  -1.449  0.00  0.00    +0.170 A 
ATOM     18  N   LIG    1        2.252  -0.002  -1.529  0.00  0.00    -0.450 NA
ATOM     19  C   LIG    1        1.458   1.042  -1.812  0.00  0.00    +0.170 A 
ATOM     20  C   LIG    1        0.187   0.574  -1.907  0.00  0.00    +0.010 A 
ATOM     21  O   LIG    1        0.241  -0.756  -1.677  0.00  0.00    -0.190 OA
BRANCH  20  22
ATOM     22  C   LIG    1       -1.023   1.367  -2.209  0.00  0.00    -0.020 A 
ATOM     23  C   LIG    1       -0.925   2.744  -2.419  0.00  0.00    +0.040 A 
ATOM     24  C   LIG    1       -2.058   3.477  -2.706  0.00  0.00    +0.020 A 
ATOM     25  C   LIG    1       -3.291   2.853  -2.775  0.00  0.00    +0.020 A 
ATOM     26  C   LIG    1       -3.396   1.490  -2.562  0.00  0.00    +0.010 A 
ATOM     27  C   LIG    1       -2.270   0.744  -2.280  0.00  0.00    +0.030 A 
ENDBRANCH  20  22
ENDBRANCH  16  17
ENDBRANCH   7  16
TORSDOF 4
