REMARK  Name = ZINCrD00000F5LmY.0
REMARK                            x       y       z     vdW  Elec       q    Type
REMARK                         _______ _______ _______ _____ _____    ______ ____
ROOT
ATOM      1  C   LIG    1        2.499  -0.268  -0.025  0.00  0.00    -0.070 C 
ATOM      2  C   LIG    1        2.474   1.082  -0.017  0.00  0.00    +0.140 C 
ENDROOT
BRANCH   2   3
ATOM      3  C   LIG    1        1.188   1.793   0.000  0.00  0.00    -0.090 A 
ATOM      4  C   LIG    1       -0.013   1.076   0.008  0.00  0.00    +0.160 A 
ATOM      5  C   LIG    1       -1.214   1.750   0.017  0.00  0.00    -0.070 A 
ATOM      6  C   LIG    1       -1.239   3.135   0.029  0.00  0.00    +0.160 A 
ATOM      7  C   LIG    1       -0.060   3.858   0.021  0.00  0.00    -0.200 A 
ATOM      8  C   LIG    1       -0.110   5.365   0.022  0.00  0.00    +0.320 C 
ATOM      9  O   LIG    1        1.173   5.880   0.390  0.00  0.00    -0.380 OA
ATOM     10  C   LIG    1        2.249   5.279  -0.341  0.00  0.00    +0.460 C 
ATOM     11  O   LIG    1        2.322   3.894   0.012  0.00  0.00    -0.310 OA
ATOM     12  C   LIG    1        1.157   3.198   0.010  0.00  0.00    +0.210 A 
BRANCH   5  13
ATOM     13  N   LIG    1       -2.485   0.991   0.020  0.00  0.00    +0.030 N 
ATOM     14  O   LIG    1       -3.549   1.584   0.028  0.00  0.00    -0.160 OA
ATOM     15  O   LIG    1       -2.467  -0.227   0.014  0.00  0.00    -0.160 OA
ENDBRANCH   5  13
ENDBRANCH   2   3
BRANCH   1  18
ATOM     16  N   LIG    1        3.803  -2.323  -0.051  0.00  0.00    -0.720 N 
ATOM     17  H   LIG    1        2.972  -2.823  -0.046  0.00  0.00    +0.400 HD
ATOM     18  C   LIG    1        3.778  -0.975  -0.043  0.00  0.00    +0.550 C 
ATOM     19  O   LIG    1        4.821  -0.347  -0.049  0.00  0.00    -0.540 OA
BRANCH  16  20
ATOM     20  C   LIG    1        5.085  -3.032  -0.068  0.00  0.00    +0.270 C 
BRANCH  20  22
ATOM     21  C   LIG    1        4.161  -4.952   1.236  0.00  0.00    +0.030 C 
ATOM     22  C   LIG    1        4.833  -4.541  -0.075  0.00  0.00    +0.030 C 
BRANCH  22  23
ATOM     23  C   LIG    1        6.146  -5.268  -0.217  0.00  0.00    -0.080 A 
ATOM     24  C   LIG    1        7.138  -5.095   0.730  0.00  0.00    +0.010 A 
ATOM     25  C   LIG    1        8.340  -5.765   0.602  0.00  0.00    +0.000 A 
ATOM     26  C   LIG    1        8.553  -6.603  -0.476  0.00  0.00    +0.000 A 
ATOM     27  C   LIG    1        7.563  -6.772  -1.426  0.00  0.00    +0.000 A 
ATOM     28  C   LIG    1        6.359  -6.105  -1.296  0.00  0.00    +0.010 A 
ENDBRANCH  22  23
ENDBRANCH  20  22
ENDBRANCH  16  20
ENDBRANCH   1  18
TORSDOF 6
