REMARK  Name = ZINCrH000004q8H9.0
REMARK                            x       y       z     vdW  Elec       q    Type
REMARK                         _______ _______ _______ _____ _____    ______ ____
ROOT
ATOM      1  C   LIG    1        0.002  -0.004   0.002  0.00  0.00    +0.110 C 
ENDROOT
BRANCH   1   2
ATOM      2  C   LIG    1       -0.018   1.503   0.010  0.00  0.00    -0.160 A 
ATOM      3  C   LIG    1        1.050   2.316   0.004  0.00  0.00    +0.230 A 
ATOM      4  N   LIG    1        0.642   3.622   0.015  0.00  0.00    -0.590 N 
ATOM      5  H   LIG    1        1.234   4.391   0.013  0.00  0.00    +0.420 HD
ATOM      6  C   LIG    1       -0.734   3.683   0.028  0.00  0.00    +0.100 A 
ATOM      7  C   LIG    1       -1.646   4.733   0.041  0.00  0.00    -0.010 A 
ATOM      8  C   LIG    1       -2.997   4.465   0.052  0.00  0.00    +0.030 A 
ATOM      9  C   LIG    1       -3.460   3.157   0.049  0.00  0.00    -0.020 A 
ATOM     10  C   LIG    1       -2.581   2.110   0.037  0.00  0.00    +0.050 A 
ATOM     11  C   LIG    1       -1.208   2.358   0.020  0.00  0.00    -0.100 A 
ENDBRANCH   1   2
BRANCH   1  12
ATOM     12  C   LIG    1        0.708  -0.490  -1.238  0.00  0.00    -0.070 A 
ATOM     13  C   LIG    1        2.023  -0.132  -1.469  0.00  0.00    +0.010 A 
ATOM     14  C   LIG    1        2.672  -0.581  -2.604  0.00  0.00    +0.000 A 
ATOM     15  C   LIG    1        2.003  -1.381  -3.512  0.00  0.00    +0.000 A 
ATOM     16  C   LIG    1        0.686  -1.735  -3.283  0.00  0.00    +0.000 A 
ATOM     17  C   LIG    1        0.039  -1.289  -2.146  0.00  0.00    +0.000 A 
ENDBRANCH   1  12
BRANCH   1  18
ATOM     18  C   LIG    1        0.742  -0.511   1.242  0.00  0.00    +0.290 C 
BRANCH  18  20
ATOM     19  C   LIG    1        1.242  -2.643   2.309  0.00  0.00    +0.600 C 
ATOM     20  N   LIG    1        0.658  -1.972   1.296  0.00  0.00    -0.720 N 
ATOM     21  H   LIG    1        0.184  -2.458   0.604  0.00  0.00    +0.400 HD
ATOM     22  O   LIG    1        1.837  -2.035   3.178  0.00  0.00    -0.550 OA
BRANCH  19  25
ATOM     23  C   LIG    1        2.496  -4.481   4.536  0.00  0.00    +0.170 C 
ATOM     24  C   LIG    1        1.704  -4.930   3.335  0.00  0.00    +0.160 A 
ATOM     25  C   LIG    1        1.159  -4.114   2.364  0.00  0.00    -0.300 A 
ATOM     26  C   LIG    1        0.500  -4.952   1.437  0.00  0.00    +0.270 A 
ATOM     27  N   LIG    1        0.653  -6.187   1.829  0.00  0.00    -0.300 NA
ATOM     28  N   LIG    1        1.398  -6.197   3.013  0.00  0.00    -0.360 N 
ATOM     29  C   LIG    1        1.781  -7.390   3.773  0.00  0.00    +0.350 C 
ENDBRANCH  19  25
ENDBRANCH  18  20
ENDBRANCH   1  18
TORSDOF 5
