REMARK  Name = ZINCrH000004rSmN.0
REMARK                            x       y       z     vdW  Elec       q    Type
REMARK                         _______ _______ _______ _____ _____    ______ ____
ROOT
ATOM      1  C   LIG    1       -1.684   7.364  -0.433  0.00  0.00    +0.240 C 
ATOM      2  C   LIG    1       -1.233   7.768  -1.852  0.00  0.00    +0.060 C 
ATOM      3  C   LIG    1       -2.243   8.882  -2.234  0.00  0.00    +0.040 C 
ATOM      4  C   LIG    1       -3.540   8.371  -1.558  0.00  0.00    +0.270 C 
ATOM      5  N   LIG    1       -3.092   7.764  -0.292  0.00  0.00    -0.990 NA
ENDROOT
BRANCH   1   8
ATOM      6  N   LIG    1       -0.348   5.284  -0.364  0.00  0.00    -0.670 N 
ATOM      7  H   LIG    1        0.448   5.826  -0.479  0.00  0.00    +0.410 HD
ATOM      8  C   LIG    1       -1.556   5.873  -0.259  0.00  0.00    +0.500 C 
ATOM      9  O   LIG    1       -2.539   5.202  -0.025  0.00  0.00    -0.480 OA
BRANCH   6  15
ATOM     10  C   LIG    1       -2.254   0.852  -1.310  0.00  0.00    +0.090 C 
ATOM     11  C   LIG    1       -1.151   1.717  -0.758  0.00  0.00    -0.070 A 
ATOM     12  C   LIG    1       -0.032   1.133  -0.193  0.00  0.00    -0.020 A 
ATOM     13  C   LIG    1        0.980   1.924   0.320  0.00  0.00    +0.030 A 
ATOM     14  C   LIG    1        0.881   3.300   0.260  0.00  0.00    -0.030 A 
ATOM     15  C   LIG    1       -0.242   3.890  -0.306  0.00  0.00    +0.150 A 
ATOM     16  C   LIG    1       -1.259   3.093  -0.816  0.00  0.00    +0.010 A 
ENDBRANCH   6  15
ENDBRANCH   1   8
BRANCH   5  17
ATOM     17  S   LIG    1       -4.020   7.566   1.065  0.00  0.00    +2.710 S 
ATOM     18  O   LIG    1       -3.433   6.502   1.802  0.00  0.00    -0.930 OA
ATOM     19  O   LIG    1       -5.372   7.554   0.628  0.00  0.00    -0.950 OA
BRANCH  17  20
ATOM     20  C   LIG    1       -3.827   9.017   2.046  0.00  0.00    -0.700 A 
ATOM     21  C   LIG    1       -2.857   9.062   3.030  0.00  0.00    +0.030 A 
ATOM     22  C   LIG    1       -2.703  10.201   3.797  0.00  0.00    -0.020 A 
ATOM     23  C   LIG    1       -3.525  11.293   3.586  0.00  0.00    -0.020 A 
ATOM     24  C   LIG    1       -4.497  11.246   2.605  0.00  0.00    -0.020 A 
ATOM     25  C   LIG    1       -3.360  12.534   4.425  0.00  0.00    +0.090 C 
ATOM     26  C   LIG    1       -1.965   7.870   3.264  0.00  0.00    +0.100 C 
ATOM     27  C   LIG    1       -4.649  10.108   1.835  0.00  0.00    +0.030 A 
ATOM     28  C   LIG    1       -5.710  10.057   0.766  0.00  0.00    +0.100 C 
ENDBRANCH  17  20
ENDBRANCH   5  17
TORSDOF 4
