REMARK  Name = ZINCvU0000000F8r.0
REMARK                            x       y       z     vdW  Elec       q    Type
REMARK                         _______ _______ _______ _____ _____    ______ ____
ROOT
ATOM      1  O   LIG    1       -1.192   3.368   0.021  0.00  0.00    -0.450 OA
ATOM      2  C   LIG    1       -0.166   4.030   0.020  0.00  0.00    +0.530 A 
ATOM      3  C   LIG    1       -0.230   5.431   0.033  0.00  0.00    -0.220 A 
ATOM      4  C   LIG    1        0.948   6.156   0.025  0.00  0.00    +0.250 A 
ATOM      5  C   LIG    1        2.183   5.472   0.010  0.00  0.00    +0.300 A 
ATOM      6  N   LIG    1        2.215   4.169   0.003  0.00  0.00    -0.190 NA
ATOM      7 CL   LIG    1       -1.764   6.243   0.051  0.00  0.00    -0.010 Cl
ATOM      8  N   LIG    1        1.035   3.419   0.011  0.00  0.00    -0.370 N 
ENDROOT
BRANCH   8   9
ATOM      9  C   LIG    1        1.101   2.024   0.002  0.00  0.00    +0.390 A 
ATOM     10  C   LIG    1        2.340   1.394  -0.013  0.00  0.00    -0.010 A 
ATOM     11  C   LIG    1        2.392   0.011  -0.021  0.00  0.00    +0.160 A 
ATOM     12  C   LIG    1        1.198  -0.696  -0.013  0.00  0.00    -0.260 A 
ATOM     13  C   LIG    1        0.002  -0.004   0.002  0.00  0.00    +0.370 A 
ATOM     14  N   LIG    1       -0.016   1.314   0.009  0.00  0.00    -0.460 NA
BRANCH  12  15
ATOM     15  C   LIG    1        1.205  -2.203  -0.022  0.00  0.00    +0.520 C 
ATOM     16  F   LIG    1        1.878  -2.673   1.112  0.00  0.00    -0.170 F 
ATOM     17  F   LIG    1        1.857  -2.660  -1.173  0.00  0.00    -0.170 F 
ATOM     18  F   LIG    1       -0.111  -2.676  -0.012  0.00  0.00    -0.170 F 
ENDBRANCH  12  15
ENDBRANCH   8   9
BRANCH   4  19
ATOM     19  N   LIG    1        0.916   7.541   0.033  0.00  0.00    -0.700 N 
ATOM     20  H   LIG    1        0.065   8.006   0.043  0.00  0.00    +0.420 HD
BRANCH  19  21
ATOM     21  C   LIG    1        2.168   8.302   0.025  0.00  0.00    +0.370 C 
BRANCH  21  22
ATOM     22  C   LIG    1        1.922   9.667  -0.565  0.00  0.00    -0.100 A 
ATOM     23  C   LIG    1        0.760  10.352  -0.263  0.00  0.00    +0.010 A 
ATOM     24  C   LIG    1        0.536  11.605  -0.802  0.00  0.00    +0.020 A 
ATOM     25  C   LIG    1        1.471  12.170  -1.650  0.00  0.00    +0.020 A 
ATOM     26  C   LIG    1        2.630  11.482  -1.956  0.00  0.00    +0.020 A 
ATOM     27  C   LIG    1        2.856  10.231  -1.415  0.00  0.00    +0.030 A 
ENDBRANCH  21  22
BRANCH  21  28
ATOM     28  C   LIG    1        2.674   8.450   1.437  0.00  0.00    -0.210 A 
ATOM     29  C   LIG    1        3.951   8.356   1.810  0.00  0.00    +0.020 A 
ATOM     30  C   LIG    1        4.178   8.531   3.164  0.00  0.00    +0.000 A 
ATOM     31  C   LIG    1        3.084   8.758   3.893  0.00  0.00    -0.030 A 
ATOM     32  S   LIG    1        1.670   8.766   2.847  0.00  0.00    +0.130 S 
ENDBRANCH  21  28
ENDBRANCH  19  21
ENDBRANCH   4  19
TORSDOF 6
