REMARK  Name = ZINCnE000004ReRF.0
REMARK                            x       y       z     vdW  Elec       q    Type
REMARK                         _______ _______ _______ _____ _____    ______ ____
ROOT
ATOM      1  C   LIG    1        2.457   1.055  -0.015  0.00  0.00    -0.060 A 
ATOM      2  C   LIG    1        2.471  -0.339  -0.016  0.00  0.00    +0.010 A 
ATOM      3  C   LIG    1        3.675  -1.012  -0.034  0.00  0.00    +0.050 A 
ATOM      4  C   LIG    1        4.870  -0.311  -0.042  0.00  0.00    -0.040 A 
ATOM      5  C   LIG    1        4.862   1.073  -0.036  0.00  0.00    -0.110 A 
ATOM      6  C   LIG    1        6.283   1.593  -0.045  0.00  0.00    +0.060 C 
ATOM      7  C   LIG    1        7.155   0.394   0.383  0.00  0.00    +0.050 C 
ATOM      8  C   LIG    1        6.298  -0.813  -0.057  0.00  0.00    -0.050 C 
ATOM      9  C   LIG    1        3.660   1.756  -0.022  0.00  0.00    +0.020 A 
ENDROOT
BRANCH   1  15
ATOM     10  C   LIG    1       -4.778   2.543   0.039  0.00  0.00    +0.380 C 
ATOM     11  N   LIG    1       -3.314   2.509   0.031  0.00  0.00    -0.320 N 
ATOM     12  C   LIG    1       -2.570   1.393   0.022  0.00  0.00    +0.260 A 
ATOM     13  C   LIG    1       -1.239   1.771   0.018  0.00  0.00    -0.180 A 
ATOM     14  C   LIG    1       -0.013   1.076   0.008  0.00  0.00    +0.090 A 
ATOM     15  C   LIG    1        1.167   1.787   0.001  0.00  0.00    -0.040 A 
ATOM     16  C   LIG    1        1.173   3.194   0.007  0.00  0.00    +0.040 A 
ATOM     17  C   LIG    1        0.022   3.911   0.021  0.00  0.00    +0.110 A 
ATOM     18  F   LIG    1        0.066   5.261   0.027  0.00  0.00    -0.140 F 
ATOM     19  C   LIG    1       -1.224   3.241   0.030  0.00  0.00    +0.070 A 
ATOM     20  N   LIG    1       -2.484   3.635   0.043  0.00  0.00    -0.300 NA
ENDBRANCH   1  15
BRANCH   8  21
ATOM     21  C   LIG    1        6.462  -1.952   0.916  0.00  0.00    +0.500 C 
ATOM     22  O   LIG    1        7.234  -1.847   1.854  0.00  0.00    -0.690 OA
ATOM     23  O   LIG    1        5.822  -2.979   0.765  0.00  0.00    -0.700 OA
ENDBRANCH   8  21
TORSDOF 2
