REMARK  Name = ZINCrg00000LWgM7.0
REMARK                            x       y       z     vdW  Elec       q    Type
REMARK                         _______ _______ _______ _____ _____    ______ ____
ROOT
ATOM      1  N   LIG    1       -0.838  -0.607   2.057  0.00  0.00    -0.730 N 
ATOM      2  H   LIG    1       -0.378  -0.941   1.271  0.00  0.00    +0.390 HD
ATOM      3  C   LIG    1       -1.049   0.717   2.202  0.00  0.00    +0.710 C 
ATOM      4  N   LIG    1       -0.713   1.565   1.210  0.00  0.00    -0.630 N 
ATOM      5  C   LIG    1       -1.034   2.999   1.299  0.00  0.00    +0.270 C 
ATOM      6  C   LIG    1       -1.738   3.418   0.003  0.00  0.00    +0.210 C 
ATOM      7  O   LIG    1       -0.946   3.013  -1.116  0.00  0.00    -0.350 OA
ATOM      8  C   LIG    1       -0.770   1.598  -1.226  0.00  0.00    +0.150 C 
ATOM      9  C   LIG    1       -0.016   1.085   0.006  0.00  0.00    +0.240 C 
ATOM     10  O   LIG    1       -1.542   1.145   3.228  0.00  0.00    -0.580 OA
ENDROOT
BRANCH   1  13
ATOM     11  C   LIG    1       -0.082  -3.258   2.882  0.00  0.00    +0.020 C 
ATOM     12  C   LIG    1       -1.556  -2.962   2.559  0.00  0.00    +0.030 C 
ATOM     13  C   LIG    1       -1.304  -1.540   3.086  0.00  0.00    +0.250 C 
ATOM     14  C   LIG    1       -0.169  -2.139   3.933  0.00  0.00    +0.030 C 
BRANCH  11  21
ATOM     15  C   LIG    1        1.634  -5.152   1.532  0.00  0.00    +0.090 C 
ATOM     16  C   LIG    1        0.965  -5.532   2.828  0.00  0.00    -0.080 A 
ATOM     17  C   LIG    1        1.171  -6.786   3.371  0.00  0.00    +0.000 A 
ATOM     18  C   LIG    1        0.557  -7.135   4.559  0.00  0.00    +0.000 A 
ATOM     19  C   LIG    1       -0.263  -6.229   5.205  0.00  0.00    +0.000 A 
ATOM     20  C   LIG    1       -0.466  -4.973   4.665  0.00  0.00    +0.010 A 
ATOM     21  C   LIG    1        0.144  -4.626   3.474  0.00  0.00    -0.070 A 
ENDBRANCH  11  21
ENDBRANCH   1  13
BRANCH   8  22
ATOM     22  C   LIG    1        0.035   1.279  -2.487  0.00  0.00    +0.200 C 
BRANCH  22  23
ATOM     23  N   LIG    1       -0.688   1.771  -3.668  0.00  0.00    -0.510 NA
ATOM     24  C   LIG    1       -1.944   1.034  -3.860  0.00  0.00    +0.200 C 
BRANCH  23  25
ATOM     25  C   LIG    1        0.154   1.698  -4.869  0.00  0.00    +0.200 C 
BRANCH  25  26
ATOM     26  C   LIG    1       -0.521   2.429  -6.001  0.00  0.00    +0.520 C 
ATOM     27  O   LIG    1       -1.597   2.959  -5.824  0.00  0.00    -0.520 OA
ATOM     28  N   LIG    1        0.072   2.495  -7.209  0.00  0.00    -0.860 N 
ATOM     29  H   LIG    1       -0.362   2.966  -7.938  0.00  0.00    +0.400 HD
ATOM     30  H   LIG    1        0.933   2.071  -7.351  0.00  0.00    +0.400 HD
ENDBRANCH  25  26
ENDBRANCH  23  25
ENDBRANCH  22  23
ENDBRANCH   8  22
TORSDOF 6
