REMARK  Name = ZINCtV00000L6jmj.0
REMARK                            x       y       z     vdW  Elec       q    Type
REMARK                         _______ _______ _______ _____ _____    ______ ____
ROOT
ATOM      1  C   LIG    1        2.470   4.059  -0.204  0.00  0.00    -0.360 A 
ATOM      2  C   LIG    1        1.289   3.352  -0.298  0.00  0.00    +0.260 A 
ATOM      3  N   LIG    1        0.282   4.069  -0.752  0.00  0.00    -0.530 NA
ATOM      4  C   LIG    1        0.521   5.311  -1.050  0.00  0.00    +0.330 A 
ATOM      5  S   LIG    1        2.158   5.702  -0.758  0.00  0.00    +0.170 S 
ENDROOT
BRANCH   2   6
ATOM      6  C   LIG    1        1.165   1.926   0.082  0.00  0.00    -0.040 A 
ATOM      7  C   LIG    1        1.676   1.478   1.300  0.00  0.00    +0.080 A 
ATOM      8  C   LIG    1        1.556   0.148   1.648  0.00  0.00    -0.010 A 
ATOM      9  C   LIG    1        0.931  -0.740   0.792  0.00  0.00    +0.020 A 
ATOM     10  C   LIG    1        0.422  -0.302  -0.418  0.00  0.00    -0.010 A 
ATOM     11  C   LIG    1        0.535   1.025  -0.777  0.00  0.00    +0.040 A 
ENDBRANCH   2   6
BRANCH   1  14
ATOM     12  N   LIG    1        4.756   4.388   0.429  0.00  0.00    -0.670 N 
ATOM     13  H   LIG    1        4.635   5.345   0.325  0.00  0.00    +0.400 HD
ATOM     14  C   LIG    1        3.712   3.554   0.255  0.00  0.00    +0.600 C 
ATOM     15  O   LIG    1        3.836   2.365   0.491  0.00  0.00    -0.500 OA
BRANCH  12  20
ATOM     16  C   LIG    1        9.858   2.306   1.776  0.00  0.00    +0.090 C 
ATOM     17  C   LIG    1        8.502   2.859   1.419  0.00  0.00    -0.100 A 
ATOM     18  C   LIG    1        7.654   2.133   0.603  0.00  0.00    +0.030 A 
ATOM     19  C   LIG    1        6.411   2.637   0.273  0.00  0.00    +0.010 A 
ATOM     20  C   LIG    1        6.013   3.874   0.762  0.00  0.00    +0.150 A 
ATOM     21  C   LIG    1        6.870   4.604   1.577  0.00  0.00    -0.020 A 
ATOM     22  C   LIG    1        8.109   4.092   1.907  0.00  0.00    -0.070 A 
ATOM     23  C   LIG    1        9.036   4.880   2.796  0.00  0.00    +0.090 C 
ENDBRANCH  12  20
ENDBRANCH   1  14
BRANCH   4  24
ATOM     24  N   LIG    1       -0.420   6.194  -1.536  0.00  0.00    -0.620 N 
ATOM     25  H   LIG    1       -1.309   5.879  -1.766  0.00  0.00    +0.430 HD
BRANCH  24  26
ATOM     26  C   LIG    1       -0.095   7.544  -1.696  0.00  0.00    +0.140 A 
ATOM     27  C   LIG    1        0.671   8.194  -0.736  0.00  0.00    -0.020 A 
ATOM     28  C   LIG    1        0.995   9.527  -0.900  0.00  0.00    +0.040 A 
ATOM     29  C   LIG    1        0.550  10.216  -2.014  0.00  0.00    +0.000 A 
ATOM     30  C   LIG    1       -0.216   9.573  -2.968  0.00  0.00    +0.040 A 
ATOM     31  C   LIG    1       -0.540   8.240  -2.813  0.00  0.00    +0.000 A 
ENDBRANCH  24  26
ENDBRANCH   4  24
TORSDOF 5
