REMARK  Name = ZINCpe000000TpQo.0
REMARK                            x       y       z     vdW  Elec       q    Type
REMARK                         _______ _______ _______ _____ _____    ______ ____
ROOT
ATOM      1  N   LIG    1        0.005   1.470   0.014  0.00  0.00    -0.580 N 
ATOM      2  C   LIG    1        1.115   2.218   0.011  0.00  0.00    +0.700 C 
ATOM      3  N   LIG    1        0.844   3.538   0.021  0.00  0.00    -0.710 N 
ATOM      4  H   LIG    1        1.488   4.263   0.021  0.00  0.00    +0.440 HD
ATOM      5  C   LIG    1       -0.619   3.661   0.033  0.00  0.00    +0.170 C 
ATOM      6  C   LIG    1       -1.104   4.394  -1.214  0.00  0.00    +0.050 C 
ATOM      7  C   LIG    1       -0.821   5.892  -1.036  0.00  0.00    +0.260 C 
ATOM      8  O   LIG    1       -1.590   6.370   0.069  0.00  0.00    -0.310 OA
ATOM      9  C   LIG    1       -1.532   5.675   1.234  0.00  0.00    +0.160 A 
ATOM     10  C   LIG    1       -1.945   6.301   2.405  0.00  0.00    -0.010 A 
ATOM     11  C   LIG    1       -1.908   5.622   3.606  0.00  0.00    +0.080 A 
ATOM     12  C   LIG    1       -1.458   4.316   3.647  0.00  0.00    -0.020 A 
ATOM     13  C   LIG    1       -1.045   3.691   2.486  0.00  0.00    +0.050 A 
ATOM     14  C   LIG    1       -1.079   4.366   1.278  0.00  0.00    -0.180 A 
ATOM     15  O   LIG    1        2.240   1.759  -0.001  0.00  0.00    -0.510 OA
ATOM     16  C   LIG    1       -1.109   2.231   0.022  0.00  0.00    +0.540 C 
ATOM     17  O   LIG    1       -2.259   1.849   0.023  0.00  0.00    -0.450 OA
ENDROOT
BRANCH   1  18
ATOM     18  C   LIG    1        0.000   0.004   0.004  0.00  0.00    +0.480 C 
BRANCH  18  23
ATOM     19  N   LIG    1       -0.850  -0.881   2.239  0.00  0.00    -0.290 N 
ATOM     20  N   LIG    1       -0.305  -1.258   3.346  0.00  0.00    -0.080 NA
ATOM     21  N   LIG    1        0.972  -1.127   3.244  0.00  0.00    -0.070 NA
ATOM     22  N   LIG    1        1.264  -0.672   2.075  0.00  0.00    -0.270 NA
ATOM     23  C   LIG    1        0.145  -0.508   1.413  0.00  0.00    +0.140 A 
BRANCH  19  24
ATOM     24  C   LIG    1       -2.284  -0.866   1.937  0.00  0.00    +0.340 C 
BRANCH  24  26
ATOM     25  C   LIG    1       -4.235  -2.269   1.255  0.00  0.00    +0.040 C 
ATOM     26  C   LIG    1       -2.718  -2.251   1.453  0.00  0.00    +0.010 C 
ENDBRANCH  24  26
ENDBRANCH  19  24
ENDBRANCH  18  23
ENDBRANCH   1  18
TORSDOF 4
