REMARK  Name = ZINCrD00000F5LAW.0
REMARK                            x       y       z     vdW  Elec       q    Type
REMARK                         _______ _______ _______ _____ _____    ______ ____
ROOT
ATOM      1  C   LIG    1       -0.013   1.086   0.008  0.00  0.00    +0.360 C 
ENDROOT
BRANCH   1   2
ATOM      2  C   LIG    1        1.401   1.607  -0.003  0.00  0.00    -0.030 A 
ATOM      3  C   LIG    1        2.534   0.875  -0.112  0.00  0.00    +0.180 A 
ATOM      4  N   LIG    1        3.559   1.757  -0.075  0.00  0.00    -0.290 N 
ATOM      5  N   LIG    1        3.068   2.941   0.048  0.00  0.00    -0.080 NA
ATOM      6  N   LIG    1        1.783   2.886   0.088  0.00  0.00    -0.240 NA
BRANCH   4   7
ATOM      7  C   LIG    1        4.983   1.423  -0.161  0.00  0.00    +0.340 C 
BRANCH   7   8
ATOM      8  C   LIG    1        5.624   2.212  -1.305  0.00  0.00    +0.220 C 
BRANCH   8   9
ATOM      9  C   LIG    1        7.133   1.960  -1.316  0.00  0.00    +0.430 C 
ATOM     10  F   LIG    1        7.683   2.373  -0.098  0.00  0.00    -0.170 F 
ATOM     11  F   LIG    1        7.719   2.681  -2.361  0.00  0.00    -0.160 F 
ATOM     12  F   LIG    1        7.375   0.594  -1.498  0.00  0.00    -0.180 F 
ENDBRANCH   8   9
BRANCH   8  13
ATOM     13  O   LIG    1        5.061   1.790  -2.549  0.00  0.00    -0.520 OA
ATOM     14  H   LIG    1        5.192   0.852  -2.741  0.00  0.00    +0.390 HD
ENDBRANCH   8  13
ENDBRANCH   7   8
ENDBRANCH   4   7
ENDBRANCH   1   2
BRANCH   1  16
ATOM     15  C   LIG    1       -1.773   0.883  -1.664  0.00  0.00    +0.610 C 
ATOM     16  N   LIG    1       -0.721   1.571  -1.179  0.00  0.00    -0.710 N 
ATOM     17  H   LIG    1       -0.433   2.388  -1.615  0.00  0.00    +0.410 HD
ATOM     18  O   LIG    1       -2.135  -0.142  -1.116  0.00  0.00    -0.510 OA
BRANCH  15  23
ATOM     19  C   LIG    1       -3.049   3.727  -5.583  0.00  0.00    +0.200 C 
ATOM     20  C   LIG    1       -3.047   2.611  -4.571  0.00  0.00    +0.070 A 
ATOM     21  C   LIG    1       -3.912   1.573  -4.542  0.00  0.00    -0.200 A 
ATOM     22  C   LIG    1       -3.558   0.771  -3.445  0.00  0.00    +0.080 A 
ATOM     23  C   LIG    1       -2.483   1.369  -2.852  0.00  0.00    -0.080 A 
ATOM     24 BR   LIG    1       -5.330   1.258  -5.752  0.00  0.00    +0.000 Br
ATOM     25  O   LIG    1       -2.190   2.487  -3.548  0.00  0.00    -0.150 OA
ENDBRANCH  15  23
ENDBRANCH   1  16
BRANCH   1  26
ATOM     26  C   LIG    1       -0.729   1.579   1.267  0.00  0.00    -0.070 C 
ATOM     27  C   LIG    1        0.011   1.072   2.506  0.00  0.00    +0.030 C 
ATOM     28  C   LIG    1       -2.164   1.050   1.278  0.00  0.00    +0.020 C 
ATOM     29  C   LIG    1       -0.750   3.109   1.275  0.00  0.00    +0.030 C 
ENDBRANCH   1  26
TORSDOF 8
