REMARK  Name = ZINCrD000000Apyf.0
REMARK                            x       y       z     vdW  Elec       q    Type
REMARK                         _______ _______ _______ _____ _____    ______ ____
ROOT
ATOM      1  C   LIG    1       -3.349   4.532  -0.265  0.00  0.00    +0.210 A 
ATOM      2  C   LIG    1       -3.663   3.179  -0.269  0.00  0.00    -0.050 A 
ATOM      3  C   LIG    1       -2.661   2.231  -0.179  0.00  0.00    +0.050 A 
ATOM      4  C   LIG    1       -1.341   2.622  -0.090  0.00  0.00    -0.020 A 
ATOM      5  C   LIG    1       -1.014   3.979  -0.079  0.00  0.00    -0.090 A 
ATOM      6  C   LIG    1       -2.025   4.936  -0.170  0.00  0.00    +0.010 A 
ENDROOT
BRANCH   5   7
ATOM      7  C   LIG    1        0.399   4.401   0.022  0.00  0.00    +0.570 C 
ATOM      8  N   LIG    1        1.383   3.483  -0.051  0.00  0.00    -0.550 N 
ATOM      9  C   LIG    1        1.177   2.034  -0.115  0.00  0.00    +0.290 C 
ATOM     10  C   LIG    1        2.588   1.429  -0.186  0.00  0.00    +0.090 C 
ATOM     11  C   LIG    1        3.516   2.622  -0.156  0.00  0.00    -0.140 A 
ATOM     12  C   LIG    1        4.895   2.699  -0.193  0.00  0.00    +0.050 A 
ATOM     13  C   LIG    1        5.523   3.930  -0.152  0.00  0.00    -0.010 A 
ATOM     14  C   LIG    1        4.768   5.085  -0.074  0.00  0.00    +0.040 A 
ATOM     15  C   LIG    1        3.391   5.014  -0.037  0.00  0.00    +0.010 A 
ATOM     16  C   LIG    1        2.750   3.775  -0.078  0.00  0.00    +0.140 A 
ATOM     17  O   LIG    1        0.673   5.576   0.171  0.00  0.00    -0.510 OA
ENDBRANCH   5   7
BRANCH   1  18
ATOM     18  N   LIG    1       -4.365   5.486  -0.357  0.00  0.00    -0.740 N 
ATOM     19  H   LIG    1       -4.145   6.431  -0.354  0.00  0.00    +0.410 HD
BRANCH  18  20
ATOM     20  C   LIG    1       -5.763   5.060  -0.457  0.00  0.00    +0.290 C 
BRANCH  20  22
ATOM     21  O   LIG    1       -6.168   7.384  -0.522  0.00  0.00    -0.530 OA
ATOM     22  C   LIG    1       -6.653   6.273  -0.543  0.00  0.00    +0.510 C 
ATOM     23  N   LIG    1       -7.989   6.122  -0.642  0.00  0.00    -0.610 N 
ATOM     24  C   LIG    1       -8.591   4.783  -0.674  0.00  0.00    +0.270 C 
ATOM     25  C   LIG    1       -9.665   4.703   0.421  0.00  0.00    +0.010 C 
ATOM     26  C   LIG    1      -10.665   5.846   0.231  0.00  0.00    +0.020 C 
ATOM     27  C   LIG    1       -9.940   7.188   0.364  0.00  0.00    +0.010 C 
ATOM     28  C   LIG    1       -8.870   7.295  -0.727  0.00  0.00    +0.270 C 
ENDBRANCH  20  22
ENDBRANCH  18  20
ENDBRANCH   1  18
TORSDOF 4
