REMARK  Name = ZINCkj000005kdpt.0
REMARK                            x       y       z     vdW  Elec       q    Type
REMARK                         _______ _______ _______ _____ _____    ______ ____
ROOT
ATOM      1  CA  LIG    1       -1.456   4.020  -2.410  0.00  0.00    +0.240 C 
ENDROOT
BRANCH   1   7
ATOM      2  C   LIG    1       -1.555   8.441  -0.068  0.00  0.00    +0.100 C 
ATOM      3  C   LIG    1       -1.413   7.638  -1.335  0.00  0.00    -0.070 A 
ATOM      4  C   LIG    1       -1.198   8.281  -2.540  0.00  0.00    +0.030 A 
ATOM      5  C   LIG    1       -1.067   7.545  -3.703  0.00  0.00    -0.070 A 
ATOM      6  C   LIG    1       -1.151   6.166  -3.661  0.00  0.00    +0.030 A 
ATOM      7  C   LIG    1       -1.365   5.523  -2.456  0.00  0.00    -0.130 A 
ATOM      8  C   LIG    1       -0.832   8.246  -5.016  0.00  0.00    +0.100 C 
ATOM      9  C   LIG    1       -1.501   6.260  -1.294  0.00  0.00    +0.010 A 
ENDBRANCH   1   7
BRANCH   1  10
ATOM     10  N   LIG    1       -0.759   3.523  -1.216  0.00  0.00    -0.500 N 
ATOM     11  H1  LIG    1        0.189   3.869  -1.212  0.00  0.00    +0.440 HD
ATOM     12  H2  LIG    1       -1.239   3.845  -0.389  0.00  0.00    +0.430 HD
BRANCH  10  13
ATOM     13  C   LIG    1       -0.745   2.054  -1.233  0.00  0.00    +0.270 C 
BRANCH  13  14
ATOM     14  C   LIG    1       -0.019   1.537   0.011  0.00  0.00    +0.150 C 
ATOM     15  C   LIG    1        0.002  -0.004   0.002  0.00  0.00    +0.050 C 
ATOM     16  C   LIG    1        1.508  -0.363   0.039  0.00  0.00    -0.020 C 
ATOM     17  C   LIG    1        2.138   0.935   0.603  0.00  0.00    +0.240 C 
ATOM     18  O   LIG    1        1.348   1.983  -0.000  0.00  0.00    -0.380 OA
BRANCH  16  19
ATOM     19  C   LIG    1        1.764  -1.546   0.975  0.00  0.00    +0.190 C 
BRANCH  19  20
ATOM     20  O   LIG    1        3.139  -1.926   0.897  0.00  0.00    -0.570 OA
ATOM     21  H   LIG    1        3.374  -2.671   1.466  0.00  0.00    +0.390 HD
ENDBRANCH  19  20
ENDBRANCH  16  19
ENDBRANCH  13  14
ENDBRANCH  10  13
ENDBRANCH   1  10
BRANCH   1  22
ATOM     22  C   LIG    1       -2.926   3.599  -2.354  0.00  0.00    +0.220 C 
BRANCH  22  23
ATOM     23  O   LIG    1       -3.564   4.243  -1.249  0.00  0.00    -0.570 OA
ATOM     24  H   LIG    1       -4.500   4.022  -1.153  0.00  0.00    +0.410 HD
ENDBRANCH  22  23
ENDBRANCH   1  22
TORSDOF 8
