REMARK  Name = ZINCbw0000000Hbp.0
REMARK                            x       y       z     vdW  Elec       q    Type
REMARK                         _______ _______ _______ _____ _____    ______ ____
ROOT
ATOM      1  C   LIG    1        2.407   0.035  -0.020  0.00  0.00    -0.130 A 
ATOM      2  C   LIG    1        1.206  -0.681  -0.013  0.00  0.00    +0.060 A 
ATOM      3  C   LIG    1        0.002  -0.004   0.002  0.00  0.00    +0.110 A 
ATOM      4  C   LIG    1       -0.017   1.381   0.010  0.00  0.00    +0.030 A 
ATOM      5  C   LIG    1        1.169   2.097   0.002  0.00  0.00    -0.020 A 
ATOM      6 CL   LIG    1        1.134   3.832   0.012  0.00  0.00    -0.040 Cl
ATOM      7  F   LIG    1       -1.159  -0.694   0.009  0.00  0.00    -0.130 F 
ATOM      8  C   LIG    1        2.379   1.433  -0.013  0.00  0.00    +0.070 A 
ENDROOT
BRANCH   1  10
ATOM      9  C   LIG    1        4.986   0.097  -0.044  0.00  0.00    +0.090 C 
ATOM     10  C   LIG    1        3.693  -0.679  -0.036  0.00  0.00    +0.400 C 
ATOM     11  O   LIG    1        3.714  -1.891  -0.042  0.00  0.00    -0.440 OA
ENDBRANCH   1  10
TORSDOF 1
