REMARK  Name = ZINCqH0000002MUs.0
REMARK                            x       y       z     vdW  Elec       q    Type
REMARK                         _______ _______ _______ _____ _____    ______ ____
ROOT
ATOM      1  C   LIG    1        1.410   1.721  -0.332  0.00  0.00    +0.180 C 
ATOM      2  C   LIG    1        1.359   3.243  -0.079  0.00  0.00    +0.050 C 
ATOM      3  C   LIG    1        2.676   3.747  -0.727  0.00  0.00    +0.030 C 
ATOM      4  C   LIG    1        2.802   2.803  -1.949  0.00  0.00    +0.240 C 
ATOM      5  N   LIG    1        2.313   1.498  -1.470  0.00  0.00    -0.600 N 
ATOM      6  C   LIG    1        2.639   0.298  -1.990  0.00  0.00    +0.610 C 
ATOM      7  O   LIG    1        2.162  -0.718  -1.522  0.00  0.00    -0.500 OA
ENDROOT
BRANCH   6   8
ATOM      8  C   LIG    1        3.575   0.217  -3.127  0.00  0.00    -0.280 A 
ATOM      9  C   LIG    1        4.124  -0.934  -3.656  0.00  0.00    +0.160 A 
ATOM     10  N   LIG    1        4.917  -0.568  -4.679  0.00  0.00    -0.320 N 
ATOM     11  N   LIG    1        4.877   0.827  -4.793  0.00  0.00    -0.280 NA
ATOM     12  C   LIG    1        3.878  -2.342  -3.178  0.00  0.00    +0.170 C 
ATOM     13  C   LIG    1        4.081   1.304  -3.875  0.00  0.00    +0.270 A 
BRANCH  10  14
ATOM     14  C   LIG    1        5.662  -1.435  -5.490  0.00  0.00    +0.110 A 
ATOM     15  C   LIG    1        5.069  -2.570  -6.024  0.00  0.00    +0.050 A 
ATOM     16  C   LIG    1        5.804  -3.420  -6.827  0.00  0.00    +0.030 A 
ATOM     17  C   LIG    1        7.134  -3.148  -7.091  0.00  0.00    +0.060 A 
ATOM     18  C   LIG    1        7.732  -2.022  -6.556  0.00  0.00    +0.010 A 
ATOM     19  C   LIG    1        7.000  -1.163  -5.756  0.00  0.00    +0.120 A 
ATOM     20  F   LIG    1        7.584  -0.063  -5.233  0.00  0.00    -0.120 F 
ENDBRANCH  10  14
ENDBRANCH   6   8
BRANCH   1  21
ATOM     21  C   LIG    1        1.947   1.002   0.907  0.00  0.00    +0.040 C 
BRANCH  21  23
ATOM     22  C   LIG    1        3.965   0.640   2.335  0.00  0.00    +0.000 C 
ATOM     23  C   LIG    1        3.387   1.447   1.171  0.00  0.00    +0.000 C 
ENDBRANCH  21  23
ENDBRANCH   1  21
BRANCH   1  24
ATOM     24  C   LIG    1        0.011   1.202  -0.668  0.00  0.00    +0.150 C 
BRANCH  24  25
ATOM     25  O   LIG    1        0.064  -0.210  -0.877  0.00  0.00    -0.340 OA
ATOM     26  C   LIG    1       -1.198  -0.798  -1.199  0.00  0.00    +0.170 C 
ENDBRANCH  24  25
ENDBRANCH   1  24
TORSDOF 6
