REMARK  Name = ZINCvU0000000I0d.0
REMARK                            x       y       z     vdW  Elec       q    Type
REMARK                         _______ _______ _______ _____ _____    ______ ____
ROOT
ATOM      1  C   LIG    1        3.779   4.590   0.137  0.00  0.00    +0.150 C 
ATOM      2  C   LIG    1        3.185   3.205   0.107  0.00  0.00    +0.220 A 
ATOM      3  N   LIG    1        1.877   3.053   0.123  0.00  0.00    -0.470 NA
ATOM      4  C   LIG    1        1.321   1.837   0.098  0.00  0.00    +0.290 A 
ATOM      5  C   LIG    1       -0.012   1.407   0.107  0.00  0.00    -0.200 A 
ATOM      6  C   LIG    1        0.004   0.008   0.068  0.00  0.00    +0.140 A 
ATOM      7  N   LIG    1        1.249  -0.400   0.036  0.00  0.00    -0.300 NA
ATOM      8  C   LIG    1       -1.211  -0.884   0.062  0.00  0.00    +0.180 C 
ATOM      9  N   LIG    1        2.099   0.711   0.054  0.00  0.00    -0.300 N 
ATOM     10  C   LIG    1        3.465   0.830   0.036  0.00  0.00    +0.160 A 
ATOM     11  C   LIG    1        4.023   2.092   0.063  0.00  0.00    -0.090 A 
ENDROOT
BRANCH   5  12
ATOM     12  C   LIG    1       -1.214   2.272   0.145  0.00  0.00    +0.010 A 
ATOM     13  C   LIG    1       -1.494   3.128  -0.920  0.00  0.00    +0.020 A 
ATOM     14  C   LIG    1       -2.618   3.928  -0.881  0.00  0.00    +0.000 A 
ATOM     15  C   LIG    1       -3.461   3.888   0.215  0.00  0.00    +0.000 A 
ATOM     16  C   LIG    1       -3.185   3.044   1.277  0.00  0.00    +0.000 A 
ATOM     17  C   LIG    1       -2.067   2.236   1.247  0.00  0.00    +0.010 A 
ENDBRANCH   5  12
BRANCH  10  18
ATOM     18  S   LIG    1        4.489  -0.603  -0.019  0.00  0.00    +0.100 S 
BRANCH  18  19
ATOM     19  C   LIG    1        6.122   0.179  -0.022  0.00  0.00    +0.080 C 
BRANCH  19  20
ATOM     20  C   LIG    1        7.188  -0.885  -0.069  0.00  0.00    +0.540 C 
ATOM     21  N   LIG    1        8.485  -0.536  -0.180  0.00  0.00    -0.540 N 
ATOM     22  C   LIG    1        8.880   0.879  -0.178  0.00  0.00    +0.280 C 
ATOM     23  C   LIG    1        9.908   1.081  -1.298  0.00  0.00    +0.030 C 
ATOM     24  C   LIG    1       11.150   0.247  -0.984  0.00  0.00    +0.080 C 
ATOM     25  C   LIG    1       10.767  -1.178  -0.686  0.00  0.00    -0.110 A 
ATOM     26  C   LIG    1       11.729  -2.168  -0.800  0.00  0.00    +0.030 A 
ATOM     27  C   LIG    1       11.409  -3.485  -0.530  0.00  0.00    -0.010 A 
ATOM     28  C   LIG    1       10.125  -3.822  -0.142  0.00  0.00    +0.030 A 
ATOM     29  C   LIG    1        9.160  -2.841  -0.027  0.00  0.00    +0.010 A 
ATOM     30  C   LIG    1        9.480  -1.516  -0.294  0.00  0.00    +0.150 A 
ATOM     31  O   LIG    1        6.879  -2.057  -0.005  0.00  0.00    -0.490 OA
ENDBRANCH  19  20
ENDBRANCH  18  19
ENDBRANCH  10  18
TORSDOF 4
