REMARK  Name = ZINCqH00000074Ou.0
REMARK                            x       y       z     vdW  Elec       q    Type
REMARK                         _______ _______ _______ _____ _____    ______ ____
ROOT
ATOM      1  N   LIG    1        2.356   3.900   0.000  0.00  0.00    -0.660 N 
ATOM      2  H   LIG    1        3.162   3.496  -0.358  0.00  0.00    +0.420 HD
ATOM      3  C   LIG    1        2.393   5.151   0.499  0.00  0.00    +0.520 C 
ATOM      4  O   LIG    1        1.411   5.619   1.037  0.00  0.00    -0.510 OA
ENDROOT
BRANCH   1  10
ATOM      5  C   LIG    1        1.170   1.789  -0.013  0.00  0.00    +0.090 A 
ATOM      6  C   LIG    1       -0.022   1.084  -0.016  0.00  0.00    -0.060 A 
ATOM      7  C   LIG    1       -1.227   1.763  -0.013  0.00  0.00    +0.030 A 
ATOM      8  C   LIG    1       -1.246   3.145   0.004  0.00  0.00    -0.080 A 
ATOM      9  C   LIG    1       -0.060   3.856   0.006  0.00  0.00    +0.060 A 
ATOM     10  C   LIG    1        1.152   3.182  -0.002  0.00  0.00    +0.120 A 
BRANCH   8  11
ATOM     11  C   LIG    1       -2.562   3.879   0.013  0.00  0.00    -0.020 C 
ATOM     12  C   LIG    1       -2.652   4.747   1.270  0.00  0.00    +0.040 C 
ATOM     13  C   LIG    1       -3.710   2.868   0.008  0.00  0.00    +0.040 C 
ATOM     14  C   LIG    1       -2.659   4.768  -1.229  0.00  0.00    +0.040 C 
ENDBRANCH   8  11
BRANCH   5  16
ATOM     15  C   LIG    1        2.297  -0.305  -0.032  0.00  0.00    +0.250 C 
ATOM     16  O   LIG    1        2.356   1.122  -0.021  0.00  0.00    -0.320 OA
ENDBRANCH   5  16
ENDBRANCH   1  10
BRANCH   3  17
ATOM     17  C   LIG    1        3.653   5.969   0.389  0.00  0.00    +0.100 C 
BRANCH  17  18
ATOM     18  C   LIG    1        3.429   7.341   1.030  0.00  0.00    -0.290 C 
BRANCH  18  19
ATOM     19  S   LIG    1        4.947   8.325   0.897  0.00  0.00    +2.500 S 
ATOM     20  O   LIG    1        5.201   8.670  -0.458  0.00  0.00    -0.930 OA
ATOM     21  O   LIG    1        5.969   7.779   1.718  0.00  0.00    -0.930 OA
BRANCH  19  22
ATOM     22  C   LIG    1        4.545   9.858   1.667  0.00  0.00    -0.660 A 
ATOM     23  C   LIG    1        4.020  10.893   0.915  0.00  0.00    +0.120 A 
ATOM     24  C   LIG    1        3.700  12.094   1.519  0.00  0.00    -0.010 A 
ATOM     25  C   LIG    1        3.914  12.264   2.874  0.00  0.00    +0.070 A 
ATOM     26  C   LIG    1        4.444  11.232   3.626  0.00  0.00    -0.010 A 
ATOM     27  C   LIG    1        4.759  10.029   3.022  0.00  0.00    +0.120 A 
ENDBRANCH  19  22
ENDBRANCH  18  19
ENDBRANCH  17  18
ENDBRANCH   3  17
TORSDOF 7
