REMARK  Name = ZINCrD00000F5Lkf.0
REMARK                            x       y       z     vdW  Elec       q    Type
REMARK                         _______ _______ _______ _____ _____    ______ ____
ROOT
ATOM      1  C   LIG    1        1.290  -2.580  -3.993  0.00  0.00    +0.120 A 
ATOM      2  C   LIG    1        1.540  -1.509  -4.840  0.00  0.00    +0.090 A 
ATOM      3  C   LIG    1        1.153  -0.235  -4.474  0.00  0.00    +0.000 A 
ATOM      4  C   LIG    1        0.512  -0.026  -3.264  0.00  0.00    +0.180 A 
ATOM      5  C   LIG    1        0.267  -1.093  -2.415  0.00  0.00    -0.700 A 
ATOM      6  F   LIG    1        0.130   1.220  -2.910  0.00  0.00    -0.120 F 
ATOM      7  C   LIG    1        0.652  -2.368  -2.778  0.00  0.00    +0.170 A 
ENDROOT
BRANCH   1  10
ATOM      8  O   LIG    1       -0.118  -4.764  -3.410  0.00  0.00    -0.520 OA
ATOM      9  C   LIG    1        0.940  -4.934  -3.988  0.00  0.00    +0.560 C 
ATOM     10  N   LIG    1        1.681  -3.872  -4.363  0.00  0.00    -0.670 N 
ATOM     11  H   LIG    1        2.485  -4.004  -4.890  0.00  0.00    +0.420 HD
BRANCH   9  12
ATOM     12  C   LIG    1        1.392  -6.244  -4.264  0.00  0.00    -0.110 C 
ATOM     13  C   LIG    1        0.646  -7.313  -3.886  0.00  0.00    +0.200 C 
BRANCH  13  14
ATOM     14  C   LIG    1        1.098  -8.625  -4.163  0.00  0.00    -0.200 A 
ATOM     15  C   LIG    1        0.438  -9.780  -3.833  0.00  0.00    +0.080 A 
ATOM     16  C   LIG    1        1.105 -10.916  -4.224  0.00  0.00    +0.050 A 
ATOM     17  C   LIG    1        2.270 -10.704  -4.851  0.00  0.00    -0.230 A 
ATOM     18 BR   LIG    1        3.402 -12.073  -5.499  0.00  0.00    +0.020 Br
ATOM     19  S   LIG    1        2.593  -9.035  -4.992  0.00  0.00    +0.260 S 
ENDBRANCH  13  14
ENDBRANCH   9  12
ENDBRANCH   1  10
BRANCH   5  20
ATOM     20  S   LIG    1       -0.543  -0.822  -0.874  0.00  0.00    +2.690 S 
ATOM     21  O   LIG    1       -1.684  -0.023  -1.155  0.00  0.00    -0.940 OA
ATOM     22  O   LIG    1       -0.619  -2.089  -0.233  0.00  0.00    -0.940 OA
BRANCH  20  23
ATOM     23  N   LIG    1        0.465   0.110   0.052  0.00  0.00    -1.000 NA
ATOM     24  C   LIG    1        0.388   1.579   0.011  0.00  0.00    +0.280 C 
ATOM     25  C   LIG    1        1.800   2.131  -0.218  0.00  0.00    +0.220 C 
ATOM     26  O   LIG    1        2.688   1.568   0.751  0.00  0.00    -0.370 OA
ATOM     27  C   LIG    1        2.822   0.147   0.666  0.00  0.00    +0.210 C 
ATOM     28  C   LIG    1        1.463  -0.506   0.941  0.00  0.00    +0.270 C 
ENDBRANCH  20  23
ENDBRANCH   5  20
TORSDOF 5
