REMARK  Name = ZINCrH000004vHJS.0
REMARK                            x       y       z     vdW  Elec       q    Type
REMARK                         _______ _______ _______ _____ _____    ______ ____
ROOT
ATOM      1  C   LIG    1        0.267  -2.809   0.379  0.00  0.00    +0.570 C 
ATOM      2  N   LIG    1        1.440  -2.215   0.675  0.00  0.00    -0.530 N 
ATOM      3  O   LIG    1        0.246  -3.788  -0.341  0.00  0.00    -0.500 OA
ENDROOT
BRANCH   1  11
ATOM      4  O   LIG    1       -6.456  -0.099   3.125  0.00  0.00    -0.540 OA
ATOM      5  C   LIG    1       -5.693  -1.002   2.854  0.00  0.00    +0.530 C 
ATOM      6  C   LIG    1       -6.240  -2.381   2.950  0.00  0.00    +0.070 C 
ATOM      7  C   LIG    1       -5.672  -3.288   1.885  0.00  0.00    +0.040 C 
ATOM      8  C   LIG    1       -4.248  -3.679   2.134  0.00  0.00    +0.090 C 
ATOM      9  C   LIG    1       -3.222  -2.643   1.809  0.00  0.00    -0.120 A 
ATOM     10  C   LIG    1       -2.030  -3.128   1.283  0.00  0.00    +0.120 A 
ATOM     11  C   LIG    1       -0.993  -2.271   0.929  0.00  0.00    -0.160 A 
ATOM     12  C   LIG    1       -1.161  -0.894   1.095  0.00  0.00    +0.070 A 
ATOM     13  C   LIG    1       -2.337  -0.418   1.610  0.00  0.00    -0.030 A 
ATOM     14  C   LIG    1       -3.386  -1.282   1.980  0.00  0.00    +0.210 A 
ATOM     15  N   LIG    1       -4.485  -0.657   2.511  0.00  0.00    -0.650 N 
ATOM     16  H   LIG    1       -4.319   0.284   2.675  0.00  0.00    +0.400 HD
ENDBRANCH   1  11
BRANCH   2  17
ATOM     17  C   LIG    1        2.620  -2.678   0.099  0.00  0.00    +0.350 A 
ATOM     18  C   LIG    1        2.564  -3.494  -1.025  0.00  0.00    -0.020 A 
ATOM     19  C   LIG    1        3.745  -3.947  -1.587  0.00  0.00    +0.080 A 
ATOM     20  C   LIG    1        4.945  -3.567  -1.003  0.00  0.00    -0.050 A 
ATOM     21  C   LIG    1        4.926  -2.754   0.113  0.00  0.00    +0.290 A 
ATOM     22  N   LIG    1        3.785  -2.337   0.627  0.00  0.00    -0.500 NA
ENDBRANCH   2  17
BRANCH   2  23
ATOM     23  C   LIG    1        1.473  -1.082   1.603  0.00  0.00    +0.400 C 
BRANCH  23  24
ATOM     24  C   LIG    1        2.031   0.128   0.899  0.00  0.00    -0.030 A 
ATOM     25  C   LIG    1        1.310   1.100   0.313  0.00  0.00    -0.050 A 
ATOM     26  C   LIG    1        2.232   2.031  -0.217  0.00  0.00    -0.070 A 
ATOM     27  C   LIG    1        3.462   1.569   0.070  0.00  0.00    +0.170 A 
ATOM     28  O   LIG    1        3.334   0.415   0.747  0.00  0.00    -0.150 OA
ENDBRANCH  23  24
ENDBRANCH   2  23
TORSDOF 4
