REMARK  Name = ZINCtV00000L6kCQ.0
REMARK                            x       y       z     vdW  Elec       q    Type
REMARK                         _______ _______ _______ _____ _____    ______ ____
ROOT
ATOM      1  C   LIG    1       -1.426  -0.535   0.146  0.00  0.00    +0.040 C 
ATOM      2  C   LIG    1        0.002  -0.004   0.002  0.00  0.00    -0.060 C 
ATOM      3  C   LIG    1        0.856  -0.508   1.173  0.00  0.00    +0.060 C 
ATOM      4  C   LIG    1        2.276  -0.038   0.931  0.00  0.00    +0.400 C 
ATOM      5  C   LIG    1        2.467   1.334   0.447  0.00  0.00    -0.230 A 
ATOM      6  C   LIG    1        1.378   2.087   0.000  0.00  0.00    +0.240 A 
ATOM      7  N   LIG    1        1.560   3.318  -0.442  0.00  0.00    -0.500 NA
ATOM      8  C   LIG    1        2.752   3.894  -0.483  0.00  0.00    +0.190 A 
ATOM      9  C   LIG    1        3.904   3.212  -0.047  0.00  0.00    -0.070 A 
ATOM     10  C   LIG    1        3.763   1.897   0.432  0.00  0.00    +0.120 A 
ATOM     11  O   LIG    1        3.222  -0.771   1.130  0.00  0.00    -0.430 OA
ATOM     12  C   LIG    1        0.601  -0.499  -1.316  0.00  0.00    +0.040 C 
ATOM     13  C   LIG    1       -0.019   1.522   0.010  0.00  0.00    +0.130 C 
ENDROOT
BRANCH  10  14
ATOM     14  C   LIG    1        4.934   1.128   0.905  0.00  0.00    -0.070 A 
ATOM     15  C   LIG    1        5.034   0.757   2.246  0.00  0.00    +0.050 A 
ATOM     16  C   LIG    1        6.127   0.035   2.680  0.00  0.00    +0.010 A 
ATOM     17  C   LIG    1        7.128  -0.312   1.790  0.00  0.00    +0.030 A 
ATOM     18  C   LIG    1        7.038   0.058   0.460  0.00  0.00    +0.010 A 
ATOM     19  C   LIG    1        5.948   0.775   0.012  0.00  0.00    +0.030 A 
ENDBRANCH  10  14
BRANCH   9  20
ATOM     20  C   LIG    1        5.189   3.843  -0.089  0.00  0.00    +0.250 C 
ATOM     21  N   LIG    1        6.208   4.343  -0.123  0.00  0.00    -0.380 NA
ENDBRANCH   9  20
BRANCH   8  22
ATOM     22  S   LIG    1        2.898   5.541  -1.092  0.00  0.00    -0.020 S 
BRANCH  22  23
ATOM     23  C   LIG    1        1.165   5.885  -1.486  0.00  0.00    +0.160 C 
BRANCH  23  24
ATOM     24  C   LIG    1        1.044   7.282  -2.040  0.00  0.00    -0.090 A 
ATOM     25  C   LIG    1        0.815   8.346  -1.187  0.00  0.00    +0.030 A 
ATOM     26  C   LIG    1        0.708   9.627  -1.695  0.00  0.00    +0.010 A 
ATOM     27  C   LIG    1        0.820   9.843  -3.055  0.00  0.00    +0.020 A 
ATOM     28  C   LIG    1        1.044   8.779  -3.908  0.00  0.00    +0.010 A 
ATOM     29  C   LIG    1        1.155   7.498  -3.400  0.00  0.00    +0.030 A 
ENDBRANCH  23  24
ENDBRANCH  22  23
ENDBRANCH   8  22
TORSDOF 5
