REMARK  Name = ZINCpk000000ooME.0
REMARK                            x       y       z     vdW  Elec       q    Type
REMARK                         _______ _______ _______ _____ _____    ______ ____
ROOT
ATOM      1  N   LIG    1       -0.011   0.966   0.007  0.00  0.00    -0.740 N 
ATOM      2  H   LIG    1        0.002  -0.004   0.002  0.00  0.00    +0.400 HD
ATOM      3  C   LIG    1        1.147   1.655   0.000  0.00  0.00    +0.710 C 
ATOM      4  N   LIG    1        2.323   0.998  -0.015  0.00  0.00    -0.660 N 
ATOM      5  H   LIG    1        2.336   0.028  -0.020  0.00  0.00    +0.410 HD
ATOM      6  O   LIG    1        1.130   2.871   0.007  0.00  0.00    -0.570 OA
ENDROOT
BRANCH   1  10
ATOM      7  N   LIG    1       -4.000   2.024   0.749  0.00  0.00    -1.000 NA
ATOM      8  C   LIG    1       -3.704   1.556  -0.612  0.00  0.00    +0.300 C 
ATOM      9  C   LIG    1       -2.376   0.792  -0.592  0.00  0.00    +0.020 C 
ATOM     10  C   LIG    1       -1.290   1.681   0.017  0.00  0.00    +0.270 C 
ATOM     11  C   LIG    1       -1.665   2.033   1.458  0.00  0.00    +0.010 C 
ATOM     12  C   LIG    1       -2.985   2.811   1.462  0.00  0.00    +0.300 C 
BRANCH   7  13
ATOM     13  S   LIG    1       -5.451   1.670   1.466  0.00  0.00    +2.600 S 
ATOM     14  O   LIG    1       -6.345   1.490   0.376  0.00  0.00    -0.950 OA
ATOM     15  O   LIG    1       -5.642   2.719   2.405  0.00  0.00    -0.950 OA
BRANCH  13  16
ATOM     16  C   LIG    1       -5.162   0.095   2.319  0.00  0.00    -0.370 C 
BRANCH  16  18
ATOM     17  C   LIG    1       -6.201  -1.671   3.749  0.00  0.00    +0.030 C 
ATOM     18  C   LIG    1       -6.444  -0.343   3.029  0.00  0.00    +0.040 C 
ENDBRANCH  16  18
ENDBRANCH  13  16
ENDBRANCH   7  13
ENDBRANCH   1  10
BRANCH   4  19
ATOM     19  C   LIG    1        3.533   1.718  -0.022  0.00  0.00    +0.030 A 
ATOM     20  C   LIG    1        4.781   1.185  -0.037  0.00  0.00    +0.190 A 
ATOM     21  N   LIG    1        5.667   2.215  -0.041  0.00  0.00    -0.380 N 
ATOM     22  N   LIG    1        4.937   3.410  -0.028  0.00  0.00    -0.270 NA
ATOM     23  C   LIG    1        3.663   3.115  -0.022  0.00  0.00    +0.270 A 
BRANCH  21  24
ATOM     24  C   LIG    1        7.127   2.096  -0.056  0.00  0.00    +0.340 C 
BRANCH  24  25
ATOM     25  C   LIG    1        7.691   2.885  -1.239  0.00  0.00    +0.370 C 
ATOM     26  F   LIG    1        9.072   2.680  -1.321  0.00  0.00    -0.200 F 
ATOM     27  F   LIG    1        7.432   4.248  -1.056  0.00  0.00    -0.190 F 
ENDBRANCH  24  25
ENDBRANCH  21  24
ENDBRANCH   4  19
TORSDOF 7
