REMARK  Name = ZINCqH0000000WYm.0
REMARK                            x       y       z     vdW  Elec       q    Type
REMARK                         _______ _______ _______ _____ _____    ______ ____
ROOT
ATOM      1  C   LIG    1        1.258   1.968   0.001  0.00  0.00    -0.060 A 
ATOM      2  C   LIG    1        1.260   3.368   0.008  0.00  0.00    +0.000 A 
ATOM      3  C   LIG    1        2.466   4.038   0.001  0.00  0.00    +0.290 A 
ATOM      4  N   LIG    1        3.609   3.380  -0.014  0.00  0.00    -0.500 NA
ATOM      5  C   LIG    1        3.656   2.058  -0.021  0.00  0.00    +0.310 A 
ATOM      6  C   LIG    1        2.486   1.305  -0.009  0.00  0.00    +0.030 A 
ENDROOT
BRANCH   5   7
ATOM      7  N   LIG    1        4.888   1.413  -0.037  0.00  0.00    -0.470 N 
ATOM      8  C   LIG    1        4.991   0.501  -1.186  0.00  0.00    +0.180 C 
ATOM      9  C   LIG    1        6.335  -0.230  -1.131  0.00  0.00    +0.250 C 
ATOM     10  O   LIG    1        7.394   0.731  -1.106  0.00  0.00    -0.370 OA
ATOM     11  C   LIG    1        7.325   1.635   0.000  0.00  0.00    +0.210 C 
ATOM     12  C   LIG    1        5.991   2.385  -0.043  0.00  0.00    +0.210 C 
BRANCH  11  13
ATOM     13  C   LIG    1        8.460   2.622  -0.085  0.00  0.00    -0.100 A 
ATOM     14  C   LIG    1        8.836   3.138  -1.311  0.00  0.00    +0.080 A 
ATOM     15  C   LIG    1        9.873   4.048  -1.390  0.00  0.00    -0.020 A 
ATOM     16  C   LIG    1       10.544   4.434  -0.241  0.00  0.00    +0.100 A 
ATOM     17  C   LIG    1       10.171   3.912   0.985  0.00  0.00    -0.010 A 
ATOM     18  F   LIG    1       11.562   5.318  -0.318  0.00  0.00    -0.140 F 
ATOM     19  C   LIG    1        9.129   3.006   1.062  0.00  0.00    +0.070 A 
ENDBRANCH  11  13
ENDBRANCH   5   7
BRANCH   1  20
ATOM     20  C   LIG    1       -0.014   1.210   0.009  0.00  0.00    +0.510 C 
ATOM     21  O   LIG    1        0.002  -0.004   0.002  0.00  0.00    -0.490 OA
BRANCH  20  22
ATOM     22  O   LIG    1       -1.190   1.867   0.018  0.00  0.00    -0.340 OA
BRANCH  22  24
ATOM     23  C   LIG    1       -2.414   0.170   1.264  0.00  0.00    +0.040 C 
ATOM     24  C   LIG    1       -2.397   1.060   0.019  0.00  0.00    +0.120 C 
ATOM     25  C   LIG    1       -2.425   0.184  -1.235  0.00  0.00    +0.040 C 
ATOM     26  C   LIG    1       -3.622   1.976   0.030  0.00  0.00    +0.080 C 
ENDBRANCH  22  24
ENDBRANCH  20  22
ENDBRANCH   1  20
TORSDOF 5
