REMARK  Name = ZINCkj00000hatxw.0
REMARK                            x       y       z     vdW  Elec       q    Type
REMARK                         _______ _______ _______ _____ _____    ______ ____
ROOT
ATOM      1  C   LIG    1        5.426   1.248   1.799  0.00  0.00    +0.750 C 
ENDROOT
BRANCH   1   5
ATOM      2  C   LIG    1        2.266   1.208  -0.123  0.00  0.00    +0.000 C 
ATOM      3  C   LIG    1        3.204   0.518  -1.149  0.00  0.00    +0.060 C 
ATOM      4  C   LIG    1        4.604   0.741  -0.541  0.00  0.00    +0.270 C 
ATOM      5  N   LIG    1        4.422   0.984   0.898  0.00  0.00    -0.620 NA
ATOM      6  C   LIG    1        2.985   0.897   1.213  0.00  0.00    +0.280 C 
BRANCH   2   7
ATOM      7  C   LIG    1        0.869   0.584  -0.152  0.00  0.00    +0.000 C 
BRANCH   7   9
ATOM      8  C   LIG    1        0.058   2.429  -1.630  0.00  0.00    +0.010 C 
ATOM      9  C   LIG    1        0.192   0.912  -1.485  0.00  0.00    +0.020 C 
ENDBRANCH   7   9
BRANCH   7  10
ATOM     10  C   LIG    1        0.033   1.151   0.997  0.00  0.00    +0.000 C 
ATOM     11  C   LIG    1       -1.318   0.435   1.047  0.00  0.00    +0.020 C 
ENDBRANCH   7  10
ENDBRANCH   2   7
ENDBRANCH   1   5
BRANCH   1  12
ATOM     12  N   LIG    1        5.360   0.763   3.008  0.00  0.00    -0.650 NA
ATOM     13  C   LIG    1        4.192  -0.019   3.421  0.00  0.00    +0.360 C 
ATOM     14  H   LIG    1        6.084   0.921   3.633  0.00  0.00    +0.440 HD
ENDBRANCH   1  12
BRANCH   1  15
ATOM     15  N   LIG    1        6.499   2.022   1.426  0.00  0.00    -0.690 NA
ATOM     16  H   LIG    1        6.548   2.383   0.527  0.00  0.00    +0.440 HD
BRANCH  15  17
ATOM     17  C   LIG    1        7.568   2.303   2.387  0.00  0.00    +0.330 C 
BRANCH  17  18
ATOM     18  C   LIG    1        8.633   3.179   1.724  0.00  0.00    -0.350 C 
BRANCH  18  19
ATOM     19  S   LIG    1        9.957   3.527   2.913  0.00  0.00    +2.430 S 
ATOM     20  O   LIG    1       10.616   2.308   3.226  0.00  0.00    -0.920 OA
ATOM     21  O   LIG    1        9.423   4.318   3.967  0.00  0.00    -0.920 OA
ATOM     22  C   LIG    1       11.082   4.557   1.931  0.00  0.00    -0.250 C 
ENDBRANCH  18  19
ENDBRANCH  17  18
ENDBRANCH  15  17
ENDBRANCH   1  15
TORSDOF 9
