REMARK  Name = ZINCyk0000000i4K.0
REMARK                            x       y       z     vdW  Elec       q    Type
REMARK                         _______ _______ _______ _____ _____    ______ ____
ROOT
ATOM      1  N   LIG    1       -4.112   2.517   2.330  0.00  0.00    -0.670 N 
ATOM      2  H   LIG    1       -4.612   2.355   1.514  0.00  0.00    +0.410 HD
ATOM      3  C   LIG    1       -4.756   2.900   3.450  0.00  0.00    +0.570 C 
ATOM      4  O   LIG    1       -4.122   3.196   4.444  0.00  0.00    -0.510 OA
ENDROOT
BRANCH   3   5
ATOM      5  C   LIG    1       -6.232   2.962   3.470  0.00  0.00    -0.150 A 
ATOM      6  C   LIG    1       -6.961   2.628   2.326  0.00  0.00    +0.090 A 
ATOM      7  C   LIG    1       -8.342   2.680   2.344  0.00  0.00    +0.050 A 
ATOM      8  C   LIG    1       -9.003   3.071   3.487  0.00  0.00    -0.040 A 
ATOM      9  C   LIG    1      -10.464   3.235   3.826  0.00  0.00    +0.340 C 
ATOM     10  N   LIG    1      -10.515   3.685   5.222  0.00  0.00    -0.610 N 
ATOM     11  C   LIG    1       -9.259   3.787   5.689  0.00  0.00    +0.570 C 
ATOM     12  O   LIG    1       -8.963   4.137   6.815  0.00  0.00    -0.500 OA
ATOM     13  C   LIG    1       -8.290   3.414   4.640  0.00  0.00    -0.160 A 
ATOM     14  C   LIG    1       -6.898   3.358   4.628  0.00  0.00    +0.170 A 
BRANCH  10  15
ATOM     15  C   LIG    1      -11.734   3.974   5.981  0.00  0.00    +0.290 C 
ATOM     16  C   LIG    1      -11.782   5.468   6.321  0.00  0.00    +0.060 C 
ATOM     17  C   LIG    1      -11.889   6.262   5.015  0.00  0.00    +0.090 C 
ATOM     18  C   LIG    1      -13.086   5.780   4.239  0.00  0.00    +0.520 C 
ATOM     19  N   LIG    1      -13.524   4.517   4.349  0.00  0.00    -0.670 N 
ATOM     20  H   LIG    1      -14.294   4.244   3.826  0.00  0.00    +0.420 HD
ATOM     21  O   LIG    1      -13.666   6.548   3.502  0.00  0.00    -0.490 OA
ATOM     22  C   LIG    1      -12.939   3.616   5.153  0.00  0.00    +0.520 C 
ATOM     23  O   LIG    1      -13.390   2.493   5.214  0.00  0.00    -0.470 OA
ENDBRANCH  10  15
ENDBRANCH   3   5
BRANCH   1  27
ATOM     24  C   LIG    1        0.201   2.788  -0.015  0.00  0.00    +0.110 C 
ATOM     25  C   LIG    1       -0.606   2.476   1.219  0.00  0.00    -0.020 A 
ATOM     26  C   LIG    1       -1.976   2.644   1.208  0.00  0.00    +0.000 A 
ATOM     27  C   LIG    1       -2.721   2.351   2.343  0.00  0.00    +0.170 A 
ATOM     28  C   LIG    1       -2.087   1.901   3.493  0.00  0.00    +0.020 A 
ATOM     29  C   LIG    1       -0.715   1.738   3.506  0.00  0.00    +0.000 A 
ATOM     30  C   LIG    1        0.029   2.025   2.369  0.00  0.00    +0.040 A 
BRANCH  30  31
ATOM     31  N   LIG    1        1.418   1.860   2.382  0.00  0.00    -0.490 N 
ATOM     32  C   LIG    1        1.779   0.449   2.584  0.00  0.00    +0.210 C 
ATOM     33  C   LIG    1        3.301   0.303   2.533  0.00  0.00    +0.280 C 
ATOM     34  N   LIG    1        3.909   1.136   3.579  0.00  0.00    -0.510 N 
ATOM     35  C   LIG    1        3.560   2.545   3.349  0.00  0.00    +0.280 C 
ATOM     36  H   LIG    1        3.564   0.847   4.482  0.00  0.00    +0.430 HD
ATOM     37  H   LIG    1        4.912   1.030   3.553  0.00  0.00    +0.430 HD
ATOM     38  C   LIG    1        2.040   2.710   3.408  0.00  0.00    +0.220 C 
ENDBRANCH  30  31
ENDBRANCH   1  27
TORSDOF 4
