REMARK  Name = ZINCrH000004t4w7.0
REMARK                            x       y       z     vdW  Elec       q    Type
REMARK                         _______ _______ _______ _____ _____    ______ ____
ROOT
ATOM      1  C   LIG    1       -2.827  -1.809  -2.602  0.00  0.00    +0.320 C 
ATOM      2  C   LIG    1       -3.756  -0.616  -2.937  0.00  0.00    +0.010 C 
ATOM      3  C   LIG    1       -4.896  -0.580  -2.009  0.00  0.00    +0.000 C 
ATOM      4  C   LIG    1       -4.512  -0.361  -0.549  0.00  0.00    +0.020 C 
ATOM      5  C   LIG    1       -4.162  -1.687   0.080  0.00  0.00    +0.020 C 
ATOM      6  C   LIG    1       -2.648  -1.956  -0.048  0.00  0.00    +0.260 C 
ATOM      7  N   LIG    1       -2.125  -1.546  -1.366  0.00  0.00    -0.600 N 
ATOM      8  C   LIG    1       -0.942  -0.903  -1.420  0.00  0.00    +0.510 C 
ATOM      9  O   LIG    1       -0.467  -0.596  -2.493  0.00  0.00    -0.490 OA
ENDROOT
BRANCH   8  10
ATOM     10  C   LIG    1       -0.208  -0.567  -0.147  0.00  0.00    +0.060 C 
ATOM     11  C   LIG    1        0.103  -1.855   0.617  0.00  0.00    +0.100 C 
ATOM     12  C   LIG    1        1.177  -2.628  -0.099  0.00  0.00    +0.530 C 
ATOM     13  N   LIG    1        2.175  -1.990  -0.739  0.00  0.00    -0.660 N 
ATOM     14  H   LIG    1        2.866  -2.504  -1.186  0.00  0.00    +0.420 HD
ATOM     15  C   LIG    1        2.221  -0.593  -0.765  0.00  0.00    +0.210 A 
ATOM     16  C   LIG    1        3.406   0.060  -1.073  0.00  0.00    -0.050 A 
ATOM     17  C   LIG    1        3.445   1.443  -1.096  0.00  0.00    +0.140 A 
ATOM     18  C   LIG    1        2.303   2.173  -0.812  0.00  0.00    -0.040 A 
ATOM     19  C   LIG    1        1.121   1.523  -0.505  0.00  0.00    +0.100 A 
ATOM     20  F   LIG    1        4.597   2.081  -1.396  0.00  0.00    -0.130 F 
ATOM     21  O   LIG    1        1.144  -3.841  -0.099  0.00  0.00    -0.510 OA
ATOM     22  C   LIG    1        1.078   0.143  -0.481  0.00  0.00    -0.110 A 
ENDBRANCH   8  10
BRANCH   1  28
ATOM     23  C   LIG    1       -2.102   0.261  -4.794  0.00  0.00    +0.290 C 
ATOM     24  N   LIG    1       -1.519  -1.078  -4.674  0.00  0.00    -0.410 N 
ATOM     25  C   LIG    1       -0.574  -1.610  -5.501  0.00  0.00    +0.140 A 
ATOM     26  C   LIG    1       -0.296  -2.858  -5.075  0.00  0.00    -0.070 A 
ATOM     27  C   LIG    1       -1.094  -3.105  -3.940  0.00  0.00    -0.080 A 
ATOM     28  C   LIG    1       -1.830  -1.997  -3.716  0.00  0.00    +0.040 A 
ENDBRANCH   1  28
TORSDOF 2
