REMARK  Name = ZINCqH0000006dtl.0
REMARK                            x       y       z     vdW  Elec       q    Type
REMARK                         _______ _______ _______ _____ _____    ______ ____
ROOT
ATOM      1  N   LIG    1       -2.062   0.977   1.338  0.00  0.00    -0.610 N 
ATOM      2  C   LIG    1       -2.224  -0.201   1.976  0.00  0.00    +0.580 C 
ATOM      3  C   LIG    1       -3.550  -0.845   1.976  0.00  0.00    -0.200 A 
ATOM      4  C   LIG    1       -3.855  -1.895   2.836  0.00  0.00    +0.110 A 
ATOM      5  C   LIG    1       -5.110  -2.468   2.792  0.00  0.00    -0.040 A 
ATOM      6  C   LIG    1       -6.064  -2.005   1.900  0.00  0.00    +0.080 A 
ATOM      7  C   LIG    1       -5.775  -0.960   1.042  0.00  0.00    -0.050 A 
ATOM      8  C   LIG    1       -4.522  -0.373   1.075  0.00  0.00    +0.240 A 
ATOM      9  N   LIG    1       -4.183   0.687   0.242  0.00  0.00    -0.730 N 
ATOM     10  H   LIG    1       -4.591   0.779  -0.633  0.00  0.00    +0.420 HD
ATOM     11  O   LIG    1       -1.286  -0.726   2.545  0.00  0.00    -0.530 OA
ATOM     12  C   LIG    1       -3.196   1.665   0.721  0.00  0.00    +0.570 C 
ENDROOT
BRANCH  12  13
ATOM     13  C   LIG    1       -3.839   2.575   1.736  0.00  0.00    -0.130 A 
ATOM     14  C   LIG    1       -3.100   3.057   2.799  0.00  0.00    +0.070 A 
ATOM     15  C   LIG    1       -3.690   3.891   3.731  0.00  0.00    +0.000 A 
ATOM     16  C   LIG    1       -5.020   4.246   3.600  0.00  0.00    +0.070 A 
ATOM     17  C   LIG    1       -5.763   3.767   2.539  0.00  0.00    -0.050 A 
ATOM     18  C   LIG    1       -5.172   2.934   1.600  0.00  0.00    +0.130 A 
BRANCH  18  19
ATOM     19  O   LIG    1       -5.900   2.466   0.551  0.00  0.00    -0.300 OA
BRANCH  19  20
ATOM     20  C   LIG    1       -7.266   2.877   0.475  0.00  0.00    +0.600 C 
ATOM     21  F   LIG    1       -7.945   2.454   1.623  0.00  0.00    -0.160 F 
ATOM     22  F   LIG    1       -7.862   2.308  -0.656  0.00  0.00    -0.130 F 
ATOM     23  F   LIG    1       -7.329   4.271   0.384  0.00  0.00    -0.170 F 
ENDBRANCH  19  20
ENDBRANCH  18  19
ENDBRANCH  12  13
BRANCH   1  24
ATOM     24  C   LIG    1       -0.729   1.579   1.267  0.00  0.00    +0.310 C 
BRANCH  24  25
ATOM     25  C   LIG    1       -0.013   1.086   0.008  0.00  0.00    +0.160 C 
BRANCH  25  27
ATOM     26  C   LIG    1       -0.114   1.152  -2.386  0.00  0.00    +0.200 C 
ATOM     27  O   LIG    1       -0.704   1.559  -1.150  0.00  0.00    -0.390 OA
ENDBRANCH  25  27
ENDBRANCH  24  25
ENDBRANCH   1  24
TORSDOF 6
