REMARK  Name = ZINCpe00000MJMtp.0
REMARK                            x       y       z     vdW  Elec       q    Type
REMARK                         _______ _______ _______ _____ _____    ______ ____
ROOT
ATOM      1  C   LIG    1        2.538   3.766   0.063  0.00  0.00    +0.090 C 
ATOM      2  C   LIG    1        2.241   5.133  -0.608  0.00  0.00    +0.280 C 
ATOM      3  N   LIG    1        1.271   4.829  -1.675  0.00  0.00    -1.010 NA
ATOM      4  C   LIG    1        0.563   3.588  -1.330  0.00  0.00    +0.270 C 
ATOM      5  C   LIG    1        1.145   3.085   0.008  0.00  0.00    +0.010 C 
ENDROOT
BRANCH   1   9
ATOM      6  C   LIG    1        5.210   3.475   4.293  0.00  0.00    +0.360 C 
ATOM      7  N   LIG    1        4.163   3.816   3.327  0.00  0.00    -0.370 N 
ATOM      8  C   LIG    1        4.113   3.418   2.038  0.00  0.00    +0.250 A 
ATOM      9  C   LIG    1        2.995   3.946   1.488  0.00  0.00    -0.230 A 
ATOM     10  C   LIG    1        2.336   4.684   2.476  0.00  0.00    +0.240 A 
ATOM     11  N   LIG    1        3.035   4.607   3.579  0.00  0.00    -0.290 NA
ENDBRANCH   1   9
BRANCH   3  12
ATOM     12  S   LIG    1        1.020   5.736  -3.038  0.00  0.00    +2.700 S 
ATOM     13  O   LIG    1        0.462   4.859  -4.007  0.00  0.00    -0.930 OA
ATOM     14  O   LIG    1        2.216   6.474  -3.254  0.00  0.00    -0.940 OA
BRANCH  12  15
ATOM     15  C   LIG    1       -0.231   6.917  -2.656  0.00  0.00    -0.620 A 
ATOM     16  C   LIG    1        0.068   8.263  -2.649  0.00  0.00    +0.130 A 
ATOM     17  C   LIG    1       -0.912   9.193  -2.349  0.00  0.00    +0.080 A 
ATOM     18  C   LIG    1       -2.199   8.781  -2.055  0.00  0.00    +0.060 A 
ATOM     19  C   LIG    1       -2.514   7.435  -2.058  0.00  0.00    +0.130 A 
ATOM     20  F   LIG    1       -3.772   7.033  -1.769  0.00  0.00    -0.120 F 
ATOM     21  C   LIG    1       -1.529   6.491  -2.366  0.00  0.00    +0.040 A 
BRANCH  21  22
ATOM     22  C   LIG    1       -1.848   5.095  -2.377  0.00  0.00    +0.210 C 
ATOM     23  N   LIG    1       -2.102   3.988  -2.386  0.00  0.00    -0.330 NA
ENDBRANCH  21  22
ENDBRANCH  12  15
ENDBRANCH   3  12
BRANCH   5  24
ATOM     24  C   LIG    1        1.286   1.562  -0.002  0.00  0.00    +0.190 C 
BRANCH  24  25
ATOM     25  O   LIG    1       -0.011   0.963   0.007  0.00  0.00    -0.570 OA
ATOM     26  H   LIG    1        0.002  -0.004   0.002  0.00  0.00    +0.380 HD
ENDBRANCH  24  25
ENDBRANCH   5  24
TORSDOF 6
