REMARK  Name = ZINCrg000000rzkU.0
REMARK                            x       y       z     vdW  Elec       q    Type
REMARK                         _______ _______ _______ _____ _____    ______ ____
ROOT
ATOM      1  C   LIG    1       -1.626   9.008  -1.372  0.00  0.00    +0.040 C 
ATOM      2  C   LIG    1       -1.186   8.694   0.059  0.00  0.00    +0.240 C 
ENDROOT
BRANCH   2   3
ATOM      3  N   LIG    1       -0.237   7.578   0.045  0.00  0.00    -0.710 N 
ATOM      4  H   LIG    1        0.717   7.752   0.037  0.00  0.00    +0.400 HD
ATOM      5  C   LIG    1       -0.690   6.308   0.042  0.00  0.00    +0.600 C 
ATOM      6  O   LIG    1       -1.887   6.089   0.052  0.00  0.00    -0.550 OA
BRANCH   5   7
ATOM      7  C   LIG    1        0.260   5.191   0.027  0.00  0.00    -0.270 A 
ATOM      8  C   LIG    1       -0.058   3.819   0.023  0.00  0.00    +0.110 A 
ATOM      9  C   LIG    1       -1.266   3.113   0.030  0.00  0.00    +0.140 A 
ATOM     10  C   LIG    1       -1.238   1.748   0.018  0.00  0.00    +0.010 A 
ATOM     11  C   LIG    1       -0.013   1.076   0.008  0.00  0.00    +0.330 A 
ATOM     12  N   LIG    1        1.117   1.736   0.001  0.00  0.00    -0.210 NA
ATOM     13  N   LIG    1        1.126   3.136   0.008  0.00  0.00    -0.170 N 
ATOM     14  N   LIG    1        2.163   4.075   0.003  0.00  0.00    -0.250 NA
ATOM     15  C   LIG    1        1.660   5.284   0.015  0.00  0.00    +0.310 A 
ENDBRANCH   5   7
ENDBRANCH   2   3
BRANCH   2  16
ATOM     16  C   LIG    1       -0.515   9.926   0.669  0.00  0.00    +0.170 C 
BRANCH  16  17
ATOM     17  N   LIG    1        0.013   9.589   1.998  0.00  0.00    -0.540 NA
ATOM     18  C   LIG    1       -1.077   9.287   2.937  0.00  0.00    +0.200 C 
ATOM     19  C   LIG    1       -0.484   8.865   4.283  0.00  0.00    +0.200 C 
ATOM     20  N   LIG    1        0.369   9.943   4.800  0.00  0.00    -0.480 N 
ATOM     21  C   LIG    1        1.459  10.245   3.861  0.00  0.00    +0.220 C 
ATOM     22  C   LIG    1        0.867  10.667   2.515  0.00  0.00    +0.180 C 
BRANCH  20  23
ATOM     23  C   LIG    1        0.869   9.624   6.057  0.00  0.00    +0.310 A 
ATOM     24  C   LIG    1       -0.010   9.307   7.088  0.00  0.00    -0.060 A 
ATOM     25  C   LIG    1        0.501   8.991   8.334  0.00  0.00    +0.090 A 
ATOM     26  C   LIG    1        1.879   9.002   8.508  0.00  0.00    -0.070 A 
ATOM     27  C   LIG    1        2.692   9.327   7.441  0.00  0.00    +0.290 A 
ATOM     28  N   LIG    1        2.177   9.619   6.262  0.00  0.00    -0.520 NA
ENDBRANCH  20  23
ENDBRANCH  16  17
ENDBRANCH   2  16
TORSDOF 5
