REMARK  Name = ZINCrD00000lbqxl.0
REMARK                            x       y       z     vdW  Elec       q    Type
REMARK                         _______ _______ _______ _____ _____    ______ ____
ROOT
ATOM      1  C   LIG    1        8.485   3.174  -0.059  0.00  0.00    +0.470 C 
ATOM      2  O   LIG    1        8.375   1.970  -0.064  0.00  0.00    -0.510 OA
ENDROOT
BRANCH   1   3
ATOM      3  C   LIG    1        7.254   4.043  -0.043  0.00  0.00    +0.130 C 
BRANCH   3   4
ATOM      4  C   LIG    1        6.005   3.158  -0.036  0.00  0.00    +0.210 C 
BRANCH   4   5
ATOM      5  O   LIG    1        4.838   3.982  -0.021  0.00  0.00    -0.310 OA
BRANCH   5   9
ATOM      6  C   LIG    1        1.186   2.059   0.002  0.00  0.00    +0.100 A 
ATOM      7  C   LIG    1        2.359   1.319  -0.008  0.00  0.00    -0.040 A 
ATOM      8  C   LIG    1        3.581   1.963  -0.021  0.00  0.00    -0.040 A 
ATOM      9  C   LIG    1        3.635   3.349  -0.014  0.00  0.00    +0.090 A 
ATOM     10  C   LIG    1        2.462   4.088   0.001  0.00  0.00    +0.030 A 
ATOM     11  C   LIG    1        1.240   3.445   0.009  0.00  0.00    +0.030 A 
BRANCH   6  12
ATOM     12  O   LIG    1       -0.017   1.425   0.010  0.00  0.00    -0.320 OA
BRANCH  12  14
ATOM     13  C   LIG    1       -1.433  -0.534   0.013  0.00  0.00    +0.070 C 
ATOM     14  C   LIG    1        0.002  -0.004   0.002  0.00  0.00    +0.170 C 
ENDBRANCH  12  14
ENDBRANCH   6  12
ENDBRANCH   5   9
ENDBRANCH   4   5
ENDBRANCH   3   4
ENDBRANCH   1   3
BRANCH   1  15
ATOM     15  O   LIG    1        9.704   3.736  -0.066  0.00  0.00    -0.330 OA
BRANCH  15  16
ATOM     16  C   LIG    1       10.844   2.838  -0.082  0.00  0.00    +0.270 C 
BRANCH  16  17
ATOM     17  C   LIG    1       12.118   3.643  -0.088  0.00  0.00    +0.520 C 
ATOM     18  N   LIG    1       13.311   3.017  -0.103  0.00  0.00    -0.720 N 
ATOM     19  H   LIG    1       13.350   2.048  -0.109  0.00  0.00    +0.410 HD
ATOM     20  O   LIG    1       12.069   4.855  -0.081  0.00  0.00    -0.510 OA
BRANCH  18  21
ATOM     21  C   LIG    1       14.550   3.800  -0.110  0.00  0.00    +0.320 C 
BRANCH  21  22
ATOM     22  C   LIG    1       15.733   2.868  -0.126  0.00  0.00    -0.110 A 
ATOM     23  C   LIG    1       16.290   2.438   1.065  0.00  0.00    +0.050 A 
ATOM     24  C   LIG    1       17.373   1.579   1.050  0.00  0.00    +0.030 A 
ATOM     25  C   LIG    1       17.906   1.158  -0.155  0.00  0.00    -0.030 A 
ATOM     26  C   LIG    1       17.352   1.593  -1.345  0.00  0.00    +0.030 A 
ATOM     27 CL   LIG    1       19.271   0.085  -0.173  0.00  0.00    -0.060 Cl
ATOM     28  C   LIG    1       16.265   2.447  -1.330  0.00  0.00    +0.050 A 
ENDBRANCH  21  22
ENDBRANCH  18  21
ENDBRANCH  16  17
ENDBRANCH  15  16
ENDBRANCH   1  15
TORSDOF 11
