REMARK  Name = ZINCqH0000037MiO.0
REMARK                            x       y       z     vdW  Elec       q    Type
REMARK                         _______ _______ _______ _____ _____    ______ ____
ROOT
ATOM      1  C   LIG    1        0.023  -0.031   0.162  0.00  0.00    +0.150 A 
ATOM      2  C   LIG    1        0.052   1.204  -0.473  0.00  0.00    +0.050 A 
ATOM      3  C   LIG    1        1.227   1.921  -0.538  0.00  0.00    +0.070 A 
ATOM      4  C   LIG    1        2.391   1.405   0.037  0.00  0.00    -0.100 A 
ATOM      5  C   LIG    1        2.360   0.163   0.675  0.00  0.00    +0.080 A 
ATOM      6  C   LIG    1        1.181  -0.550   0.737  0.00  0.00    +0.110 A 
ATOM      7  F   LIG    1        1.149  -1.751   1.354  0.00  0.00    -0.110 F 
ENDROOT
BRANCH   4   8
ATOM      8  C   LIG    1        3.652   2.171  -0.031  0.00  0.00    +0.560 C 
ATOM      9  N   LIG    1        3.636   3.509   0.125  0.00  0.00    -0.540 N 
ATOM     10  C   LIG    1        2.364   4.167   0.412  0.00  0.00    +0.300 C 
ATOM     11  C   LIG    1        2.143   5.287  -0.615  0.00  0.00    +0.110 C 
ATOM     12  S   LIG    1        3.420   6.552  -0.344  0.00  0.00    -0.080 S 
ATOM     13  C   LIG    1        4.888   5.588  -0.212  0.00  0.00    -0.080 A 
ATOM     14  C   LIG    1        6.132   6.204  -0.327  0.00  0.00    +0.020 A 
ATOM     15  C   LIG    1        7.276   5.432  -0.201  0.00  0.00    +0.260 A 
ATOM     16  N   LIG    1        7.192   4.132   0.010  0.00  0.00    -0.470 NA
ATOM     17  C   LIG    1        6.034   3.511   0.117  0.00  0.00    +0.300 A 
ATOM     18  C   LIG    1        4.837   4.211   0.011  0.00  0.00    +0.090 A 
ATOM     19  O   LIG    1        4.704   1.594  -0.228  0.00  0.00    -0.490 OA
ENDBRANCH   4   8
BRANCH   1  26
ATOM     20  C   LIG    1       -2.684   1.149   1.016  0.00  0.00    +0.140 C 
ATOM     21  C   LIG    1       -2.384  -0.268   0.598  0.00  0.00    +0.090 A 
ATOM     22  C   LIG    1       -3.275  -1.284   0.522  0.00  0.00    -0.090 A 
ATOM     23  C   LIG    1       -2.589  -2.429   0.101  0.00  0.00    +0.090 A 
ATOM     24  N   LIG    1       -1.331  -2.114  -0.076  0.00  0.00    -0.280 NA
ATOM     25  C   LIG    1       -3.196  -3.792  -0.112  0.00  0.00    +0.160 C 
ATOM     26  N   LIG    1       -1.172  -0.755   0.226  0.00  0.00    -0.340 N 
ENDBRANCH   1  26
TORSDOF 2
