REMARK  Name = ZINCpe000000Tfy0.0
REMARK                            x       y       z     vdW  Elec       q    Type
REMARK                         _______ _______ _______ _____ _____    ______ ____
ROOT
ATOM      1  N   LIG    1        1.309   1.760  -0.001  0.00  0.00    -0.350 N 
ATOM      2  N   LIG    1       -0.016   1.304   0.009  0.00  0.00    -0.280 NA
ATOM      3  C   LIG    1        0.002  -0.004   0.002  0.00  0.00    +0.170 A 
ATOM      4  C   LIG    1        1.337  -0.423  -0.013  0.00  0.00    -0.820 A 
ATOM      5  C   LIG    1       -1.206  -0.904   0.009  0.00  0.00    +0.160 C 
ATOM      6  C   LIG    1        2.119   0.681  -0.015  0.00  0.00    +0.230 A 
ATOM      7  C   LIG    1        3.626   0.702  -0.030  0.00  0.00    +0.160 C 
ENDROOT
BRANCH   4   8
ATOM      8  S   LIG    1        1.899  -2.093  -0.027  0.00  0.00    +2.720 S 
ATOM      9  O   LIG    1        0.848  -2.875   0.523  0.00  0.00    -0.950 OA
ATOM     10  O   LIG    1        3.216  -2.077   0.506  0.00  0.00    -0.960 OA
BRANCH   8  11
ATOM     11  N   LIG    1        2.041  -2.549  -1.612  0.00  0.00    -1.000 NA
ATOM     12  C   LIG    1        0.912  -3.166  -2.327  0.00  0.00    +0.280 C 
ATOM     13  C   LIG    1        0.712  -2.411  -3.650  0.00  0.00    +0.220 C 
ATOM     14  O   LIG    1        1.956  -2.359  -4.353  0.00  0.00    -0.370 OA
ATOM     15  C   LIG    1        2.987  -1.644  -3.668  0.00  0.00    +0.210 C 
ATOM     16  C   LIG    1        3.301  -2.355  -2.347  0.00  0.00    +0.280 C 
ENDBRANCH   8  11
ENDBRANCH   4   8
BRANCH   1  17
ATOM     17  C   LIG    1        1.739   3.160   0.002  0.00  0.00    +0.360 C 
BRANCH  17  20
ATOM     18  N   LIG    1        2.291   4.898   1.674  0.00  0.00    -0.720 N 
ATOM     19  H   LIG    1        2.469   5.505   0.938  0.00  0.00    +0.400 HD
ATOM     20  C   LIG    1        1.900   3.633   1.424  0.00  0.00    +0.490 C 
ATOM     21  O   LIG    1        1.678   2.874   2.344  0.00  0.00    -0.510 OA
BRANCH  18  22
ATOM     22  C   LIG    1        2.448   5.358   3.056  0.00  0.00    +0.230 C 
BRANCH  22  24
ATOM     23  C   LIG    1        3.969   3.459   3.626  0.00  0.00    +0.010 C 
ATOM     24  C   LIG    1        3.842   4.983   3.563  0.00  0.00    -0.010 C 
ENDBRANCH  22  24
BRANCH  22  25
ATOM     25  C   LIG    1        2.277   6.877   3.111  0.00  0.00    +0.020 C 
ATOM     26  C   LIG    1        0.843   7.243   2.723  0.00  0.00    +0.020 C 
ENDBRANCH  22  25
ENDBRANCH  18  22
ENDBRANCH  17  20
ENDBRANCH   1  17
TORSDOF 7
