REMARK  Name = ZINCqH0000039499.0
REMARK                            x       y       z     vdW  Elec       q    Type
REMARK                         _______ _______ _______ _____ _____    ______ ____
ROOT
ATOM      1  N   LIG    1        5.213   3.605  -0.018  0.00  0.00    -0.660 N 
ATOM      2  H   LIG    1        5.375   4.529  -0.263  0.00  0.00    +0.410 HD
ATOM      3  C   LIG    1        6.244   2.807   0.325  0.00  0.00    +0.550 C 
ATOM      4  O   LIG    1        6.040   1.649   0.633  0.00  0.00    -0.410 OA
ENDROOT
BRANCH   3   5
ATOM      5  C   LIG    1        7.619   3.340   0.326  0.00  0.00    -0.080 A 
ATOM      6  C   LIG    1        7.859   4.660  -0.024  0.00  0.00    +0.040 A 
ATOM      7  C   LIG    1        9.153   5.171  -0.025  0.00  0.00    +0.100 A 
ATOM      8  C   LIG    1       10.218   4.388   0.317  0.00  0.00    +0.050 A 
ATOM      9  C   LIG    1       10.018   3.046   0.679  0.00  0.00    -0.090 A 
ATOM     10  C   LIG    1       11.098   2.218   1.037  0.00  0.00    +0.090 A 
ATOM     11  C   LIG    1       10.830   0.925   1.391  0.00  0.00    -0.010 A 
ATOM     12  C   LIG    1        9.518   0.460   1.377  0.00  0.00    +0.310 A 
ATOM     13  N   LIG    1        8.515   1.235   1.038  0.00  0.00    -0.440 NA
ATOM     14  F   LIG    1        9.359   6.460  -0.371  0.00  0.00    -0.130 F 
ATOM     15  C   LIG    1        8.708   2.508   0.691  0.00  0.00    +0.160 A 
ENDBRANCH   3   5
BRANCH   1  25
ATOM     16  C   LIG    1        2.845   3.937  -0.377  0.00  0.00    -0.130 A 
ATOM     17  C   LIG    1        1.555   3.402  -0.363  0.00  0.00    +0.150 A 
ATOM     18  C   LIG    1        1.383   2.071   0.000  0.00  0.00    -0.160 A 
ATOM     19  C   LIG    1        2.485   1.312   0.333  0.00  0.00    +0.210 A 
ATOM     20  N   LIG    1        3.700   1.846   0.315  0.00  0.00    -0.480 NA
ATOM     21  C   LIG    1        2.372  -0.139   0.728  0.00  0.00    +0.110 C 
ATOM     22  C   LIG    1        0.937  -0.479   1.121  0.00  0.00    +0.030 C 
ATOM     23  C   LIG    1        0.002  -0.004   0.002  0.00  0.00    +0.020 C 
ATOM     24  C   LIG    1       -0.019   1.523   0.010  0.00  0.00    +0.090 C 
ATOM     25  C   LIG    1        3.919   3.104  -0.019  0.00  0.00    +0.420 A 
BRANCH  16  27
ATOM     26  N   LIG    1        3.246   6.386  -1.038  0.00  0.00    -0.400 NA
ATOM     27  C   LIG    1        3.069   5.302  -0.746  0.00  0.00    +0.250 C 
ENDBRANCH  16  27
ENDBRANCH   1  25
TORSDOF 3
