REMARK  Name = ZINCvU000000068b.0
REMARK                            x       y       z     vdW  Elec       q    Type
REMARK                         _______ _______ _______ _____ _____    ______ ____
ROOT
ATOM      1  O   LIG    1        6.973  -0.410   0.617  0.00  0.00    -0.510 OA
ATOM      2  C   LIG    1        5.969  -0.859   0.098  0.00  0.00    +0.560 C 
ATOM      3  N   LIG    1        6.026  -2.018  -0.588  0.00  0.00    -0.670 N 
ATOM      4  H   LIG    1        5.241  -2.342  -1.058  0.00  0.00    +0.410 HD
ENDROOT
BRANCH   3   5
ATOM      5  C   LIG    1        7.216  -2.754  -0.622  0.00  0.00    +0.130 A 
ATOM      6  C   LIG    1        7.170  -4.146  -0.637  0.00  0.00    +0.010 A 
ATOM      7  C   LIG    1        8.334  -4.882  -0.672  0.00  0.00    +0.040 A 
ATOM      8  C   LIG    1        9.562  -4.235  -0.695  0.00  0.00    +0.030 A 
ATOM      9  C   LIG    1        9.618  -2.832  -0.678  0.00  0.00    +0.070 A 
ATOM     10  N   LIG    1       10.931  -2.488  -0.702  0.00  0.00    -0.490 NA
ATOM     11  C   LIG    1       11.669  -3.562  -0.736  0.00  0.00    +0.290 A 
ATOM     12  C   LIG    1       13.179  -3.581  -0.761  0.00  0.00    +0.150 C 
ATOM     13  C   LIG    1       13.655  -4.557  -1.839  0.00  0.00    +0.030 C 
ATOM     14  C   LIG    1       13.781  -5.955  -1.244  0.00  0.00    +0.010 C 
ATOM     15  C   LIG    1       12.716  -6.176  -0.172  0.00  0.00    +0.030 C 
ATOM     16  C   LIG    1       11.325  -6.060  -0.798  0.00  0.00    +0.280 C 
ATOM     17  N   LIG    1       10.873  -4.667  -0.741  0.00  0.00    -0.490 N 
ATOM     18  C   LIG    1        8.431  -2.095  -0.648  0.00  0.00    +0.090 A 
ENDBRANCH   3   5
BRANCH   2  19
ATOM     19  C   LIG    1        4.689  -0.135   0.220  0.00  0.00    -0.150 A 
ATOM     20  C   LIG    1        4.629   1.067   0.930  0.00  0.00    +0.110 A 
ATOM     21  C   LIG    1        3.434   1.740   1.042  0.00  0.00    +0.020 A 
ATOM     22  C   LIG    1        2.285   1.224   0.449  0.00  0.00    +0.170 A 
ATOM     23  C   LIG    1        2.341   0.025  -0.255  0.00  0.00    -0.010 A 
ATOM     24  C   LIG    1        3.534  -0.650  -0.376  0.00  0.00    +0.070 A 
BRANCH  22  25
ATOM     25  N   LIG    1        1.076   1.907   0.565  0.00  0.00    -0.670 N 
ATOM     26  H   LIG    1        0.245   1.412   0.640  0.00  0.00    +0.410 HD
ATOM     27  C   LIG    1        1.062   3.255   0.573  0.00  0.00    +0.600 C 
ATOM     28  O   LIG    1        2.109   3.874   0.563  0.00  0.00    -0.500 OA
BRANCH  27  29
ATOM     29  C   LIG    1       -0.215   3.973   0.588  0.00  0.00    -0.280 A 
ATOM     30  C   LIG    1       -0.360   5.332   0.597  0.00  0.00    +0.120 A 
ATOM     31  C   LIG    1       -1.673   5.739   0.610  0.00  0.00    +0.000 A 
ATOM     32  C   LIG    1       -2.574   4.749   0.612  0.00  0.00    -0.050 A 
ATOM     33  S   LIG    1       -1.807   3.226   0.589  0.00  0.00    +0.200 S 
ENDBRANCH  27  29
ENDBRANCH  22  25
ENDBRANCH   2  19
TORSDOF 4
