REMARK  Name = ZINCrg000000rFmk.0
REMARK                            x       y       z     vdW  Elec       q    Type
REMARK                         _______ _______ _______ _____ _____    ______ ____
ROOT
ATOM      1  C   LIG    1        2.272   5.433   0.668  0.00  0.00    +0.520 C 
ATOM      2  N   LIG    1        3.251   6.357   0.721  0.00  0.00    -0.610 N 
ATOM      3  C   LIG    1        4.531   6.131   0.037  0.00  0.00    +0.270 C 
ATOM      4  C   LIG    1        4.818   7.325  -0.880  0.00  0.00    +0.010 C 
ATOM      5  C   LIG    1        4.762   8.617  -0.062  0.00  0.00    +0.020 C 
ATOM      6  C   LIG    1        3.361   8.788   0.529  0.00  0.00    -0.020 C 
ATOM      7  C   LIG    1        3.055   7.613   1.458  0.00  0.00    +0.300 C 
ATOM      8  O   LIG    1        1.188   5.668   1.159  0.00  0.00    -0.530 OA
ENDROOT
BRANCH   1  10
ATOM      9  C   LIG    1        2.243   4.228  -1.499  0.00  0.00    +0.070 C 
ATOM     10  C   LIG    1        2.523   4.106   0.000  0.00  0.00    +0.260 C 
BRANCH  10  11
ATOM     11  N   LIG    1        1.641   3.091   0.581  0.00  0.00    -0.700 N 
ATOM     12  H   LIG    1        0.804   3.355   0.995  0.00  0.00    +0.420 HD
ATOM     13  C   LIG    1        1.991   1.790   0.540  0.00  0.00    +0.650 C 
ATOM     14  O   LIG    1        3.039   1.459   0.022  0.00  0.00    -0.570 OA
BRANCH  13  15
ATOM     15  O   LIG    1        1.180   0.858   1.074  0.00  0.00    -0.360 OA
BRANCH  15  16
ATOM     16  C   LIG    1        1.621  -0.523   0.994  0.00  0.00    +0.290 C 
BRANCH  16  17
ATOM     17  C   LIG    1        0.593  -1.417   1.639  0.00  0.00    -0.100 A 
ATOM     18  C   LIG    1        0.683  -1.714   2.986  0.00  0.00    +0.040 A 
ATOM     19  C   LIG    1       -0.263  -2.530   3.578  0.00  0.00    +0.010 A 
ATOM     20  C   LIG    1       -1.292  -3.058   2.821  0.00  0.00    +0.020 A 
ATOM     21  C   LIG    1       -1.379  -2.765   1.473  0.00  0.00    +0.010 A 
ATOM     22  C   LIG    1       -0.436  -1.945   0.882  0.00  0.00    +0.040 A 
ENDBRANCH  16  17
ENDBRANCH  15  16
ENDBRANCH  13  15
ENDBRANCH  10  11
ENDBRANCH   1  10
BRANCH   6  23
ATOM     23  C   LIG    1        3.296  10.096   1.320  0.00  0.00    +0.280 C 
BRANCH  23  24
ATOM     24  N   LIG    1        3.471  11.228   0.406  0.00  0.00    -1.120 NA
ATOM     25  H   LIG    1        3.815  11.080  -0.488  0.00  0.00    +0.420 HD
BRANCH  24  26
ATOM     26  S   LIG    1        3.083  12.759   0.901  0.00  0.00    +2.610 S 
ATOM     27  O   LIG    1        1.764  12.637   1.417  0.00  0.00    -0.950 OA
ATOM     28  O   LIG    1        3.354  13.573  -0.232  0.00  0.00    -0.960 OA
ATOM     29  C   LIG    1        4.258  13.116   2.237  0.00  0.00    -0.280 C 
ENDBRANCH  24  26
ENDBRANCH  23  24
ENDBRANCH   6  23
TORSDOF 8
