REMARK  Name = ZINCvU00000006Sr.0
REMARK                            x       y       z     vdW  Elec       q    Type
REMARK                         _______ _______ _______ _____ _____    ______ ____
ROOT
ATOM      1  C   LIG    1        3.579   1.822  -0.120  0.00  0.00    -0.220 A 
ATOM      2  C   LIG    1        2.352   1.223  -0.007  0.00  0.00    +0.030 A 
ATOM      3  S   LIG    1        2.517  -0.467   0.110  0.00  0.00    +0.290 S 
ATOM      4  C   LIG    1        4.268  -0.390  -0.004  0.00  0.00    -0.240 A 
ATOM      5  C   LIG    1        5.193  -1.591   0.029  0.00  0.00    +0.120 C 
ATOM      6  C   LIG    1        6.567  -1.169  -0.498  0.00  0.00    +0.020 C 
ATOM      7  C   LIG    1        7.012   0.103   0.232  0.00  0.00    +0.020 C 
ATOM      8  C   LIG    1        6.144   1.276  -0.230  0.00  0.00    +0.090 C 
ATOM      9  C   LIG    1        4.681   0.877  -0.117  0.00  0.00    -0.050 A 
ENDROOT
BRANCH   2  10
ATOM     10  N   LIG    1        1.144   1.900   0.015  0.00  0.00    -0.630 N 
ATOM     11  H   LIG    1        1.132   2.870   0.032  0.00  0.00    +0.420 HD
ATOM     12  C   LIG    1       -0.015   1.211   0.014  0.00  0.00    +0.510 C 
ATOM     13  O   LIG    1        0.001  -0.001  -0.006  0.00  0.00    -0.470 OA
BRANCH  12  14
ATOM     14  C   LIG    1       -1.329   1.948   0.033  0.00  0.00    +0.280 C 
BRANCH  14  15
ATOM     15  O   LIG    1       -2.421   0.991   0.021  0.00  0.00    -0.330 OA
BRANCH  15  16
ATOM     16  C   LIG    1       -3.674   1.490   0.035  0.00  0.00    +0.550 C 
ATOM     17  O   LIG    1       -3.848   2.694   0.057  0.00  0.00    -0.490 OA
BRANCH  16  18
ATOM     18  C   LIG    1       -4.823   0.584   0.025  0.00  0.00    -0.280 A 
ATOM     19  C   LIG    1       -6.136   0.967   0.037  0.00  0.00    -0.000 A 
ATOM     20  C   LIG    1       -7.011  -0.092   0.023  0.00  0.00    -0.010 A 
ATOM     21  C   LIG    1       -6.439  -1.302  -0.000  0.00  0.00    -0.050 A 
ATOM     22  C   LIG    1       -6.578   2.407   0.063  0.00  0.00    +0.130 C 
ATOM     23  S   LIG    1       -4.737  -1.172  -0.013  0.00  0.00    +0.260 S 
ENDBRANCH  16  18
ENDBRANCH  15  16
ENDBRANCH  14  15
ENDBRANCH  12  14
ENDBRANCH   2  10
BRANCH   1  24
ATOM     24  C   LIG    1        3.760   3.271  -0.234  0.00  0.00    +0.470 C 
ATOM     25  O   LIG    1        3.690   3.810  -1.323  0.00  0.00    -0.440 OA
BRANCH  24  30
ATOM     26  C   LIG    1        4.802   6.417   4.472  0.00  0.00    +0.100 C 
ATOM     27  C   LIG    1        4.529   5.593   3.240  0.00  0.00    -0.050 A 
ATOM     28  C   LIG    1        4.347   6.219   2.019  0.00  0.00    +0.000 A 
ATOM     29  C   LIG    1        4.098   5.471   0.887  0.00  0.00    +0.070 A 
ATOM     30  C   LIG    1        4.028   4.079   0.976  0.00  0.00    -0.180 A 
ATOM     31  C   LIG    1        4.207   3.455   2.211  0.00  0.00    +0.070 A 
ATOM     32  C   LIG    1        4.462   4.214   3.334  0.00  0.00    -0.010 A 
ENDBRANCH  24  30
ENDBRANCH   1  24
TORSDOF 7
