REMARK  Name = ZINCvU0000000AZo.0
REMARK                            x       y       z     vdW  Elec       q    Type
REMARK                         _______ _______ _______ _____ _____    ______ ____
ROOT
ATOM      1  C   LIG    1        6.188  -1.627   5.047  0.00  0.00    +0.000 A 
ATOM      2  C   LIG    1        7.326  -1.800   5.768  0.00  0.00    -0.090 A 
ATOM      3  C   LIG    1        7.711  -0.472   6.242  0.00  0.00    -0.130 A 
ATOM      4  C   LIG    1        8.766   0.018   7.016  0.00  0.00    +0.070 A 
ATOM      5  C   LIG    1        8.839   1.354   7.294  0.00  0.00    +0.000 A 
ATOM      6  C   LIG    1        7.873   2.226   6.812  0.00  0.00    +0.060 A 
ATOM      7  C   LIG    1        6.825   1.763   6.046  0.00  0.00    +0.030 A 
ATOM      8  C   LIG    1        6.729   0.409   5.751  0.00  0.00    +0.060 A 
ATOM      9  O   LIG    1        5.843  -0.322   5.046  0.00  0.00    -0.170 OA
ENDROOT
BRANCH   1  11
ATOM     10  O   LIG    1        5.751  -3.862   4.555  0.00  0.00    -0.510 OA
ATOM     11  C   LIG    1        5.441  -2.699   4.375  0.00  0.00    +0.600 C 
ATOM     12  N   LIG    1        4.412  -2.395   3.559  0.00  0.00    -0.600 N 
ATOM     13  C   LIG    1        3.694  -3.448   2.825  0.00  0.00    +0.300 C 
ATOM     14  C   LIG    1        3.633  -3.053   1.345  0.00  0.00    +0.170 C 
ATOM     15  N   LIG    1        3.057  -1.708   1.224  0.00  0.00    -0.530 NA
ATOM     16  C   LIG    1        3.905  -0.703   1.878  0.00  0.00    +0.180 C 
ATOM     17  C   LIG    1        3.978  -1.001   3.380  0.00  0.00    +0.300 C 
BRANCH  15  18
ATOM     18  C   LIG    1        2.821  -1.361  -0.184  0.00  0.00    +0.280 C 
BRANCH  18  19
ATOM     19  C   LIG    1        2.012  -0.092  -0.261  0.00  0.00    -0.170 A 
ATOM     20  C   LIG    1        2.518   1.141  -0.309  0.00  0.00    +0.000 A 
ATOM     21  C   LIG    1        1.578   2.155  -0.375  0.00  0.00    +0.000 A 
ATOM     22  C   LIG    1        0.309   1.746  -0.381  0.00  0.00    -0.050 A 
ATOM     23  S   LIG    1        0.256  -0.011  -0.299  0.00  0.00    +0.120 S 
ENDBRANCH  18  19
ENDBRANCH  15  18
ENDBRANCH   1  11
BRANCH   2  24
ATOM     24  C   LIG    1        8.047  -3.099   6.024  0.00  0.00    +0.290 C 
BRANCH  24  25
ATOM     25  O   LIG    1        9.009  -3.321   4.992  0.00  0.00    -0.310 OA
BRANCH  25  26
ATOM     26  C   LIG    1        9.751  -4.457   5.074  0.00  0.00    +0.130 A 
ATOM     27  C   LIG    1        9.560  -5.336   6.130  0.00  0.00    -0.080 A 
ATOM     28  C   LIG    1       10.312  -6.493   6.208  0.00  0.00    +0.040 A 
ATOM     29  C   LIG    1       11.261  -6.769   5.241  0.00  0.00    -0.040 A 
ATOM     30  C   LIG    1       11.456  -5.891   4.191  0.00  0.00    +0.050 A 
ATOM     31  C   LIG    1       10.704  -4.736   4.105  0.00  0.00    -0.020 A 
ENDBRANCH  25  26
ENDBRANCH  24  25
ENDBRANCH   2  24
TORSDOF 6
