REMARK  Name = ZINCvU00000008el.0
REMARK                            x       y       z     vdW  Elec       q    Type
REMARK                         _______ _______ _______ _____ _____    ______ ____
ROOT
ATOM      1  C   LIG    1       -0.840   1.363   0.096  0.00  0.00    +0.180 A 
ATOM      2  C   LIG    1        0.240   0.543  -0.203  0.00  0.00    -0.020 A 
ATOM      3  C   LIG    1        1.521   1.062  -0.216  0.00  0.00    +0.070 A 
ATOM      4  C   LIG    1        1.731   2.396   0.073  0.00  0.00    -0.090 A 
ATOM      5  C   LIG    1        0.656   3.220   0.378  0.00  0.00    +0.150 A 
ATOM      6  C   LIG    1       -0.630   2.703   0.393  0.00  0.00    -0.050 A 
ENDROOT
BRANCH   1   9
ATOM      7  O   LIG    1       -1.419  -1.111   0.881  0.00  0.00    -0.500 OA
ATOM      8  C   LIG    1       -2.345  -0.438   0.481  0.00  0.00    +0.550 C 
ATOM      9  N   LIG    1       -2.137   0.839   0.103  0.00  0.00    -0.670 N 
ATOM     10  H   LIG    1       -2.886   1.395  -0.163  0.00  0.00    +0.410 HD
BRANCH   8  11
ATOM     11  C   LIG    1       -3.729  -1.030   0.406  0.00  0.00    -0.070 C 
ATOM     12  C   LIG    1       -4.731  -0.379   1.374  0.00  0.00    +0.060 C 
ATOM     13  C   LIG    1       -4.282  -1.425   2.412  0.00  0.00    +0.020 C 
ATOM     14  C   LIG    1       -3.893  -2.321   1.225  0.00  0.00    +0.070 C 
BRANCH  11  15
ATOM     15  C   LIG    1       -4.242  -1.142  -1.007  0.00  0.00    -0.040 A 
ATOM     16  C   LIG    1       -4.487  -0.000  -1.746  0.00  0.00    -0.010 A 
ATOM     17  C   LIG    1       -4.957  -0.102  -3.043  0.00  0.00    +0.060 A 
ATOM     18  C   LIG    1       -5.181  -1.346  -3.601  0.00  0.00    -0.010 A 
ATOM     19  C   LIG    1       -4.936  -2.491  -2.862  0.00  0.00    +0.110 A 
ATOM     20  F   LIG    1       -5.155  -3.707  -3.407  0.00  0.00    -0.140 F 
ATOM     21  C   LIG    1       -4.460  -2.388  -1.565  0.00  0.00    +0.000 A 
ENDBRANCH  11  15
ENDBRANCH   8  11
ENDBRANCH   1   9
BRANCH   5  22
ATOM     22  O   LIG    1        0.864   4.532   0.662  0.00  0.00    -0.310 OA
BRANCH  22  23
ATOM     23  C   LIG    1        2.215   4.997   0.627  0.00  0.00    +0.330 C 
BRANCH  23  24
ATOM     24  C   LIG    1        2.250   6.465   0.966  0.00  0.00    +0.050 A 
ATOM     25  C   LIG    1        1.177   7.233   1.257  0.00  0.00    +0.120 A 
ATOM     26  N   LIG    1        1.639   8.497   1.503  0.00  0.00    -0.360 N 
ATOM     27  C   LIG    1        1.010   9.661   1.841  0.00  0.00    +0.220 A 
ATOM     28  C   LIG    1        1.717  10.794   2.030  0.00  0.00    +0.010 A 
ATOM     29  C   LIG    1        3.114  10.791   1.882  0.00  0.00    +0.050 A 
ATOM     30  C   LIG    1        3.753   9.638   1.546  0.00  0.00    +0.070 A 
ATOM     31  C   LIG    1        3.001   8.463   1.352  0.00  0.00    +0.230 A 
ATOM     32  N   LIG    1        3.347   7.224   1.033  0.00  0.00    -0.480 NA
ENDBRANCH  23  24
ENDBRANCH  22  23
ENDBRANCH   5  22
TORSDOF 6
