REMARK  Name = ZINCvU0000000Cz9.0
REMARK                            x       y       z     vdW  Elec       q    Type
REMARK                         _______ _______ _______ _____ _____    ______ ____
ROOT
ATOM      1  C   LIG    1        5.480   1.262  -0.069  0.00  0.00    +0.160 A 
ATOM      2  N   LIG    1        5.236  -0.028  -0.021  0.00  0.00    -0.280 NA
ATOM      3  N   LIG    1        3.970  -0.240  -0.074  0.00  0.00    -0.250 NA
ATOM      4  C   LIG    1        3.327   0.901  -0.159  0.00  0.00    +0.230 A 
ATOM      5  N   LIG    1        4.275   1.899  -0.164  0.00  0.00    -0.450 N 
ENDROOT
BRANCH   4   6
ATOM      6  C   LIG    1        1.862   1.081  -0.239  0.00  0.00    -0.060 A 
ATOM      7  C   LIG    1        1.323   2.346  -0.473  0.00  0.00    +0.040 A 
ATOM      8  C   LIG    1       -0.045   2.507  -0.548  0.00  0.00    +0.010 A 
ATOM      9  C   LIG    1       -0.884   1.418  -0.391  0.00  0.00    +0.070 A 
ATOM     10  C   LIG    1       -0.358   0.159  -0.164  0.00  0.00    +0.000 A 
ATOM     11  C   LIG    1        1.010  -0.016  -0.082  0.00  0.00    +0.150 A 
ATOM     12  F   LIG    1        1.523  -1.246   0.145  0.00  0.00    -0.110 F 
ENDBRANCH   4   6
BRANCH   1  13
ATOM     13  S   LIG    1        7.066   2.029  -0.026  0.00  0.00    +0.040 S 
BRANCH  13  15
ATOM     14  C   LIG    1        7.988  -0.267  -1.185  0.00  0.00    +0.100 C 
ATOM     15  C   LIG    1        8.120   0.562   0.094  0.00  0.00    +0.170 C 
BRANCH  15  16
ATOM     16  C   LIG    1        9.555   0.988   0.270  0.00  0.00    +0.190 A 
ATOM     17  N   LIG    1       10.417   0.494   1.126  0.00  0.00    -0.450 NA
ATOM     18  C   LIG    1       11.559   1.174   0.922  0.00  0.00    +0.190 A 
ATOM     19  N   LIG    1       11.336   2.036  -0.024  0.00  0.00    -0.370 NA
ATOM     20  O   LIG    1       10.190   1.946  -0.412  0.00  0.00    +0.090 OA
BRANCH  18  21
ATOM     21  C   LIG    1       12.859   0.976   1.660  0.00  0.00    +0.020 C 
ATOM     22  C   LIG    1       13.351  -0.457   1.450  0.00  0.00    +0.060 C 
ATOM     23  C   LIG    1       12.640   1.227   3.154  0.00  0.00    +0.060 C 
ATOM     24  C   LIG    1       13.903   1.958   1.125  0.00  0.00    +0.050 C 
ENDBRANCH  18  21
ENDBRANCH  15  16
ENDBRANCH  13  15
ENDBRANCH   1  13
BRANCH   5  25
ATOM     25  C   LIG    1        4.040   3.342  -0.251  0.00  0.00    +0.370 C 
BRANCH  25  26
ATOM     26  C   LIG    1        3.952   3.750  -1.699  0.00  0.00    -0.130 A 
ATOM     27  C   LIG    1        5.040   3.577  -2.534  0.00  0.00    +0.030 A 
ATOM     28  C   LIG    1        4.957   3.947  -3.863  0.00  0.00    +0.020 A 
ATOM     29  C   LIG    1        3.789   4.500  -4.355  0.00  0.00    +0.030 A 
ATOM     30  C   LIG    1        2.703   4.679  -3.518  0.00  0.00    +0.010 A 
ATOM     31  C   LIG    1        2.784   4.304  -2.190  0.00  0.00    +0.020 A 
ENDBRANCH  25  26
ENDBRANCH   5  25
TORSDOF 7
