REMARK  Name = ZINCvU0000000I5X.0
REMARK                            x       y       z     vdW  Elec       q    Type
REMARK                         _______ _______ _______ _____ _____    ______ ____
ROOT
ATOM      1  C   LIG    1        1.491   1.555   2.364  0.00  0.00    +0.110 C 
ENDROOT
BRANCH   1   3
ATOM      2  N   LIG    1       -0.698   1.558   1.213  0.00  0.00    -0.610 N 
ATOM      3  C   LIG    1        0.002   1.786   2.342  0.00  0.00    +0.540 C 
ATOM      4  O   LIG    1       -0.565   2.177   3.340  0.00  0.00    -0.510 OA
ATOM      5  C   LIG    1       -0.013   1.086   0.008  0.00  0.00    +0.290 C 
BRANCH   2   7
ATOM      6  C   LIG    1       -2.483   2.839   0.137  0.00  0.00    +0.070 C 
ATOM      7  C   LIG    1       -2.146   1.783   1.192  0.00  0.00    +0.350 C 
BRANCH   7   8
ATOM      8  C   LIG    1       -2.849   0.494   0.855  0.00  0.00    +0.080 A 
ATOM      9  N   LIG    1       -3.883   0.056   1.469  0.00  0.00    -0.450 NA
ATOM     10  C   LIG    1       -4.409  -1.114   1.059  0.00  0.00    +0.080 A 
ATOM     11  C   LIG    1       -5.528  -1.818   1.548  0.00  0.00    +0.080 A 
ATOM     12  C   LIG    1       -5.898  -3.002   0.985  0.00  0.00    +0.030 A 
ATOM     13  C   LIG    1       -5.184  -3.537  -0.078  0.00  0.00    +0.040 A 
ATOM     14  C   LIG    1       -4.086  -2.871  -0.576  0.00  0.00    +0.060 A 
ATOM     15  C   LIG    1       -3.693  -1.659  -0.013  0.00  0.00    -0.190 A 
ATOM     16  S   LIG    1       -2.372  -0.561  -0.399  0.00  0.00    +0.110 S 
ENDBRANCH   7   8
ENDBRANCH   2   7
ENDBRANCH   1   3
BRANCH   1  17
ATOM     17  S   LIG    1        2.139   1.947   4.008  0.00  0.00    +0.090 S 
BRANCH  17  18
ATOM     18  C   LIG    1        3.847   1.598   3.755  0.00  0.00    +0.150 A 
ATOM     19  N   LIG    1        4.401   1.169   2.645  0.00  0.00    -0.290 NA
ATOM     20  N   LIG    1        5.667   1.024   2.814  0.00  0.00    -0.280 NA
ATOM     21  C   LIG    1        5.995   1.339   4.035  0.00  0.00    +0.230 A 
ATOM     22  N   LIG    1        4.848   1.717   4.681  0.00  0.00    -0.410 N 
BRANCH  22  23
ATOM     23  C   LIG    1        4.724   2.137   6.013  0.00  0.00    +0.100 A 
ATOM     24  C   LIG    1        5.332   3.313   6.431  0.00  0.00    +0.030 A 
ATOM     25  C   LIG    1        5.205   3.727   7.742  0.00  0.00    +0.040 A 
ATOM     26  C   LIG    1        4.481   2.966   8.642  0.00  0.00    +0.030 A 
ATOM     27  C   LIG    1        3.879   1.791   8.230  0.00  0.00    +0.040 A 
ATOM     28  C   LIG    1        3.998   1.375   6.918  0.00  0.00    +0.030 A 
ENDBRANCH  22  23
BRANCH  21  29
ATOM     29  C   LIG    1        7.380   1.297   4.626  0.00  0.00    +0.040 C 
ATOM     30  C   LIG    1        8.548   1.038   3.672  0.00  0.00    +0.080 C 
ATOM     31  C   LIG    1        8.099  -0.053   4.646  0.00  0.00    +0.060 C 
ENDBRANCH  21  29
ENDBRANCH  17  18
ENDBRANCH   1  17
TORSDOF 7
