REMARK  Name = ZINCvU0000000CMn.0
REMARK                            x       y       z     vdW  Elec       q    Type
REMARK                         _______ _______ _______ _____ _____    ______ ____
ROOT
ATOM      1  C   LIG    1        1.469  10.316   0.039  0.00  0.00    +0.160 C 
ATOM      2  N   LIG    1        1.488   9.028   0.027  0.00  0.00    -0.240 NA
ATOM      3  N   LIG    1        2.768   8.477   0.018  0.00  0.00    -0.460 N 
ATOM      4  C   LIG    1        3.755   9.568   0.014  0.00  0.00    +0.330 C 
ATOM      5  C   LIG    1        3.055   7.160   0.009  0.00  0.00    +0.570 C 
ATOM      6  O   LIG    1        4.210   6.791  -0.004  0.00  0.00    -0.500 OA
ATOM      7  C   LIG    1        2.887  10.842   0.028  0.00  0.00    +0.100 C 
ENDROOT
BRANCH   1  12
ATOM      8  C   LIG    1       -3.276  13.564   0.100  0.00  0.00    +0.100 C 
ATOM      9  C   LIG    1       -2.033  12.713   0.084  0.00  0.00    -0.060 A 
ATOM     10  C   LIG    1       -2.143  11.334   0.078  0.00  0.00    +0.010 A 
ATOM     11  C   LIG    1       -1.009  10.548   0.064  0.00  0.00    +0.060 A 
ATOM     12  C   LIG    1        0.252  11.149   0.054  0.00  0.00    -0.050 A 
ATOM     13  C   LIG    1        0.356  12.542   0.066  0.00  0.00    +0.050 A 
ATOM     14  C   LIG    1       -0.787  13.315   0.074  0.00  0.00    +0.010 A 
ENDBRANCH   1  12
BRANCH   4  15
ATOM     15  C   LIG    1        4.599   9.516  -1.234  0.00  0.00    -0.030 A 
ATOM     16  C   LIG    1        5.916   9.778  -1.304  0.00  0.00    -0.030 A 
ATOM     17  C   LIG    1        6.296   9.607  -2.655  0.00  0.00    -0.060 A 
ATOM     18  C   LIG    1        5.186   9.258  -3.331  0.00  0.00    +0.170 A 
ATOM     19  O   LIG    1        4.162   9.204  -2.465  0.00  0.00    -0.170 OA
ENDBRANCH   4  15
BRANCH   5  20
ATOM     20  C   LIG    1        1.940   6.146   0.015  0.00  0.00    +0.130 C 
BRANCH  20  21
ATOM     21  S   LIG    1        2.642   4.478  -0.000  0.00  0.00    +0.060 S 
BRANCH  21  22
ATOM     22  C   LIG    1        1.161   3.523   0.009  0.00  0.00    +0.180 A 
ATOM     23  N   LIG    1       -0.029   4.110   0.023  0.00  0.00    -0.540 NA
ATOM     24  C   LIG    1       -1.148   3.404   0.030  0.00  0.00    +0.520 A 
ATOM     25  N   LIG    1       -1.165   2.092   0.019  0.00  0.00    -0.510 NA
ATOM     26  C   LIG    1       -0.017   1.397   0.010  0.00  0.00    +0.170 A 
ATOM     27  C   LIG    1        0.002  -0.004   0.002  0.00  0.00    +0.040 A 
ATOM     28  C   LIG    1        1.197  -0.661  -0.013  0.00  0.00    +0.060 A 
ATOM     29  C   LIG    1        2.400   0.038  -0.020  0.00  0.00    +0.020 A 
ATOM     30  C   LIG    1        2.417   1.403  -0.013  0.00  0.00    +0.070 A 
ATOM     31  C   LIG    1        1.208   2.107   0.002  0.00  0.00    -0.140 A 
ENDBRANCH  21  22
ENDBRANCH  20  21
ENDBRANCH   5  20
TORSDOF 5
