REMARK  Name = ZINCrg000000sBml.0
REMARK                            x       y       z     vdW  Elec       q    Type
REMARK                         _______ _______ _______ _____ _____    ______ ____
ROOT
ATOM      1  C   LIG    1        1.660   2.969   3.140  0.00  0.00    +0.350 C 
ATOM      2  N   LIG    1        2.237   1.750   2.568  0.00  0.00    -0.460 N 
ATOM      3  C   LIG    1        2.095   1.292   1.288  0.00  0.00    +0.190 A 
ATOM      4  N   LIG    1        2.771   0.181   1.196  0.00  0.00    -0.270 NA
ATOM      5  N   LIG    1        3.321  -0.095   2.324  0.00  0.00    -0.280 NA
ATOM      6  C   LIG    1        3.025   0.834   3.204  0.00  0.00    +0.150 A 
ENDROOT
BRANCH   3   7
ATOM      7  C   LIG    1        1.309   1.952   0.185  0.00  0.00    +0.190 C 
BRANCH   7   8
ATOM      8  C   LIG    1       -0.130   1.431   0.201  0.00  0.00    +0.030 C 
ATOM      9  C   LIG    1       -0.830   1.887   1.493  0.00  0.00    +0.050 C 
ATOM     10  C   LIG    1       -2.342   1.622   1.299  0.00  0.00    -0.310 C 
ATOM     11  S   LIG    1       -2.626   2.186  -0.422  0.00  0.00    +2.390 S 
ATOM     12  O   LIG    1       -3.454   1.248  -1.097  0.00  0.00    -0.930 OA
ATOM     13  O   LIG    1       -2.977   3.563  -0.415  0.00  0.00    -0.930 OA
ATOM     14  C   LIG    1       -0.902   2.002  -1.004  0.00  0.00    -0.300 C 
ENDBRANCH   7   8
ENDBRANCH   3   7
BRANCH   6  15
ATOM     15  S   LIG    1        3.549   0.890   4.885  0.00  0.00    +0.050 S 
BRANCH  15  16
ATOM     16  C   LIG    1        4.536  -0.626   4.957  0.00  0.00    +0.240 C 
BRANCH  16  17
ATOM     17  C   LIG    1        5.102  -0.791   6.344  0.00  0.00    +0.250 A 
ATOM     18  N   LIG    1        4.494  -1.323   7.372  0.00  0.00    -0.300 NA
ATOM     19  N   LIG    1        5.256  -1.311   8.405  0.00  0.00    -0.030 NA
ATOM     20  N   LIG    1        6.393  -0.777   8.114  0.00  0.00    -0.060 NA
ATOM     21  N   LIG    1        6.335  -0.422   6.754  0.00  0.00    -0.320 N 
BRANCH  21  22
ATOM     22  C   LIG    1        7.341   0.186   5.989  0.00  0.00    +0.110 A 
ATOM     23  C   LIG    1        8.660  -0.226   6.120  0.00  0.00    +0.050 A 
ATOM     24  C   LIG    1        9.648   0.371   5.361  0.00  0.00    +0.040 A 
ATOM     25  C   LIG    1        9.325   1.386   4.480  0.00  0.00    +0.040 A 
ATOM     26  C   LIG    1        8.013   1.803   4.351  0.00  0.00    +0.040 A 
ATOM     27  C   LIG    1        7.020   1.206   5.103  0.00  0.00    +0.030 A 
ENDBRANCH  21  22
ENDBRANCH  16  17
ENDBRANCH  15  16
ENDBRANCH   6  15
TORSDOF 6
