REMARK  Name = ZINCrH000004sXJ5.0
REMARK                            x       y       z     vdW  Elec       q    Type
REMARK                         _______ _______ _______ _____ _____    ______ ____
ROOT
ATOM      1  C   LIG    1       -3.508  -4.345  -1.129  0.00  0.00    +0.480 C 
ATOM      2  N   LIG    1       -4.159  -5.515  -1.280  0.00  0.00    -0.550 N 
ATOM      3  C   LIG    1       -4.867  -6.128  -0.147  0.00  0.00    +0.290 C 
ATOM      4  C   LIG    1       -4.529  -7.625  -0.139  0.00  0.00    +0.030 C 
ATOM      5  C   LIG    1       -5.062  -8.259  -1.424  0.00  0.00    +0.100 C 
ATOM      6  C   LIG    1       -4.598  -7.483  -2.628  0.00  0.00    -0.080 A 
ATOM      7  C   LIG    1       -4.597  -8.104  -3.866  0.00  0.00    +0.040 A 
ATOM      8  C   LIG    1       -4.179  -7.419  -4.991  0.00  0.00    -0.030 A 
ATOM      9  C   LIG    1       -3.758  -6.105  -4.888  0.00  0.00    +0.020 A 
ATOM     10  C   LIG    1       -3.754  -5.478  -3.656  0.00  0.00    +0.090 A 
ATOM     11  F   LIG    1       -3.343  -4.195  -3.551  0.00  0.00    -0.080 F 
ATOM     12 CL   LIG    1       -4.182  -8.208  -6.537  0.00  0.00    -0.060 Cl
ATOM     13  C   LIG    1       -4.178  -6.165  -2.523  0.00  0.00    +0.130 A 
ATOM     14  O   LIG    1       -2.700  -3.989  -1.960  0.00  0.00    -0.450 OA
ENDROOT
BRANCH   1  15
ATOM     15  C   LIG    1       -3.784  -3.479   0.074  0.00  0.00    +0.210 C 
BRANCH  15  18
ATOM     16  C   LIG    1       -0.875  -2.868   1.076  0.00  0.00    +0.340 C 
ATOM     17  N   LIG    1       -1.766  -1.935   0.384  0.00  0.00    -0.470 N 
ATOM     18  C   LIG    1       -3.030  -2.181  -0.058  0.00  0.00    +0.190 A 
ATOM     19  N   LIG    1       -3.467  -1.088  -0.623  0.00  0.00    -0.270 NA
ATOM     20  N   LIG    1       -2.568  -0.170  -0.562  0.00  0.00    -0.270 NA
ATOM     21  C   LIG    1       -1.502  -0.634   0.050  0.00  0.00    +0.220 A 
BRANCH  21  22
ATOM     22  C   LIG    1       -0.251   0.107   0.322  0.00  0.00    -0.020 A 
ATOM     23  C   LIG    1        0.643  -0.357   1.287  0.00  0.00    +0.010 A 
ATOM     24  C   LIG    1        1.809   0.338   1.535  0.00  0.00    +0.010 A 
ATOM     25  C   LIG    1        2.091   1.494   0.830  0.00  0.00    +0.030 A 
ATOM     26  C   LIG    1        1.209   1.960  -0.129  0.00  0.00    +0.010 A 
ATOM     27  C   LIG    1        0.040   1.274  -0.386  0.00  0.00    +0.070 A 
ENDBRANCH  21  22
ENDBRANCH  15  18
ENDBRANCH   1  15
TORSDOF 3
