REMARK  Name = ZINCb70000002E7F.0
REMARK                            x       y       z     vdW  Elec       q    Type
REMARK                         _______ _______ _______ _____ _____    ______ ____
ROOT
ATOM      1  N   LIG    1        0.225   5.780   1.412  0.00  0.00    -0.680 NA
ATOM      2  H   LIG    1        1.041   5.378   1.848  0.00  0.00    +0.360 HD
ENDROOT
BRANCH   1   3
ATOM      3  C   LIG    1        0.272   7.247   1.459  0.00  0.00    +0.190 C 
BRANCH   3   4
ATOM      4  C   LIG    1        0.426   7.706   2.910  0.00  0.00    +0.260 C 
BRANCH   4   5
ATOM      5  N   LIG    1        0.472   9.174   2.957  0.00  0.00    -0.630 N 
ATOM      6  H   LIG    1       -0.382   9.550   2.575  0.00  0.00    +0.440 HD
ATOM      7  H   LIG    1        1.257   9.503   2.415  0.00  0.00    +0.440 HD
ATOM      8  H   LIG    1        0.574   9.476   3.914  0.00  0.00    +0.440 HD
ENDBRANCH   4   5
ENDBRANCH   3   4
ENDBRANCH   1   3
BRANCH   1   9
ATOM      9  C   LIG    1        0.077   5.302   0.031  0.00  0.00    +0.280 C 
BRANCH   9  10
ATOM     10  C   LIG    1        0.033   3.795   0.023  0.00  0.00    +0.110 A 
ATOM     11  C   LIG    1       -1.188   3.148   0.030  0.00  0.00    -0.010 A 
ATOM     12  C   LIG    1       -1.217   1.761   0.017  0.00  0.00    +0.070 A 
ATOM     13  C   LIG    1       -0.013   1.076   0.008  0.00  0.00    -0.020 A 
ATOM     14  C   LIG    1        1.170   1.792   0.001  0.00  0.00    +0.260 A 
ATOM     15  N   LIG    1        1.160   3.110   0.008  0.00  0.00    -0.480 NA
ENDBRANCH   9  10
ENDBRANCH   1   9
TORSDOF 5
