REMARK  Name = ZINCkj00000y7CRg.1
REMARK                            x       y       z     vdW  Elec       q    Type
REMARK                         _______ _______ _______ _____ _____    ______ ____
ROOT
ATOM      1  N   LIG    1       -4.312   6.406  -0.858  0.00  0.00    -0.380 N 
ATOM      2  C   LIG    1       -3.624   7.254  -1.841  0.00  0.00    +0.240 C 
ATOM      3  C   LIG    1       -3.527   8.683  -1.299  0.00  0.00    +0.270 C 
ATOM      4  O   LIG    1       -4.842   9.169  -1.016  0.00  0.00    -0.330 OA
ATOM      5  C   LIG    1       -5.563   8.362  -0.081  0.00  0.00    +0.160 C 
ATOM      6  C   LIG    1       -5.663   6.933  -0.620  0.00  0.00    +0.260 C 
ATOM      7  H   LIG    1       -3.794   6.405   0.007  0.00  0.00    +0.420 HD
ENDROOT
BRANCH   5   8
ATOM      8  C   LIG    1       -6.948   8.926   0.109  0.00  0.00    +0.520 C 
ATOM      9  O   LIG    1       -7.316   9.867  -0.562  0.00  0.00    -0.490 OA
ATOM     10  N   LIG    1       -7.776   8.386   1.025  0.00  0.00    -0.840 N 
ATOM     11  H   LIG    1       -8.667   8.750   1.147  0.00  0.00    +0.420 HD
ATOM     12  H   LIG    1       -7.481   7.634   1.562  0.00  0.00    +0.400 HD
ENDBRANCH   5   8
BRANCH   1  14
ATOM     13  C   LIG    1       -5.067   5.053  -2.755  0.00  0.00    +0.090 C 
ATOM     14  C   LIG    1       -4.406   5.034  -1.375  0.00  0.00    +0.170 C 
BRANCH  14  15
ATOM     15  C   LIG    1       -3.003   4.436  -1.490  0.00  0.00    +0.070 C 
BRANCH  15  16
ATOM     16  C   LIG    1       -2.393   4.294  -0.094  0.00  0.00    +0.070 C 
BRANCH  16  17
ATOM     17  C   LIG    1       -1.064   3.590  -0.196  0.00  0.00    -0.070 A 
ATOM     18  C   LIG    1        0.094   4.323  -0.374  0.00  0.00    +0.000 A 
ATOM     19  C   LIG    1        1.314   3.678  -0.468  0.00  0.00    +0.060 A 
ATOM     20  C   LIG    1        1.376   2.301  -0.382  0.00  0.00    -0.010 A 
ATOM     21  C   LIG    1        0.216   1.565  -0.202  0.00  0.00    +0.110 A 
ATOM     22  F   LIG    1        0.276   0.218  -0.119  0.00  0.00    -0.130 F 
ATOM     23  C   LIG    1       -1.005   2.211  -0.115  0.00  0.00    -0.010 A 
ENDBRANCH  16  17
ENDBRANCH  15  16
ENDBRANCH  14  15
ENDBRANCH   1  14
TORSDOF 5
