REMARK  Name = ZINCkj00000y7CRg.0
REMARK                            x       y       z     vdW  Elec       q    Type
REMARK                         _______ _______ _______ _____ _____    ______ ____
ROOT
ATOM      1  N   LIG    1       -2.127   1.117   1.290  0.00  0.00    -0.390 N 
ATOM      2  C   LIG    1       -2.822   1.085  -0.005  0.00  0.00    +0.240 C 
ATOM      3  C   LIG    1       -4.166   0.372   0.158  0.00  0.00    +0.280 C 
ATOM      4  O   LIG    1       -4.941   1.046   1.153  0.00  0.00    -0.320 OA
ATOM      5  C   LIG    1       -4.295   1.123   2.427  0.00  0.00    +0.220 C 
ATOM      6  C   LIG    1       -2.951   1.839   2.269  0.00  0.00    +0.270 C 
ATOM      7  H   LIG    1       -1.971   0.173   1.611  0.00  0.00    +0.420 HD
ENDROOT
BRANCH   5   8
ATOM      8  C   LIG    1       -4.066  -0.267   2.961  0.00  0.00    +0.470 C 
ATOM      9  O   LIG    1       -4.338  -1.231   2.278  0.00  0.00    -0.510 OA
ATOM     10  N   LIG    1       -3.561  -0.439   4.199  0.00  0.00    -0.840 N 
ATOM     11  H   LIG    1       -3.414  -1.334   4.542  0.00  0.00    +0.420 HD
ATOM     12  H   LIG    1       -3.344   0.332   4.745  0.00  0.00    +0.410 HD
ENDBRANCH   5   8
BRANCH   1  14
ATOM     13  C   LIG    1       -0.148   1.905   2.499  0.00  0.00    +0.080 C 
ATOM     14  C   LIG    1       -0.836   1.801   1.136  0.00  0.00    +0.160 C 
BRANCH  14  15
ATOM     15  C   LIG    1        0.052   1.006   0.176  0.00  0.00    +0.040 C 
BRANCH  15  16
ATOM     16  C   LIG    1        1.353   1.774  -0.069  0.00  0.00    +0.110 C 
BRANCH  16  17
ATOM     17  C   LIG    1        2.171   1.055  -1.110  0.00  0.00    -0.070 A 
ATOM     18  C   LIG    1        3.087   0.094  -0.727  0.00  0.00    +0.000 A 
ATOM     19  C   LIG    1        3.835  -0.570  -1.682  0.00  0.00    +0.060 A 
ATOM     20  C   LIG    1        3.675  -0.265  -3.020  0.00  0.00    -0.010 A 
ATOM     21  C   LIG    1        2.761   0.702  -3.405  0.00  0.00    +0.110 A 
ATOM     22  F   LIG    1        2.604   1.001  -4.713  0.00  0.00    -0.130 F 
ATOM     23  C   LIG    1        2.009   1.362  -2.448  0.00  0.00    -0.020 A 
ENDBRANCH  16  17
ENDBRANCH  15  16
ENDBRANCH  14  15
ENDBRANCH   1  14
TORSDOF 5
