REMARK  Name = ZINCrH000004nbTW.0
REMARK                            x       y       z     vdW  Elec       q    Type
REMARK                         _______ _______ _______ _____ _____    ______ ____
ROOT
ATOM      1  C   LIG    1       -3.044   7.757   4.802  0.00  0.00    +0.150 A 
ATOM      2  C   LIG    1       -3.066   6.780   3.817  0.00  0.00    -0.090 A 
ATOM      3  C   LIG    1       -1.883   6.197   3.397  0.00  0.00    +0.080 A 
ATOM      4  C   LIG    1       -0.690   6.592   3.958  0.00  0.00    -0.190 A 
ATOM      5  C   LIG    1        0.630   6.041   3.440  0.00  0.00    +0.340 C 
ATOM      6  N   LIG    1        1.272   5.282   4.518  0.00  0.00    -0.620 N 
ATOM      7  C   LIG    1        2.016   5.974   5.572  0.00  0.00    +0.300 C 
ATOM      8  C   LIG    1        1.101   6.870   6.394  0.00  0.00    +0.100 C 
ATOM      9  O   LIG    1        0.514   7.875   5.561  0.00  0.00    -0.320 OA
ATOM     10  C   LIG    1        1.914   7.541   7.503  0.00  0.00    +0.080 C 
ATOM     11  C   LIG    1       -0.006   6.022   7.024  0.00  0.00    +0.030 C 
ATOM     12  C   LIG    1        1.180   3.937   4.536  0.00  0.00    +0.710 C 
ATOM     13  N   LIG    1        0.581   3.289   3.517  0.00  0.00    -0.650 N 
ATOM     14  H   LIG    1        0.149   3.792   2.810  0.00  0.00    +0.400 HD
ATOM     15  O   LIG    1        1.638   3.309   5.471  0.00  0.00    -0.580 OA
ATOM     16  C   LIG    1       -0.660   7.541   4.970  0.00  0.00    +0.170 A 
ATOM     17  C   LIG    1       -1.843   8.138   5.380  0.00  0.00    -0.030 A 
ENDROOT
BRANCH  13  18
ATOM     18  C   LIG    1        0.582   1.881   3.480  0.00  0.00    +0.010 A 
ATOM     19  C   LIG    1        1.144   1.058   4.402  0.00  0.00    +0.250 A 
ATOM     20  N   LIG    1        0.929  -0.220   3.995  0.00  0.00    -0.380 N 
ATOM     21  N   LIG    1        0.211  -0.174   2.793  0.00  0.00    -0.280 NA
ATOM     22  C   LIG    1        1.371  -1.432   4.689  0.00  0.00    +0.360 C 
ATOM     23  C   LIG    1        0.001   1.080   2.487  0.00  0.00    +0.070 A 
BRANCH  23  24
ATOM     24  C   LIG    1       -0.735   1.580   1.270  0.00  0.00    +0.070 C 
ATOM     25  C   LIG    1       -2.169   1.045   1.286  0.00  0.00    +0.030 C 
ATOM     26  C   LIG    1       -0.023   1.092   0.007  0.00  0.00    +0.040 C 
ENDBRANCH  23  24
ENDBRANCH  13  18
BRANCH   1  28
ATOM     27  C   LIG    1       -5.405   7.902   4.564  0.00  0.00    +0.250 C 
ATOM     28  O   LIG    1       -4.204   8.342   5.201  0.00  0.00    -0.310 OA
ENDBRANCH   1  28
TORSDOF 3
