REMARK  Name = ZINCpk00000y6utf.0
REMARK                            x       y       z     vdW  Elec       q    Type
REMARK                         _______ _______ _______ _____ _____    ______ ____
ROOT
ATOM      1  C   LIG    1       -1.987   0.035   4.436  0.00  0.00    +0.570 C 
ATOM      2  N   LIG    1       -1.420  -0.940   3.697  0.00  0.00    -0.610 N 
ATOM      3  C   LIG    1       -1.200  -2.266   4.280  0.00  0.00    +0.290 C 
ATOM      4  O   LIG    1       -2.287   1.093   3.918  0.00  0.00    -0.520 OA
ENDROOT
BRANCH   1   8
ATOM      5  C   LIG    1       -2.725  -0.597   8.573  0.00  0.00    +0.130 A 
ATOM      6  C   LIG    1       -1.788  -1.375   7.909  0.00  0.00    -0.050 A 
ATOM      7  C   LIG    1       -1.546  -1.173   6.567  0.00  0.00    +0.050 A 
ATOM      8  C   LIG    1       -2.245  -0.183   5.873  0.00  0.00    -0.140 A 
ATOM      9  C   LIG    1       -3.184   0.605   6.543  0.00  0.00    +0.040 A 
ATOM     10  C   LIG    1       -3.426   0.394   7.886  0.00  0.00    +0.090 A 
BRANCH   5  12
ATOM     11  C   LIG    1       -2.207  -1.831  10.537  0.00  0.00    +0.240 C 
ATOM     12  O   LIG    1       -2.960  -0.800   9.895  0.00  0.00    -0.300 OA
ENDBRANCH   5  12
BRANCH  10  13
ATOM     13  O   LIG    1       -4.343   1.156   8.540  0.00  0.00    -0.300 OA
ATOM     14  C   LIG    1       -5.024   2.152   7.775  0.00  0.00    +0.240 C 
ENDBRANCH  10  13
ENDBRANCH   1   8
BRANCH   2  15
ATOM     15  C   LIG    1       -1.023  -0.673   2.313  0.00  0.00    +0.300 C 
BRANCH  15  16
ATOM     16  C   LIG    1       -2.190  -0.996   1.377  0.00  0.00    +0.150 C 
ATOM     17  O   LIG    1       -3.268  -0.071   1.597  0.00  0.00    -0.350 OA
ATOM     18  C   LIG    1       -3.903   0.148   0.320  0.00  0.00    +0.210 C 
ATOM     19  C   LIG    1       -2.712   0.222  -0.669  0.00  0.00    +0.020 C 
ATOM     20  C   LIG    1       -1.744  -0.838  -0.090  0.00  0.00    +0.090 C 
BRANCH  20  21
ATOM     21  C   LIG    1       -0.321  -0.347  -0.159  0.00  0.00    +0.190 A 
ATOM     22  N   LIG    1        0.747  -1.085  -0.287  0.00  0.00    -0.290 NA
ATOM     23  N   LIG    1        1.792  -0.336  -0.310  0.00  0.00    -0.290 NA
ATOM     24  C   LIG    1        1.437   0.915  -0.197  0.00  0.00    +0.380 A 
ATOM     25  N   LIG    1        0.086   0.944  -0.098  0.00  0.00    -0.580 N 
ATOM     26  H   LIG    1       -0.475   1.730  -0.006  0.00  0.00    +0.430 HD
ENDBRANCH  20  21
ENDBRANCH  15  16
ENDBRANCH   2  15
TORSDOF 6
