REMARK  Name = ZINCpk00000y6utf.1
REMARK                            x       y       z     vdW  Elec       q    Type
REMARK                         _______ _______ _______ _____ _____    ______ ____
ROOT
ATOM      1  C   LIG    1       -1.273   7.126   1.747  0.00  0.00    +0.560 C 
ATOM      2  N   LIG    1       -0.514   7.929   0.975  0.00  0.00    -0.600 N 
ATOM      3  C   LIG    1        0.160   7.385  -0.207  0.00  0.00    +0.290 C 
ATOM      4  O   LIG    1       -1.903   7.594   2.675  0.00  0.00    -0.540 OA
ENDROOT
BRANCH   1   8
ATOM      5  C   LIG    1       -1.466   2.960   0.928  0.00  0.00    +0.120 A 
ATOM      6  C   LIG    1       -1.444   3.872  -0.117  0.00  0.00    -0.040 A 
ATOM      7  C   LIG    1       -1.387   5.224   0.145  0.00  0.00    +0.050 A 
ATOM      8  C   LIG    1       -1.340   5.678   1.465  0.00  0.00    -0.130 A 
ATOM      9  C   LIG    1       -1.356   4.760   2.518  0.00  0.00    +0.020 A 
ATOM     10  C   LIG    1       -1.419   3.406   2.248  0.00  0.00    +0.090 A 
BRANCH   5  12
ATOM     11  C   LIG    1       -1.573   1.241  -0.709  0.00  0.00    +0.240 C 
ATOM     12  O   LIG    1       -1.527   1.629   0.665  0.00  0.00    -0.300 OA
ENDBRANCH   5  12
BRANCH  10  13
ATOM     13  O   LIG    1       -1.435   2.510   3.271  0.00  0.00    -0.300 OA
ATOM     14  C   LIG    1       -1.384   3.038   4.598  0.00  0.00    +0.240 C 
ENDBRANCH  10  13
ENDBRANCH   1   8
BRANCH   2  15
ATOM     15  C   LIG    1       -0.363   9.345   1.318  0.00  0.00    +0.310 C 
BRANCH  15  16
ATOM     16  C   LIG    1        0.844   9.520   2.242  0.00  0.00    +0.160 C 
ATOM     17  O   LIG    1        2.053   9.205   1.531  0.00  0.00    -0.360 OA
ATOM     18  C   LIG    1        3.082  10.080   2.041  0.00  0.00    +0.210 C 
ATOM     19  C   LIG    1        2.350  11.436   2.212  0.00  0.00    +0.040 C 
ATOM     20  C   LIG    1        0.949  10.989   2.695  0.00  0.00    +0.080 C 
BRANCH  20  21
ATOM     21  C   LIG    1       -0.124  11.820   2.040  0.00  0.00    +0.240 A 
ATOM     22  N   LIG    1       -1.052  12.494   2.668  0.00  0.00    -0.310 NA
ATOM     23  N   LIG    1       -1.835  13.120   1.684  0.00  0.00    -0.480 N 
ATOM     24  H   LIG    1       -2.603  13.694   1.830  0.00  0.00    +0.440 HD
ATOM     25  C   LIG    1       -1.306  12.768   0.499  0.00  0.00    +0.480 A 
ATOM     26  N   LIG    1       -0.278  11.992   0.728  0.00  0.00    -0.540 NA
ENDBRANCH  20  21
ENDBRANCH  15  16
ENDBRANCH   2  15
TORSDOF 6
