REMARK  Name = ZINCpe000000V01z.0
REMARK                            x       y       z     vdW  Elec       q    Type
REMARK                         _______ _______ _______ _____ _____    ______ ____
ROOT
ATOM      1  C   LIG    1       -0.014   1.209   0.009  0.00  0.00    +0.520 C 
ATOM      2  N   LIG    1       -1.191   1.867   0.018  0.00  0.00    -0.720 N 
ATOM      3  H   LIG    1       -1.204   2.837   0.023  0.00  0.00    +0.400 HD
ATOM      4  O   LIG    1        0.002  -0.004   0.002  0.00  0.00    -0.530 OA
ENDROOT
BRANCH   1   8
ATOM      5  N   LIG    1        3.769   2.748  -1.101  0.00  0.00    -1.010 NA
ATOM      6  C   LIG    1        3.771   1.788   0.011  0.00  0.00    +0.300 C 
ATOM      7  C   LIG    1        2.457   1.001  -0.016  0.00  0.00    +0.060 C 
ATOM      8  C   LIG    1        1.280   1.980   0.001  0.00  0.00    +0.000 C 
ATOM      9  C   LIG    1        1.337   2.869  -1.244  0.00  0.00    +0.030 C 
ATOM     10  C   LIG    1        2.638   3.676  -1.231  0.00  0.00    +0.300 C 
BRANCH   5  11
ATOM     11  S   LIG    1        5.020   2.785  -2.186  0.00  0.00    +2.790 S 
ATOM     12  O   LIG    1        6.144   2.222  -1.523  0.00  0.00    -0.970 OA
ATOM     13  O   LIG    1        5.023   4.089  -2.751  0.00  0.00    -0.970 OA
BRANCH  11  15
ATOM     14  C   LIG    1        3.484   2.026  -4.279  0.00  0.00    +0.290 C 
ATOM     15  N   LIG    1        4.633   1.744  -3.415  0.00  0.00    -1.130 NA
ATOM     16  H   LIG    1        5.167   0.948  -3.563  0.00  0.00    +0.420 HD
ENDBRANCH  11  15
ENDBRANCH   5  11
ENDBRANCH   1   8
BRANCH   2  17
ATOM     17  CA  LIG    1       -2.449   1.117   0.020  0.00  0.00    +0.310 C 
BRANCH  17  18
ATOM     18  C   LIG    1       -3.537   1.963   0.630  0.00  0.00    -0.110 A 
ATOM     19  C   LIG    1       -3.433   3.341   0.612  0.00  0.00    +0.070 A 
ATOM     20  C   LIG    1       -4.433   4.118   1.167  0.00  0.00    +0.030 A 
ATOM     21  C   LIG    1       -5.533   3.518   1.750  0.00  0.00    +0.070 A 
ATOM     22  C   LIG    1       -5.637   2.139   1.774  0.00  0.00    -0.070 A 
ATOM     23 CL   LIG    1       -7.018   1.385   2.508  0.00  0.00    -0.040 Cl
ATOM     24  C   LIG    1       -4.638   1.360   1.214  0.00  0.00    +0.120 A 
ATOM     25  F   LIG    1       -4.737   0.013   1.238  0.00  0.00    -0.120 F 
ENDBRANCH  17  18
BRANCH  17  26
ATOM     26  C   LIG    1       -2.830   0.756  -1.417  0.00  0.00    +0.190 C 
BRANCH  26  27
ATOM     27  O   LIG    1       -3.103   1.950  -2.153  0.00  0.00    -0.570 OA
ATOM     28  H   LIG    1       -3.351   1.797  -3.074  0.00  0.00    +0.380 HD
ENDBRANCH  26  27
ENDBRANCH  17  26
ENDBRANCH   2  17
TORSDOF 7
