REMARK  Name = ZINCpk00000ebd3H.0
REMARK                            x       y       z     vdW  Elec       q    Type
REMARK                         _______ _______ _______ _____ _____    ______ ____
ROOT
ATOM      1  C   LIG    1        5.740   0.890  -3.660  0.00  0.00    +0.110 C 
ATOM      2  C   LIG    1        6.803   0.376  -2.686  0.00  0.00    +0.040 C 
ATOM      3  C   LIG    1        6.277   0.481  -1.252  0.00  0.00    +0.040 C 
ATOM      4  C   LIG    1        5.990   1.949  -0.924  0.00  0.00    +0.270 C 
ATOM      5  N   LIG    1        5.080   2.493  -1.942  0.00  0.00    -0.610 N 
ATOM      6  C   LIG    1        3.930   3.097  -1.583  0.00  0.00    +0.490 C 
ATOM      7  O   LIG    1        3.188   3.542  -2.432  0.00  0.00    -0.510 OA
ATOM      8  C   LIG    1        5.444   2.358  -3.359  0.00  0.00    +0.300 C 
ENDROOT
BRANCH   1  13
ATOM      9  C   LIG    1        6.288  -0.374  -8.474  0.00  0.00    +0.200 C 
ATOM     10  C   LIG    1        6.490   0.230  -7.108  0.00  0.00    +0.170 A 
ATOM     11  N   LIG    1        7.461   1.016  -6.750  0.00  0.00    -0.380 NA
ATOM     12  O   LIG    1        7.339   1.329  -5.585  0.00  0.00    +0.080 OA
ATOM     13  C   LIG    1        6.246   0.756  -5.073  0.00  0.00    +0.190 A 
ATOM     14  N   LIG    1        5.701   0.050  -6.034  0.00  0.00    -0.470 NA
ENDBRANCH   1  13
BRANCH   6  15
ATOM     15  C   LIG    1        3.568   3.222  -0.125  0.00  0.00    +0.330 C 
BRANCH  15  16
ATOM     16  N   LIG    1        2.282   3.912   0.001  0.00  0.00    -0.580 N 
ATOM     17  C   LIG    1        2.242   5.372   0.119  0.00  0.00    +0.320 C 
BRANCH  16  18
ATOM     18  C   LIG    1        1.102   3.184   0.008  0.00  0.00    +0.440 A 
ATOM     19  C   LIG    1        1.154   1.792   0.001  0.00  0.00    -0.100 A 
ATOM     20  C   LIG    1       -0.013   1.076   0.008  0.00  0.00    +0.160 A 
ATOM     21  C   LIG    1       -1.228   1.777   0.017  0.00  0.00    -0.150 A 
ATOM     22  C   LIG    1       -1.205   3.173   0.030  0.00  0.00    +0.380 A 
ATOM     23  N   LIG    1       -0.060   3.823   0.023  0.00  0.00    -0.530 NA
BRANCH  21  24
ATOM     24  C   LIG    1       -2.474   1.071   0.020  0.00  0.00    +0.260 C 
ATOM     25  N   LIG    1       -3.462   0.511   0.022  0.00  0.00    -0.420 NA
ENDBRANCH  21  24
ENDBRANCH  16  18
ENDBRANCH  15  16
ENDBRANCH   6  15
TORSDOF 5
