REMARK  Name = ZINCAx00000008xC.0
REMARK                            x       y       z     vdW  Elec       q    Type
REMARK                         _______ _______ _______ _____ _____    ______ ____
ROOT
ATOM      1  N   LIG    1        1.070   2.062   0.008  0.00  0.00    -0.570 N 
ATOM      2  C   LIG    1        0.705   3.349   0.020  0.00  0.00    +0.710 C 
ATOM      3  N   LIG    1       -0.631   3.504   0.034  0.00  0.00    -0.720 N 
ATOM      4  H   LIG    1       -1.117   4.344   0.043  0.00  0.00    +0.440 HD
ATOM      5  C   LIG    1       -1.213   2.151   0.024  0.00  0.00    +0.170 C 
ATOM      6  C   LIG    1       -2.048   1.918   1.285  0.00  0.00    +0.090 C 
ATOM      7  O   LIG    1        1.493   4.274   0.019  0.00  0.00    -0.530 OA
ATOM      8  C   LIG    1        0.000   1.242   0.013  0.00  0.00    +0.540 C 
ATOM      9  O   LIG    1        0.006   0.030   0.004  0.00  0.00    -0.460 OA
ENDROOT
BRANCH   5  10
ATOM     10  C   LIG    1       -2.047   1.938  -1.213  0.00  0.00    -0.090 A 
ATOM     11  C   LIG    1       -2.071   0.698  -1.822  0.00  0.00    +0.050 A 
ATOM     12  C   LIG    1       -2.835   0.495  -2.958  0.00  0.00    +0.030 A 
ATOM     13  C   LIG    1       -3.576   1.540  -3.483  0.00  0.00    +0.080 A 
ATOM     14  O   LIG    1       -4.334   1.353  -4.601  0.00  0.00    -0.320 OA
ATOM     15  C   LIG    1       -3.894   2.037  -5.776  0.00  0.00    +0.230 C 
ATOM     16  C   LIG    1       -4.415   3.465  -5.796  0.00  0.00    -0.010 C 
ATOM     17  C   LIG    1       -3.847   4.305  -4.663  0.00  0.00    +0.230 C 
ATOM     18  O   LIG    1       -4.285   3.809  -3.396  0.00  0.00    -0.320 OA
ATOM     19  C   LIG    1       -3.551   2.786  -2.871  0.00  0.00    +0.070 A 
ATOM     20  C   LIG    1       -2.790   2.984  -1.732  0.00  0.00    +0.050 A 
ENDBRANCH   5  10
BRANCH   1  21
ATOM     21  C   LIG    1        2.460   1.601  -0.009  0.00  0.00    +0.480 C 
BRANCH  21  25
ATOM     22  N   LIG    1        4.340   0.231  -3.535  0.00  0.00    -0.500 N 
ATOM     23  C   LIG    1        4.794   1.507  -2.964  0.00  0.00    +0.200 C 
ATOM     24  C   LIG    1        4.372   1.583  -1.494  0.00  0.00    +0.200 C 
ATOM     25  N   LIG    1        2.911   1.456  -1.399  0.00  0.00    -0.550 NA
ATOM     26  C   LIG    1        2.458   0.181  -1.970  0.00  0.00    +0.190 C 
ATOM     27  C   LIG    1        2.879   0.104  -3.440  0.00  0.00    +0.200 C 
BRANCH  22  31
ATOM     28  C   LIG    1        5.619  -0.177  -7.476  0.00  0.00    -0.150 A 
ATOM     29  C   LIG    1        4.794   0.895  -7.112  0.00  0.00    +0.080 A 
ATOM     30  C   LIG    1        4.374   1.025  -5.809  0.00  0.00    +0.010 A 
ATOM     31  C   LIG    1        4.767   0.095  -4.851  0.00  0.00    +0.090 A 
ATOM     32  C   LIG    1        5.593  -0.972  -5.207  0.00  0.00    +0.120 A 
ATOM     33  F   LIG    1        5.977  -1.869  -4.274  0.00  0.00    -0.120 F 
ATOM     34  C   LIG    1        6.013  -1.113  -6.511  0.00  0.00    +0.040 A 
BRANCH  28  36
ATOM     35  C   LIG    1        7.054  -1.400  -9.232  0.00  0.00    +0.080 C 
ATOM     36  C   LIG    1        6.068  -0.320  -8.866  0.00  0.00    +0.400 C 
ATOM     37  O   LIG    1        5.646   0.431  -9.720  0.00  0.00    -0.450 OA
ENDBRANCH  28  36
ENDBRANCH  22  31
ENDBRANCH  21  25
ENDBRANCH   1  21
TORSDOF 5
