REMARK  Name = ZINCrD0000075sjC.0
REMARK                            x       y       z     vdW  Elec       q    Type
REMARK                         _______ _______ _______ _____ _____    ______ ____
ROOT
ATOM      1  C   LIG    1        2.051   4.374   0.006  0.00  0.00    +0.520 C 
ATOM      2  O   LIG    1        3.180   3.925  -0.007  0.00  0.00    -0.510 OA
ENDROOT
BRANCH   1   3
ATOM      3  C   LIG    1        1.838   5.833   0.016  0.00  0.00    -0.170 A 
ATOM      4  C   LIG    1        0.540   6.352   0.025  0.00  0.00    +0.140 A 
ATOM      5  C   LIG    1        0.346   7.715   0.040  0.00  0.00    -0.090 A 
ATOM      6  C   LIG    1        1.438   8.575   0.034  0.00  0.00    +0.170 A 
ATOM      7  C   LIG    1        2.730   8.063   0.019  0.00  0.00    -0.030 A 
ATOM      8  C   LIG    1        2.934   6.701   0.010  0.00  0.00    +0.140 A 
BRANCH   6   9
ATOM      9  O   LIG    1        1.242   9.917   0.043  0.00  0.00    -0.300 OA
BRANCH   9  10
ATOM     10  C   LIG    1       -0.112  10.375   0.058  0.00  0.00    +0.260 C 
BRANCH  10  11
ATOM     11  C   LIG    1       -0.132  11.882   0.066  0.00  0.00    -0.100 A 
ATOM     12  C   LIG    1       -0.136  12.567   1.266  0.00  0.00    +0.030 A 
ATOM     13  C   LIG    1       -0.149  13.950   1.273  0.00  0.00    +0.010 A 
ATOM     14  C   LIG    1       -0.170  14.647   0.080  0.00  0.00    +0.020 A 
ATOM     15  C   LIG    1       -0.172  13.961  -1.121  0.00  0.00    +0.010 A 
ATOM     16  C   LIG    1       -0.153  12.579  -1.128  0.00  0.00    +0.030 A 
ENDBRANCH  10  11
ENDBRANCH   9  10
ENDBRANCH   6   9
ENDBRANCH   1   3
BRANCH   1  17
ATOM     17  O   LIG    1        0.994   3.538   0.012  0.00  0.00    -0.330 OA
BRANCH  17  18
ATOM     18  C   LIG    1        1.278   2.115   0.001  0.00  0.00    +0.270 C 
BRANCH  18  20
ATOM     19  O   LIG    1       -1.075   1.936   0.018  0.00  0.00    -0.510 OA
ATOM     20  C   LIG    1       -0.016   1.344   0.009  0.00  0.00    +0.520 C 
ATOM     21  N   LIG    1        0.002  -0.004   0.002  0.00  0.00    -0.730 N 
ATOM     22  H   LIG    1        0.849  -0.478  -0.009  0.00  0.00    +0.410 HD
BRANCH  21  23
ATOM     23  C   LIG    1       -1.256  -0.754   0.010  0.00  0.00    +0.400 C 
BRANCH  23  24
ATOM     24  C   LIG    1       -0.961  -2.232  -0.001  0.00  0.00    -0.050 A 
ATOM     25  C   LIG    1       -0.796  -3.009   1.085  0.00  0.00    -0.030 A 
ATOM     26  C   LIG    1       -0.539  -4.317   0.616  0.00  0.00    -0.070 A 
ATOM     27  C   LIG    1       -0.561  -4.262  -0.728  0.00  0.00    +0.190 A 
ATOM     28  O   LIG    1       -0.823  -2.997  -1.096  0.00  0.00    -0.170 OA
ENDBRANCH  23  24
ENDBRANCH  21  23
ENDBRANCH  18  20
ENDBRANCH  17  18
ENDBRANCH   1  17
TORSDOF 9
