REMARK  Name = ZINC550000002rAn.0
REMARK                            x       y       z     vdW  Elec       q    Type
REMARK                         _______ _______ _______ _____ _____    ______ ____
ROOT
ATOM      1  C   LIG    1       -0.876   3.052  -1.022  0.00  0.00    +0.070 C 
ATOM      2  C   LIG    1       -0.795   1.527  -1.120  0.00  0.00    +0.270 C 
ENDROOT
BRANCH   2   3
ATOM      3  N   LIG    1       -0.012   1.005   0.008  0.00  0.00    -0.840 NA
ATOM      4  H   LIG    1        0.925   1.379   0.001  0.00  0.00    +0.360 HD
ATOM      5  H   LIG    1        0.002  -0.004   0.002  0.00  0.00    +0.350 HD
ENDBRANCH   2   3
BRANCH   2   6
ATOM      6  C   LIG    1       -2.153   0.960  -1.077  0.00  0.00    +0.210 C 
ATOM      7  N   LIG    1       -3.201   0.523  -1.044  0.00  0.00    -0.420 NA
ENDBRANCH   2   6
TORSDOF 2
