REMARK  Name = ZINCrD00000l4B1p.0
REMARK                            x       y       z     vdW  Elec       q    Type
REMARK                         _______ _______ _______ _____ _____    ______ ____
ROOT
ATOM      1  C   LIG    1       -2.095   5.380  -3.991  0.00  0.00    +0.040 C 
ENDROOT
BRANCH   1   4
ATOM      2  N   LIG    1       -1.581   3.605  -2.346  0.00  0.00    -0.730 N 
ATOM      3  H   LIG    1       -2.171   3.017  -2.844  0.00  0.00    +0.400 HD
ATOM      4  C   LIG    1       -1.392   4.875  -2.757  0.00  0.00    +0.510 C 
ATOM      5  O   LIG    1       -0.655   5.610  -2.135  0.00  0.00    -0.540 OA
BRANCH   2  13
ATOM      6  N   LIG    1       -1.635   1.156   3.315  0.00  0.00    -0.870 N 
ATOM      7  H   LIG    1       -1.845   0.540   4.034  0.00  0.00    +0.420 HD
ATOM      8  H   LIG    1       -1.816   2.103   3.420  0.00  0.00    +0.400 HD
ATOM      9  C   LIG    1       -1.091   0.697   2.171  0.00  0.00    +0.710 C 
ATOM     10  N   LIG    1       -0.707   1.562   1.212  0.00  0.00    -0.630 N 
ATOM     11  C   LIG    1       -0.009   1.086   0.010  0.00  0.00    +0.300 C 
ATOM     12  C   LIG    1       -0.754   1.593  -1.229  0.00  0.00    +0.010 C 
ATOM     13  C   LIG    1       -0.898   3.114  -1.147  0.00  0.00    +0.240 C 
ATOM     14  C   LIG    1       -1.715   3.485   0.093  0.00  0.00    +0.000 C 
ATOM     15  C   LIG    1       -0.980   3.000   1.347  0.00  0.00    +0.270 C 
ATOM     16  O   LIG    1       -0.947  -0.499   2.004  0.00  0.00    -0.590 OA
ENDBRANCH   2  13
ENDBRANCH   1   4
BRANCH   1  17
ATOM     17  C   LIG    1       -1.710   6.840  -4.235  0.00  0.00    +0.040 C 
BRANCH  17  18
ATOM     18  C   LIG    1       -2.424   7.353  -5.487  0.00  0.00    +0.000 C 
BRANCH  18  19
ATOM     19  C   LIG    1       -2.038   8.814  -5.732  0.00  0.00    +0.000 C 
BRANCH  19  20
ATOM     20  C   LIG    1       -2.752   9.327  -6.984  0.00  0.00    +0.010 C 
BRANCH  20  21
ATOM     21  C   LIG    1       -2.367  10.787  -7.228  0.00  0.00    +0.100 C 
BRANCH  21  22
ATOM     22  C   LIG    1       -3.070  11.292  -8.462  0.00  0.00    -0.170 A 
ATOM     23  C   LIG    1       -2.573  11.324  -9.708  0.00  0.00    +0.220 A 
ATOM     24  N   LIG    1       -3.499  11.848 -10.568  0.00  0.00    -0.600 N 
ATOM     25  H   LIG    1       -3.368  11.972 -11.521  0.00  0.00    +0.420 HD
ATOM     26  C   LIG    1       -4.645  12.176  -9.878  0.00  0.00    +0.090 A 
ATOM     27  C   LIG    1       -5.865  12.727 -10.254  0.00  0.00    -0.010 A 
ATOM     28  C   LIG    1       -6.842  12.939  -9.306  0.00  0.00    +0.020 A 
ATOM     29  C   LIG    1       -6.622  12.608  -7.976  0.00  0.00    -0.030 A 
ATOM     30  C   LIG    1       -5.430  12.066  -7.584  0.00  0.00    +0.050 A 
ATOM     31  C   LIG    1       -4.429  11.836  -8.529  0.00  0.00    -0.100 A 
ENDBRANCH  21  22
ENDBRANCH  20  21
ENDBRANCH  19  20
ENDBRANCH  18  19
ENDBRANCH  17  18
ENDBRANCH   1  17
TORSDOF 8
