REMARK  Name = ZINCpe000000Ttyj.0
REMARK                            x       y       z     vdW  Elec       q    Type
REMARK                         _______ _______ _______ _____ _____    ______ ____
ROOT
ATOM      1  C   LIG    1        0.134   1.255  -4.823  0.00  0.00    +0.380 C 
ENDROOT
BRANCH   1   5
ATOM      2  C   LIG    1       -1.439   3.336  -7.856  0.00  0.00    -0.790 A 
ATOM      3  C   LIG    1       -0.323   3.912  -7.407  0.00  0.00    +0.170 A 
ATOM      4  C   LIG    1        0.287   3.258  -6.351  0.00  0.00    +0.010 A 
ATOM      5  C   LIG    1       -0.329   2.146  -5.947  0.00  0.00    -0.180 A 
ATOM      6  S   LIG    1       -1.768   1.882  -6.923  0.00  0.00    +0.240 S 
BRANCH   2   7
ATOM      7  S   LIG    1       -2.432   3.940  -9.180  0.00  0.00    +2.710 S 
ATOM      8  O   LIG    1       -2.169   5.333  -9.276  0.00  0.00    -0.940 OA
ATOM      9  O   LIG    1       -3.735   3.407  -8.980  0.00  0.00    -0.940 OA
BRANCH   7  10
ATOM     10  N   LIG    1       -1.857   3.257 -10.575  0.00  0.00    -0.990 NA
BRANCH  10  12
ATOM     11  C   LIG    1       -3.512   2.236 -12.058  0.00  0.00    +0.010 C 
ATOM     12  C   LIG    1       -2.398   1.978 -11.041  0.00  0.00    +0.280 C 
ENDBRANCH  10  12
BRANCH  10  13
ATOM     13  C   LIG    1       -0.808   3.933 -11.342  0.00  0.00    +0.290 C 
ATOM     14  C   LIG    1        0.558   3.375 -10.938  0.00  0.00    +0.000 C 
ENDBRANCH  10  13
ENDBRANCH   7  10
ENDBRANCH   2   7
ENDBRANCH   1   5
BRANCH   1  15
ATOM     15  N   LIG    1       -0.459   1.710  -3.564  0.00  0.00    -0.720 N 
ATOM     16  H   LIG    1       -1.050   2.479  -3.556  0.00  0.00    +0.400 HD
ATOM     17  C   LIG    1       -0.185   1.059  -2.416  0.00  0.00    +0.490 C 
ATOM     18  O   LIG    1        0.554   0.097  -2.425  0.00  0.00    -0.520 OA
BRANCH  17  19
ATOM     19  C   LIG    1       -0.795   1.527  -1.120  0.00  0.00    +0.260 C 
BRANCH  19  20
ATOM     20  C   LIG    1       -2.213   1.024  -1.022  0.00  0.00    +0.080 A 
ATOM     21  C   LIG    1       -2.599  -0.188  -0.561  0.00  0.00    -0.090 A 
ATOM     22  C   LIG    1       -3.994  -0.253  -0.637  0.00  0.00    +0.240 A 
ATOM     23  N   LIG    1       -4.430   0.879  -1.127  0.00  0.00    -0.280 NA
ATOM     24  N   LIG    1       -3.324   1.704  -1.373  0.00  0.00    -0.370 N 
ATOM     25  C   LIG    1       -3.367   3.063  -1.918  0.00  0.00    +0.350 C 
ENDBRANCH  19  20
BRANCH  19  26
ATOM     26  N   LIG    1       -0.012   1.005   0.008  0.00  0.00    -0.810 NA
ATOM     27  H   LIG    1        0.925   1.379   0.001  0.00  0.00    +0.360 HD
ATOM     28  H   LIG    1        0.002  -0.004   0.002  0.00  0.00    +0.360 HD
ENDBRANCH  19  26
ENDBRANCH  17  19
ENDBRANCH   1  15
TORSDOF 9
