REMARK  Name = ZINCAx00000009n7.0
REMARK                            x       y       z     vdW  Elec       q    Type
REMARK                         _______ _______ _______ _____ _____    ______ ____
ROOT
ATOM      1  O   LIG    1       -3.681   2.018   6.264  0.00  0.00    -0.500 OA
ATOM      2  C   LIG    1       -4.058   1.021   5.678  0.00  0.00    +0.600 C 
ATOM      3  N   LIG    1       -3.803   0.876   4.363  0.00  0.00    -0.660 N 
ATOM      4  H   LIG    1       -4.168   0.119   3.879  0.00  0.00    +0.420 HD
ENDROOT
BRANCH   2   5
ATOM      5  C   LIG    1       -4.793  -0.030   6.408  0.00  0.00    +0.050 A 
ATOM      6  N   LIG    1       -5.202  -1.108   5.784  0.00  0.00    -0.190 NA
ATOM      7  N   LIG    1       -5.844  -2.063   6.343  0.00  0.00    -0.350 N 
ATOM      8  C   LIG    1       -6.178  -2.073   7.650  0.00  0.00    +0.520 A 
ATOM      9  C   LIG    1       -5.785  -0.926   8.481  0.00  0.00    -0.140 A 
ATOM     10  C   LIG    1       -6.080  -0.840   9.837  0.00  0.00    +0.090 A 
ATOM     11  C   LIG    1       -5.661   0.263  10.551  0.00  0.00    +0.030 A 
ATOM     12  C   LIG    1       -4.965   1.290   9.927  0.00  0.00    +0.060 A 
ATOM     13  C   LIG    1       -4.667   1.225   8.582  0.00  0.00    +0.070 A 
ATOM     14  O   LIG    1       -6.790  -3.009   8.130  0.00  0.00    -0.490 OA
ATOM     15  C   LIG    1       -5.071   0.117   7.846  0.00  0.00    -0.030 A 
BRANCH   7  16
ATOM     16  C   LIG    1       -6.238  -3.209   5.519  0.00  0.00    +0.380 C 
BRANCH  16  17
ATOM     17  C   LIG    1       -7.601  -2.957   4.927  0.00  0.00    -0.130 A 
ATOM     18  C   LIG    1       -8.735  -3.358   5.608  0.00  0.00    +0.040 A 
ATOM     19  C   LIG    1       -9.985  -3.123   5.067  0.00  0.00    +0.010 A 
ATOM     20  C   LIG    1      -10.101  -2.495   3.841  0.00  0.00    +0.020 A 
ATOM     21  C   LIG    1       -8.967  -2.099   3.158  0.00  0.00    +0.010 A 
ATOM     22  C   LIG    1       -7.717  -2.329   3.700  0.00  0.00    +0.040 A 
ENDBRANCH  16  17
ENDBRANCH   7  16
ENDBRANCH   2   5
BRANCH   3  23
ATOM     23  C   LIG    1       -3.012   1.817   3.696  0.00  0.00    +0.130 A 
ATOM     24  C   LIG    1       -1.970   2.448   4.363  0.00  0.00    +0.090 A 
ATOM     25  C   LIG    1       -1.191   3.377   3.701  0.00  0.00    +0.020 A 
ATOM     26  C   LIG    1       -1.448   3.679   2.377  0.00  0.00    +0.110 A 
ATOM     27  C   LIG    1       -2.485   3.053   1.710  0.00  0.00    -0.660 A 
ATOM     28  C   LIG    1       -3.271   2.127   2.367  0.00  0.00    +0.100 A 
BRANCH  27  29
ATOM     29  S   LIG    1       -2.809   3.442   0.022  0.00  0.00    +2.690 S 
ATOM     30  O   LIG    1       -4.172   3.114  -0.211  0.00  0.00    -0.950 OA
ATOM     31  O   LIG    1       -2.273   4.740  -0.200  0.00  0.00    -0.950 OA
BRANCH  29  32
ATOM     32  N   LIG    1       -1.912   2.401  -0.902  0.00  0.00    -1.000 NA
ATOM     33  C   LIG    1       -0.546   2.748  -1.325  0.00  0.00    +0.280 C 
ATOM     34  C   LIG    1        0.379   1.575  -0.980  0.00  0.00    +0.220 C 
ATOM     35  O   LIG    1       -0.167   0.371  -1.523  0.00  0.00    -0.370 OA
ATOM     36  C   LIG    1       -1.442   0.012  -0.986  0.00  0.00    +0.220 C 
ATOM     37  C   LIG    1       -2.460   1.105  -1.330  0.00  0.00    +0.280 C 
ENDBRANCH  29  32
ENDBRANCH  27  29
ENDBRANCH   3  23
TORSDOF 6
