REMARK  Name = ZINCpe000000RDWj.0
REMARK                            x       y       z     vdW  Elec       q    Type
REMARK                         _______ _______ _______ _____ _____    ______ ____
ROOT
ATOM      1  N   LIG    1       -2.219   1.522  -3.503  0.00  0.00    -0.520 NA
ATOM      2  C   LIG    1       -0.876   2.102  -3.360  0.00  0.00    +0.190 C 
ATOM      3  C   LIG    1       -0.261   1.637  -2.037  0.00  0.00    +0.190 C 
ATOM      4  N   LIG    1       -1.131   2.047  -0.925  0.00  0.00    -0.520 NA
ATOM      5  C   LIG    1       -2.473   1.466  -1.069  0.00  0.00    +0.200 C 
ATOM      6  C   LIG    1       -3.088   1.931  -2.391  0.00  0.00    +0.190 C 
ENDROOT
BRANCH   1   7
ATOM      7  C   LIG    1       -2.813   1.884  -4.797  0.00  0.00    +0.220 C 
BRANCH   7   9
ATOM      8  O   LIG    1       -4.434   0.286  -4.175  0.00  0.00    -0.490 OA
ATOM      9  C   LIG    1       -4.070   1.082  -5.015  0.00  0.00    +0.520 C 
ATOM     10  N   LIG    1       -4.788   1.248  -6.143  0.00  0.00    -0.680 N 
ATOM     11  H   LIG    1       -4.540   1.937  -6.779  0.00  0.00    +0.420 HD
BRANCH  10  12
ATOM     12  C   LIG    1       -5.893   0.426  -6.396  0.00  0.00    +0.170 A 
ATOM     13  C   LIG    1       -5.888  -0.896  -5.973  0.00  0.00    +0.050 A 
ATOM     14  C   LIG    1       -6.980  -1.705  -6.219  0.00  0.00    +0.050 A 
ATOM     15  C   LIG    1       -8.076  -1.202  -6.898  0.00  0.00    +0.050 A 
ATOM     16  C   LIG    1       -8.083   0.117  -7.327  0.00  0.00    +0.090 A 
ATOM     17  F   LIG    1       -9.153   0.606  -7.990  0.00  0.00    -0.120 F 
ATOM     18  F   LIG    1       -9.141  -1.997  -7.143  0.00  0.00    -0.130 F 
ATOM     19  C   LIG    1       -6.993   0.930  -7.077  0.00  0.00    -0.010 A 
ENDBRANCH  10  12
ENDBRANCH   7   9
ENDBRANCH   1   7
BRANCH   4  20
ATOM     20  C   LIG    1       -0.536   1.684   0.368  0.00  0.00    +0.220 C 
BRANCH  20  21
ATOM     21  C   LIG    1       -1.323   2.329   1.481  0.00  0.00    +0.520 C 
ATOM     22  N   LIG    1       -0.959   2.135   2.764  0.00  0.00    -0.710 N 
ATOM     23  H   LIG    1       -0.190   1.581   2.971  0.00  0.00    +0.400 HD
ATOM     24  O   LIG    1       -2.284   3.022   1.221  0.00  0.00    -0.520 OA
BRANCH  22  25
ATOM     25  C   LIG    1       -1.723   2.762   3.845  0.00  0.00    +0.220 C 
ATOM     26  C   LIG    1       -0.934   3.414   4.982  0.00  0.00    +0.010 C 
ATOM     27  C   LIG    1       -1.675   2.096   5.222  0.00  0.00    +0.010 C 
ENDBRANCH  22  25
ENDBRANCH  20  21
ENDBRANCH   4  20
TORSDOF 6
