REMARK  Name = ZINCpe000000YhSB.0
REMARK                            x       y       z     vdW  Elec       q    Type
REMARK                         _______ _______ _______ _____ _____    ______ ____
ROOT
ATOM      1  N   LIG    1       -0.225   2.882   1.706  0.00  0.00    -0.720 N 
ATOM      2  H   LIG    1        0.242   3.460   1.082  0.00  0.00    +0.400 HD
ATOM      3  C   LIG    1       -0.368   3.255   2.993  0.00  0.00    +0.490 C 
ATOM      4  O   LIG    1       -0.952   2.532   3.772  0.00  0.00    -0.520 OA
ENDROOT
BRANCH   1   7
ATOM      5  N   LIG    1       -0.759   1.590  -1.151  0.00  0.00    -0.540 N 
ATOM      6  C   LIG    1       -0.013   1.086   0.008  0.00  0.00    +0.290 C 
ATOM      7  C   LIG    1       -0.775   1.603   1.248  0.00  0.00    +0.260 C 
ATOM      8  C   LIG    1       -2.205   1.785   0.683  0.00  0.00    +0.070 C 
ATOM      9  C   LIG    1       -1.996   1.984  -0.801  0.00  0.00    +0.510 C 
ATOM     10  O   LIG    1       -2.823   2.434  -1.566  0.00  0.00    -0.520 OA
BRANCH   5  14
ATOM     11  C   LIG    1       -0.359   2.385  -5.997  0.00  0.00    +0.360 C 
ATOM     12  N   LIG    1       -0.060   2.003  -4.615  0.00  0.00    -0.370 N 
ATOM     13  C   LIG    1       -0.905   2.107  -3.556  0.00  0.00    +0.230 A 
ATOM     14  C   LIG    1       -0.245   1.653  -2.460  0.00  0.00    +0.000 A 
ATOM     15  C   LIG    1        1.036   1.253  -2.865  0.00  0.00    +0.230 A 
ATOM     16  N   LIG    1        1.146   1.462  -4.151  0.00  0.00    -0.280 NA
ENDBRANCH   5  14
ENDBRANCH   1   7
BRANCH   3  17
ATOM     17  C   LIG    1        0.198   4.570   3.463  0.00  0.00    +0.230 C 
BRANCH  17  18
ATOM     18  O   LIG    1       -0.180   4.792   4.824  0.00  0.00    -0.530 OA
ATOM     19  H   LIG    1        0.134   4.111   5.435  0.00  0.00    +0.380 HD
ENDBRANCH  17  18
BRANCH  17  20
ATOM     20  C   LIG    1        1.724   4.536   3.357  0.00  0.00    +0.070 C 
BRANCH  20  21
ATOM     21  C   LIG    1        2.282   5.890   3.711  0.00  0.00    -0.070 A 
ATOM     22  C   LIG    1        2.611   6.182   5.021  0.00  0.00    +0.030 A 
ATOM     23  C   LIG    1        3.123   7.424   5.346  0.00  0.00    +0.030 A 
ATOM     24  C   LIG    1        3.307   8.375   4.360  0.00  0.00    +0.020 A 
ATOM     25  C   LIG    1        2.979   8.084   3.048  0.00  0.00    -0.030 A 
ATOM     26 CL   LIG    1        3.209   9.278   1.810  0.00  0.00    -0.070 Cl
ATOM     27  C   LIG    1        2.471   6.839   2.723  0.00  0.00    +0.020 A 
ENDBRANCH  20  21
ENDBRANCH  17  20
ENDBRANCH   3  17
TORSDOF 6
