REMARK  Name = ZINCqH000000736E.0
REMARK                            x       y       z     vdW  Elec       q    Type
REMARK                         _______ _______ _______ _____ _____    ______ ____
ROOT
ATOM      1  C   LIG    1       -2.706   0.481   2.208  0.00  0.00    +0.570 C 
ATOM      2  N   LIG    1       -2.115   0.880   1.064  0.00  0.00    -0.600 N 
ATOM      3  C   LIG    1       -0.651   0.953   0.964  0.00  0.00    +0.270 C 
ATOM      4  C   LIG    1       -0.199   0.141  -0.254  0.00  0.00    +0.040 C 
ATOM      5  C   LIG    1       -0.940   0.640  -1.497  0.00  0.00    +0.040 C 
ATOM      6  C   LIG    1       -2.445   0.435  -1.312  0.00  0.00    +0.090 C 
ATOM      7  C   LIG    1       -2.923   1.250  -0.106  0.00  0.00    +0.290 C 
ATOM      8  O   LIG    1       -3.919   0.490   2.301  0.00  0.00    -0.520 OA
ENDROOT
BRANCH   6   9
ATOM      9  C   LIG    1       -3.171   0.896  -2.550  0.00  0.00    +0.290 A 
ATOM     10  N   LIG    1       -3.530   0.125  -3.534  0.00  0.00    -0.480 NA
ATOM     11  C   LIG    1       -4.161   0.861  -4.485  0.00  0.00    +0.050 A 
ATOM     12  C   LIG    1       -4.737   0.551  -5.719  0.00  0.00    +0.070 A 
ATOM     13  C   LIG    1       -5.313   1.538  -6.469  0.00  0.00    +0.000 A 
ATOM     14  C   LIG    1       -5.333   2.850  -6.017  0.00  0.00    +0.030 A 
ATOM     15  C   LIG    1       -4.769   3.179  -4.803  0.00  0.00    +0.010 A 
ATOM     16  C   LIG    1       -4.180   2.190  -4.027  0.00  0.00    +0.050 A 
ATOM     17  N   LIG    1       -3.552   2.179  -2.798  0.00  0.00    -0.600 N 
ATOM     18  H   LIG    1       -3.406   2.944  -2.220  0.00  0.00    +0.420 HD
ENDBRANCH   6   9
BRANCH   1  22
ATOM     19  C   LIG    1       -0.333  -0.807   5.487  0.00  0.00    +0.120 A 
ATOM     20  C   LIG    1       -0.059   0.405   4.867  0.00  0.00    -0.040 A 
ATOM     21  C   LIG    1       -0.827   0.826   3.803  0.00  0.00    +0.080 A 
ATOM     22  C   LIG    1       -1.882   0.033   3.347  0.00  0.00    -0.140 A 
ATOM     23  C   LIG    1       -2.159  -1.185   3.976  0.00  0.00    +0.090 A 
ATOM     24  C   LIG    1       -1.383  -1.602   5.036  0.00  0.00    +0.070 A 
ATOM     25  F   LIG    1       -1.646  -2.781   5.642  0.00  0.00    -0.120 F 
BRANCH  19  27
ATOM     26  C   LIG    1        1.487  -0.354   6.946  0.00  0.00    +0.250 C 
ATOM     27  O   LIG    1        0.426  -1.218   6.535  0.00  0.00    -0.300 OA
ENDBRANCH  19  27
ENDBRANCH   1  22
TORSDOF 3
