REMARK  Name = ZINCrg000000nQ5h.0
REMARK                            x       y       z     vdW  Elec       q    Type
REMARK                         _______ _______ _______ _____ _____    ______ ____
ROOT
ATOM      1  C   LIG    1       10.029  -0.062  -2.878  0.00  0.00    -0.630 A 
ATOM      2  C   LIG    1       10.314  -0.528  -4.155  0.00  0.00    +0.110 A 
ATOM      3  C   LIG    1        9.314  -0.761  -5.053  0.00  0.00    +0.110 A 
ATOM      4  C   LIG    1        7.981  -0.530  -4.689  0.00  0.00    +0.040 A 
ATOM      5  N   LIG    1        6.811  -0.665  -5.346  0.00  0.00    -0.200 NA
ATOM      6  N   LIG    1        5.830  -0.330  -4.584  0.00  0.00    +0.010 NA
ATOM      7  N   LIG    1        6.325   0.071  -3.334  0.00  0.00    -0.260 N 
ATOM      8  C   LIG    1        7.692  -0.059  -3.397  0.00  0.00    +0.090 A 
ATOM      9  C   LIG    1        8.727   0.172  -2.496  0.00  0.00    +0.170 A 
ENDROOT
BRANCH   1  10
ATOM     10  S   LIG    1       11.341   0.229  -1.739  0.00  0.00    +2.690 S 
ATOM     11  O   LIG    1       12.428  -0.582  -2.163  0.00  0.00    -0.940 OA
ATOM     12  O   LIG    1       10.770   0.147  -0.440  0.00  0.00    -0.940 OA
BRANCH  10  13
ATOM     13  N   LIG    1       11.824   1.800  -1.939  0.00  0.00    -0.990 NA
BRANCH  13  15
ATOM     14  C   LIG    1       12.041   3.147   0.090  0.00  0.00    +0.010 C 
ATOM     15  C   LIG    1       11.196   2.865  -1.153  0.00  0.00    +0.280 C 
ENDBRANCH  13  15
BRANCH  13  16
ATOM     16  C   LIG    1       12.879   2.126  -2.902  0.00  0.00    +0.300 C 
ATOM     17  C   LIG    1       12.245   2.534  -4.234  0.00  0.00    +0.010 C 
ENDBRANCH  13  16
ENDBRANCH  10  13
ENDBRANCH   1  10
BRANCH   7  18
ATOM     18  O   LIG    1        5.566   0.516  -2.225  0.00  0.00    -0.080 OA
BRANCH  18  19
ATOM     19  C   LIG    1        4.157   0.546  -2.460  0.00  0.00    +0.230 C 
BRANCH  19  20
ATOM     20  C   LIG    1        3.452   1.032  -1.220  0.00  0.00    +0.530 C 
ATOM     21  N   LIG    1        2.108   1.143  -1.208  0.00  0.00    -0.720 N 
ATOM     22  H   LIG    1        1.596   0.910  -1.998  0.00  0.00    +0.400 HD
ATOM     23  O   LIG    1        4.093   1.324  -0.232  0.00  0.00    -0.510 OA
BRANCH  21  24
ATOM     24  C   LIG    1        1.423   1.615  -0.003  0.00  0.00    +0.240 C 
ATOM     25  C   LIG    1        1.402   3.145   0.006  0.00  0.00    +0.020 C 
BRANCH  24  26
ATOM     26  C   LIG    1       -0.013   1.086   0.008  0.00  0.00    -0.020 C 
ATOM     27  C   LIG    1       -0.729   1.579   1.267  0.00  0.00    +0.030 C 
ATOM     28  C   LIG    1       -0.753   1.593  -1.232  0.00  0.00    +0.020 C 
ENDBRANCH  24  26
ENDBRANCH  21  24
ENDBRANCH  19  20
ENDBRANCH  18  19
ENDBRANCH   7  18
TORSDOF 9
