REMARK  Name = ZINCtV000002OGUx.0
REMARK                            x       y       z     vdW  Elec       q    Type
REMARK                         _______ _______ _______ _____ _____    ______ ____
ROOT
ATOM      1  O   LIG    1       -0.019  -0.028  -0.329  0.00  0.00    -0.470 OA
ATOM      2  C   LIG    1       -0.023   1.188  -0.323  0.00  0.00    +0.560 C 
ATOM      3  N   LIG    1        1.130   1.867  -0.485  0.00  0.00    -0.620 N 
ATOM      4  H   LIG    1        1.127   2.837  -0.481  0.00  0.00    +0.420 HD
ENDROOT
BRANCH   2   5
ATOM      5  C   LIG    1       -1.291   1.920  -0.145  0.00  0.00    -0.150 A 
ATOM      6  C   LIG    1       -1.300   3.317  -0.139  0.00  0.00    +0.070 A 
ATOM      7  C   LIG    1       -2.489   3.995   0.028  0.00  0.00    +0.020 A 
ATOM      8  C   LIG    1       -3.675   3.298   0.188  0.00  0.00    +0.070 A 
ATOM      9  C   LIG    1       -3.680   1.917   0.183  0.00  0.00    +0.010 A 
ATOM     10  C   LIG    1       -2.494   1.218   0.012  0.00  0.00    +0.150 A 
BRANCH  10  11
ATOM     11  O   LIG    1       -2.499  -0.138   0.002  0.00  0.00    -0.250 OA
BRANCH  11  12
ATOM     12  C   LIG    1       -2.278  -0.786   1.176  0.00  0.00    +0.140 A 
ATOM     13  C   LIG    1       -2.169  -0.066   2.357  0.00  0.00    -0.080 A 
ATOM     14  C   LIG    1       -1.950  -0.727   3.550  0.00  0.00    +0.040 A 
ATOM     15  C   LIG    1       -1.829  -2.104   3.566  0.00  0.00    -0.030 A 
ATOM     16  C   LIG    1       -1.931  -2.824   2.389  0.00  0.00    +0.050 A 
ATOM     17  C   LIG    1       -2.155  -2.168   1.195  0.00  0.00    -0.010 A 
ENDBRANCH  11  12
ENDBRANCH  10  11
ENDBRANCH   2   5
BRANCH   3  18
ATOM     18  C   LIG    1        2.323   1.177  -0.658  0.00  0.00    +0.280 A 
ATOM     19  N   LIG    1        3.488   1.724  -0.823  0.00  0.00    -0.500 NA
ATOM     20  C   LIG    1        4.520   0.906  -0.973  0.00  0.00    +0.110 A 
ATOM     21  C   LIG    1        4.227  -0.406  -0.935  0.00  0.00    -0.090 A 
ATOM     22  S   LIG    1        2.491  -0.576  -0.681  0.00  0.00    +0.220 S 
BRANCH  20  23
ATOM     23  C   LIG    1        5.904   1.404  -1.168  0.00  0.00    -0.020 A 
ATOM     24  C   LIG    1        6.156   2.774  -1.199  0.00  0.00    +0.050 A 
ATOM     25  C   LIG    1        7.447   3.232  -1.381  0.00  0.00    +0.090 A 
ATOM     26  C   LIG    1        8.490   2.332  -1.532  0.00  0.00    +0.030 A 
ATOM     27  C   LIG    1        8.245   0.971  -1.501  0.00  0.00    +0.030 A 
ATOM     28  F   LIG    1        7.694   4.560  -1.412  0.00  0.00    -0.130 F 
ATOM     29  C   LIG    1        6.959   0.502  -1.315  0.00  0.00    +0.100 A 
ATOM     30  F   LIG    1        6.722  -0.828  -1.280  0.00  0.00    -0.120 F 
ENDBRANCH  20  23
ENDBRANCH   3  18
TORSDOF 5
