REMARK  Name = ZINCrD000000DfWa.0
REMARK                            x       y       z     vdW  Elec       q    Type
REMARK                         _______ _______ _______ _____ _____    ______ ____
ROOT
ATOM      1  C   LIG    1        4.824   5.000  -0.042  0.00  0.00    +0.360 C 
ENDROOT
BRANCH   1   2
ATOM      2  C   LIG    1        5.630   6.273  -0.035  0.00  0.00    -0.110 A 
ATOM      3  C   LIG    1        6.140   6.772  -1.219  0.00  0.00    +0.070 A 
ATOM      4  C   LIG    1        6.875   7.942  -1.218  0.00  0.00    -0.030 A 
ATOM      5  C   LIG    1        7.111   8.611  -0.027  0.00  0.00    +0.100 A 
ATOM      6  C   LIG    1        6.601   8.106   1.163  0.00  0.00    +0.080 A 
ATOM      7  F   LIG    1        6.829   8.754   2.326  0.00  0.00    -0.130 F 
ATOM      8  C   LIG    1        5.862   6.937   1.155  0.00  0.00    +0.060 A 
BRANCH   5   9
ATOM      9  O   LIG    1        7.838   9.760  -0.022  0.00  0.00    -0.240 OA
BRANCH   9  10
ATOM     10  C   LIG    1        8.223  10.275  -1.220  0.00  0.00    +0.040 A 
ATOM     11  C   LIG    1        9.471   9.968  -1.740  0.00  0.00    +0.050 A 
ATOM     12  C   LIG    1        9.861  10.493  -2.957  0.00  0.00    +0.020 A 
ATOM     13  C   LIG    1        9.008  11.325  -3.658  0.00  0.00    +0.060 A 
ATOM     14  C   LIG    1        7.762  11.634  -3.143  0.00  0.00    +0.010 A 
ATOM     15  C   LIG    1        7.365  11.108  -1.928  0.00  0.00    +0.090 A 
ATOM     16  F   LIG    1        6.146  11.406  -1.427  0.00  0.00    -0.130 F 
ENDBRANCH   9  10
ENDBRANCH   5   9
ENDBRANCH   1   2
BRANCH   1  17
ATOM     17  N   LIG    1        3.406   5.320  -0.227  0.00  0.00    -0.680 N 
ATOM     18  H   LIG    1        3.126   6.244  -0.322  0.00  0.00    +0.410 HD
BRANCH  17  22
ATOM     19  O   LIG    1        2.408   0.884  -0.041  0.00  0.00    -0.530 OA
ATOM     20  C   LIG    1        2.027   2.038  -0.163  0.00  0.00    +0.580 A 
ATOM     21  N   LIG    1        2.892   3.063  -0.133  0.00  0.00    -0.680 NA
ATOM     22  C   LIG    1        2.471   4.310  -0.266  0.00  0.00    +0.670 A 
ATOM     23  N   LIG    1        1.196   4.640  -0.435  0.00  0.00    -0.650 NA
ATOM     24  C   LIG    1        0.244   3.725  -0.483  0.00  0.00    +0.490 A 
ATOM     25  N   LIG    1       -1.117   3.762  -0.642  0.00  0.00    -0.470 N 
ATOM     26  H   LIG    1       -1.657   4.560  -0.758  0.00  0.00    +0.460 HD
ATOM     27  N   LIG    1       -1.591   2.444  -0.612  0.00  0.00    -0.440 N 
ATOM     28  H   LIG    1       -2.519   2.177  -0.705  0.00  0.00    +0.460 HD
ATOM     29  C   LIG    1       -0.553   1.607  -0.430  0.00  0.00    +0.470 A 
ATOM     30  C   LIG    1        0.604   2.355  -0.348  0.00  0.00    -0.390 A 
ENDBRANCH  17  22
ENDBRANCH   1  17
TORSDOF 5
