REMARK  Name = ZINCqH0000007PVA.0
REMARK                            x       y       z     vdW  Elec       q    Type
REMARK                         _______ _______ _______ _____ _____    ______ ____
ROOT
ATOM      1  C   LIG    1       -0.507   4.619  -1.388  0.00  0.00    +0.280 A 
ATOM      2  N   LIG    1       -1.642   5.234  -1.510  0.00  0.00    -0.470 NA
ATOM      3  C   LIG    1       -2.082   5.438  -2.737  0.00  0.00    +0.110 A 
ATOM      4  C   LIG    1       -1.286   4.964  -3.698  0.00  0.00    -0.070 A 
ATOM      5  S   LIG    1        0.114   4.220  -2.929  0.00  0.00    +0.160 S 
ENDROOT
BRANCH   1   6
ATOM      6  N   LIG    1        0.112   4.322  -0.178  0.00  0.00    -0.470 N 
ATOM      7  C   LIG    1       -0.416   4.772   0.978  0.00  0.00    +0.520 C 
ATOM      8  O   LIG    1       -1.479   5.356   0.972  0.00  0.00    -0.470 OA
ATOM      9  C   LIG    1        0.314   4.549   2.277  0.00  0.00    +0.110 C 
BRANCH   6  15
ATOM     10  C   LIG    1        1.212   2.167  -0.062  0.00  0.00    +0.150 A 
ATOM     11  C   LIG    1        2.375   1.415  -0.039  0.00  0.00    -0.060 A 
ATOM     12  C   LIG    1        3.605   2.041  -0.125  0.00  0.00    +0.080 A 
ATOM     13  C   LIG    1        3.679   3.418  -0.223  0.00  0.00    -0.010 A 
ATOM     14  C   LIG    1        2.523   4.176  -0.241  0.00  0.00    +0.080 A 
ATOM     15  C   LIG    1        1.286   3.555  -0.160  0.00  0.00    +0.060 A 
BRANCH  10  17
ATOM     16  C   LIG    1        0.003   0.128   0.117  0.00  0.00    +0.250 C 
ATOM     17  O   LIG    1        0.002   1.553   0.018  0.00  0.00    -0.310 OA
ENDBRANCH  10  17
ENDBRANCH   6  15
ENDBRANCH   1   6
BRANCH   3  18
ATOM     18  C   LIG    1       -3.381   6.143  -3.030  0.00  0.00    +0.160 C 
BRANCH  18  19
ATOM     19  S   LIG    1       -4.727   4.929  -3.093  0.00  0.00    +0.040 S 
BRANCH  19  20
ATOM     20  C   LIG    1       -6.141   5.923  -3.439  0.00  0.00    +0.070 C 
ATOM     21  C   LIG    1       -5.972   7.220  -3.910  0.00  0.00    +0.020 C 
ATOM     22  C   LIG    1       -7.091   7.989  -4.179  0.00  0.00    +0.100 C 
ATOM     23  C   LIG    1       -8.345   7.433  -3.967  0.00  0.00    +0.040 C 
ATOM     24  C   LIG    1       -8.439   6.137  -3.497  0.00  0.00    +0.280 C 
ATOM     25  N   LIG    1       -7.355   5.425  -3.254  0.00  0.00    -0.110 NA
ATOM     26  O   LIG    1       -7.492   4.098  -2.779  0.00  0.00    -0.530 OA
ENDBRANCH  19  20
ENDBRANCH  18  19
ENDBRANCH   3  18
TORSDOF 6
