REMARK  Name = ZINCrD00000hQ5XN.0
REMARK                            x       y       z     vdW  Elec       q    Type
REMARK                         _______ _______ _______ _____ _____    ______ ____
ROOT
ATOM      1  O   LIG    1       -6.915   0.966   4.608  0.00  0.00    -0.520 OA
ATOM      2  C   LIG    1       -6.335  -0.101   4.541  0.00  0.00    +0.600 C 
ATOM      3  N   LIG    1       -5.349  -0.277   3.640  0.00  0.00    -0.710 N 
ATOM      4  H   LIG    1       -4.887  -1.128   3.587  0.00  0.00    +0.400 HD
ENDROOT
BRANCH   2   5
ATOM      5  C   LIG    1       -6.711  -1.200   5.445  0.00  0.00    -0.270 A 
ATOM      6  C   LIG    1       -7.688  -1.199   6.421  0.00  0.00    +0.090 A 
ATOM      7  C   LIG    1       -7.750  -2.421   7.071  0.00  0.00    +0.130 A 
ATOM      8  N   LIG    1       -6.920  -3.350   6.688  0.00  0.00    -0.510 NA
ATOM      9  S   LIG    1       -6.018  -2.827   5.524  0.00  0.00    +0.440 S 
BRANCH   7  10
ATOM     10  C   LIG    1       -8.726  -2.664   8.163  0.00  0.00    -0.040 A 
ATOM     11  C   LIG    1       -9.599  -1.652   8.557  0.00  0.00    +0.070 A 
ATOM     12  C   LIG    1      -10.509  -1.884   9.568  0.00  0.00    -0.010 A 
ATOM     13  C   LIG    1      -10.547  -3.117  10.199  0.00  0.00    +0.110 A 
ATOM     14  C   LIG    1       -9.676  -4.123   9.815  0.00  0.00    -0.020 A 
ATOM     15  F   LIG    1      -11.435  -3.337  11.193  0.00  0.00    -0.140 F 
ATOM     16  C   LIG    1       -8.767  -3.902   8.800  0.00  0.00    +0.090 A 
ENDBRANCH   7  10
ENDBRANCH   2   5
BRANCH   3  17
ATOM     17  C   LIG    1       -4.975   0.817   2.740  0.00  0.00    +0.240 C 
ATOM     18  C   LIG    1       -3.881   1.695   3.389  0.00  0.00    +0.020 C 
ATOM     19  C   LIG    1       -2.951   2.027   2.195  0.00  0.00    +0.180 C 
ATOM     20  N   LIG    1       -2.947   0.769   1.406  0.00  0.00    -0.510 NA
ATOM     21  C   LIG    1       -4.334   0.258   1.456  0.00  0.00    +0.180 C 
BRANCH  20  22
ATOM     22  C   LIG    1       -2.528   1.018   0.020  0.00  0.00    +0.220 C 
BRANCH  22  23
ATOM     23  C   LIG    1       -1.218   1.762   0.017  0.00  0.00    -0.040 A 
ATOM     24  C   LIG    1       -0.013   1.076   0.008  0.00  0.00    -0.010 A 
ATOM     25  C   LIG    1        1.170   1.792   0.001  0.00  0.00    +0.260 A 
ATOM     26  N   LIG    1        1.160   3.110   0.007  0.00  0.00    -0.480 NA
ATOM     27  C   LIG    1        0.033   3.795   0.021  0.00  0.00    +0.260 A 
ATOM     28  C   LIG    1       -1.188   3.148   0.030  0.00  0.00    -0.040 A 
ENDBRANCH  22  23
ENDBRANCH  20  22
ENDBRANCH   3  17
TORSDOF 5
