REMARK  Name = ZINCrH00000tj1lo.0
REMARK                            x       y       z     vdW  Elec       q    Type
REMARK                         _______ _______ _______ _____ _____    ______ ____
ROOT
ATOM      1  C   LIG    1        3.928   1.259   2.682  0.00  0.00    +0.250 C 
ENDROOT
BRANCH   1   2
ATOM      2  C   LIG    1        2.631   0.522   2.466  0.00  0.00    +0.520 C 
ATOM      3  N   LIG    1        1.689   1.039   1.652  0.00  0.00    -0.720 N 
ATOM      4  H   LIG    1        1.847   1.885   1.204  0.00  0.00    +0.400 HD
ATOM      5  O   LIG    1        2.434  -0.536   3.026  0.00  0.00    -0.510 OA
BRANCH   3   6
ATOM      6  C   LIG    1        0.429   0.323   1.442  0.00  0.00    +0.230 C 
ATOM      7  C   LIG    1       -0.553   0.680   2.561  0.00  0.00    +0.020 C 
BRANCH   6   8
ATOM      8  C   LIG    1       -0.168   0.726   0.092  0.00  0.00    +0.030 C 
BRANCH   8   9
ATOM      9  C   LIG    1        0.755   0.258  -1.034  0.00  0.00    +0.060 C 
BRANCH   9  10
ATOM     10  C   LIG    1        0.168   0.655  -2.364  0.00  0.00    -0.080 A 
ATOM     11  C   LIG    1       -0.687  -0.207  -3.026  0.00  0.00    +0.000 A 
ATOM     12  C   LIG    1       -1.230   0.159  -4.244  0.00  0.00    +0.000 A 
ATOM     13  C   LIG    1       -0.910   1.382  -4.803  0.00  0.00    +0.000 A 
ATOM     14  C   LIG    1       -0.052   2.241  -4.143  0.00  0.00    +0.000 A 
ATOM     15  C   LIG    1        0.487   1.877  -2.923  0.00  0.00    +0.000 A 
ENDBRANCH   9  10
ENDBRANCH   8   9
ENDBRANCH   6   8
ENDBRANCH   3   6
ENDBRANCH   1   2
BRANCH   1  16
ATOM     16  O   LIG    1        4.768   0.503   3.594  0.00  0.00    -0.330 OA
BRANCH  16  17
ATOM     17  C   LIG    1        5.972   1.028   3.894  0.00  0.00    +0.550 C 
ATOM     18  O   LIG    1        6.311   2.089   3.406  0.00  0.00    -0.520 OA
BRANCH  17  22
ATOM     19  C   LIG    1        7.921  -2.442   7.085  0.00  0.00    +0.140 C 
ATOM     20  C   LIG    1        7.721  -1.225   6.218  0.00  0.00    +0.010 A 
ATOM     21  C   LIG    1        6.625  -0.961   5.487  0.00  0.00    +0.010 A 
ATOM     22  C   LIG    1        6.877   0.317   4.810  0.00  0.00    -0.230 A 
ATOM     23  C   LIG    1        8.132   0.718   5.215  0.00  0.00    +0.130 A 
ATOM     24  C   LIG    1        8.836   1.982   4.790  0.00  0.00    +0.150 C 
ATOM     25  N   LIG    1        8.621  -0.214   6.054  0.00  0.00    -0.410 N 
BRANCH  25  26
ATOM     26  C   LIG    1        9.935  -0.150   6.700  0.00  0.00    +0.180 C 
ATOM     27  C   LIG    1        9.997  -0.428   8.203  0.00  0.00    +0.060 C 
ATOM     28  C   LIG    1       10.186   0.998   7.679  0.00  0.00    +0.040 C 
ENDBRANCH  25  26
ENDBRANCH  17  22
ENDBRANCH  16  17
ENDBRANCH   1  16
TORSDOF 9
