REMARK  Name = ZINCrH000004ni8v.0
REMARK                            x       y       z     vdW  Elec       q    Type
REMARK                         _______ _______ _______ _____ _____    ______ ____
ROOT
ATOM      1  C   LIG    1       -2.122  12.042   0.189  0.00  0.00    +0.560 C 
ATOM      2  N   LIG    1       -2.169  10.699   0.081  0.00  0.00    -0.670 N 
ATOM      3  H   LIG    1       -3.024  10.248   0.009  0.00  0.00    +0.410 HD
ATOM      4  O   LIG    1       -1.050  12.616   0.182  0.00  0.00    -0.490 OA
ENDROOT
BRANCH   1   9
ATOM      5  C   LIG    1       -4.513  14.930   0.549  0.00  0.00    +0.100 A 
ATOM      6  C   LIG    1       -5.727  14.265   0.556  0.00  0.00    -0.030 A 
ATOM      7  C   LIG    1       -5.771  12.885   0.444  0.00  0.00    +0.050 A 
ATOM      8  C   LIG    1       -4.607  12.160   0.319  0.00  0.00    +0.020 A 
ATOM      9  C   LIG    1       -3.372  12.816   0.316  0.00  0.00    -0.130 A 
ATOM     10  C   LIG    1       -3.327  14.210   0.429  0.00  0.00    +0.130 A 
BRANCH   5  12
ATOM     11  C   LIG    1       -5.732  16.958   0.779  0.00  0.00    +0.250 C 
ATOM     12  O   LIG    1       -4.478  16.285   0.659  0.00  0.00    -0.300 OA
ENDBRANCH   5  12
BRANCH  10  13
ATOM     13  O   LIG    1       -2.134  14.858   0.423  0.00  0.00    -0.310 OA
ATOM     14  C   LIG    1       -1.628  15.272  -0.848  0.00  0.00    +0.240 C 
ENDBRANCH  10  13
ENDBRANCH   1   9
BRANCH   2  15
ATOM     15  C   LIG    1       -0.983   9.957   0.071  0.00  0.00    +0.150 A 
ATOM     16  C   LIG    1       -0.899   8.793  -0.683  0.00  0.00    +0.000 A 
ATOM     17  C   LIG    1        0.271   8.054  -0.696  0.00  0.00    +0.040 A 
ATOM     18  C   LIG    1        1.363   8.471   0.035  0.00  0.00    +0.020 A 
ATOM     19  C   LIG    1        1.288   9.638   0.801  0.00  0.00    +0.030 A 
ATOM     20  C   LIG    1        0.107  10.383   0.814  0.00  0.00    +0.050 A 
BRANCH  19  21
ATOM     21  C   LIG    1        2.419  10.070   1.565  0.00  0.00    -0.080 C 
ATOM     22  C   LIG    1        3.346  10.425   2.192  0.00  0.00    -0.110 C 
BRANCH  22  23
ATOM     23  C   LIG    1        4.477  10.858   2.957  0.00  0.00    +0.230 A 
ATOM     24  C   LIG    1        4.394  12.027   3.716  0.00  0.00    +0.000 A 
ATOM     25  C   LIG    1        5.494  12.429   4.453  0.00  0.00    +0.070 A 
ATOM     26  C   LIG    1        6.646  11.655   4.401  0.00  0.00    -0.030 A 
ATOM     27  C   LIG    1        6.659  10.507   3.628  0.00  0.00    +0.270 A 
ATOM     28  N   LIG    1        5.598  10.143   2.939  0.00  0.00    -0.470 NA
ENDBRANCH  22  23
ENDBRANCH  19  21
ENDBRANCH   2  15
TORSDOF 6
