REMARK  Name = ZINCrD00000F5Lwr.0
REMARK                            x       y       z     vdW  Elec       q    Type
REMARK                         _______ _______ _______ _____ _____    ______ ____
ROOT
ATOM      1  C   LIG    1       -2.887   2.470   2.983  0.00  0.00    +0.200 A 
ATOM      2  C   LIG    1       -3.852   1.520   2.720  0.00  0.00    +0.080 A 
ATOM      3  N   LIG    1       -3.229   0.378   2.375  0.00  0.00    -0.440 NA
ATOM      4  C   LIG    1       -1.920   0.568   2.410  0.00  0.00    +0.230 A 
ATOM      5  C   LIG    1       -0.834  -0.291   2.140  0.00  0.00    +0.090 A 
ATOM      6  C   LIG    1        0.432   0.183   2.259  0.00  0.00    +0.070 A 
ATOM      7  C   LIG    1        0.655   1.520   2.647  0.00  0.00    -0.110 A 
ATOM      8  C   LIG    1       -0.389   2.334   2.903  0.00  0.00    +0.090 A 
ATOM      9  C   LIG    1        0.105   3.712   3.297  0.00  0.00    +0.240 C 
ATOM     10  C   LIG    1        1.575   3.759   2.831  0.00  0.00    +0.030 C 
ATOM     11  C   LIG    1        1.961   2.264   2.842  0.00  0.00    +0.110 C 
ATOM     12  N   LIG    1       -1.675   1.867   2.786  0.00  0.00    -0.340 N 
ENDROOT
BRANCH   2  13
ATOM     13  C   LIG    1       -5.317   1.723   2.802  0.00  0.00    +0.320 A 
ATOM     14  N   LIG    1       -5.922   2.867   3.039  0.00  0.00    -0.260 NA
ATOM     15  N   LIG    1       -7.301   2.605   3.027  0.00  0.00    -0.440 N 
ATOM     16  H   LIG    1       -8.015   3.247   3.169  0.00  0.00    +0.450 HD
ATOM     17  C   LIG    1       -7.439   1.289   2.786  0.00  0.00    +0.200 A 
ATOM     18  N   LIG    1       -6.247   0.769   2.652  0.00  0.00    -0.450 NA
BRANCH  17  19
ATOM     19  C   LIG    1       -8.744   0.542   2.686  0.00  0.00    +0.560 C 
ATOM     20  F   LIG    1       -9.356   0.835   1.463  0.00  0.00    -0.160 F 
ATOM     21  F   LIG    1       -9.586   0.932   3.734  0.00  0.00    -0.160 F 
ATOM     22  F   LIG    1       -8.502  -0.833   2.769  0.00  0.00    -0.140 F 
ENDBRANCH  17  19
ENDBRANCH   2  13
BRANCH   1  23
ATOM     23  N   LIG    1       -3.104   3.791   3.374  0.00  0.00    -0.590 N 
ATOM     24  H   LIG    1       -3.521   4.326   2.626  0.00  0.00    +0.370 HD
BRANCH  23  25
ATOM     25  C   LIG    1       -3.930   3.852   4.587  0.00  0.00    +0.150 C 
ATOM     26  C   LIG    1       -4.502   5.262   4.745  0.00  0.00    +0.040 C 
BRANCH  25  28
ATOM     27  C   LIG    1       -2.628   2.048   5.723  0.00  0.00    +0.000 C 
ATOM     28  C   LIG    1       -3.071   3.510   5.806  0.00  0.00    +0.030 C 
ENDBRANCH  25  28
ENDBRANCH  23  25
ENDBRANCH   1  23
BRANCH   9  29
ATOM     29  O   LIG    1       -0.659   4.722   2.635  0.00  0.00    -0.540 OA
ATOM     30  H   LIG    1       -0.315   5.618   2.756  0.00  0.00    +0.380 HD
ENDBRANCH   9  29
TORSDOF 6
