REMARK  Name = ZINCrD000006Ewsz.0
REMARK                            x       y       z     vdW  Elec       q    Type
REMARK                         _______ _______ _______ _____ _____    ______ ____
ROOT
ATOM      1  C   LIG    1        3.568   2.172   0.029  0.00  0.00    -0.030 C 
ATOM      2  C   LIG    1        4.899   1.429  -0.106  0.00  0.00    +0.030 C 
ATOM      3  C   LIG    1        6.046   2.440  -0.163  0.00  0.00    +0.020 C 
ATOM      4  C   LIG    1        6.074   3.249   1.137  0.00  0.00    +0.270 C 
ATOM      5  N   LIG    1        4.750   3.850   1.348  0.00  0.00    -0.600 N 
ATOM      6  C   LIG    1        4.623   5.176   1.553  0.00  0.00    +0.570 C 
ATOM      7  O   LIG    1        3.517   5.677   1.622  0.00  0.00    -0.520 OA
ATOM      8  C   LIG    1        3.568   2.978   1.331  0.00  0.00    +0.290 C 
ENDROOT
BRANCH   6   9
ATOM      9  C   LIG    1        5.824   6.019   1.693  0.00  0.00    -0.110 A 
ATOM     10  C   LIG    1        6.801   5.711   2.630  0.00  0.00    +0.090 A 
ATOM     11  C   LIG    1        7.933   6.505   2.758  0.00  0.00    -0.190 A 
ATOM     12  C   LIG    1        8.127   7.609   1.986  0.00  0.00    +0.130 A 
ATOM     13  C   LIG    1        7.177   7.983   1.020  0.00  0.00    -0.060 A 
ATOM     14  C   LIG    1        7.362   9.121   0.216  0.00  0.00    +0.050 A 
ATOM     15  C   LIG    1        6.418   9.452  -0.708  0.00  0.00    +0.020 A 
ATOM     16  C   LIG    1        5.271   8.681  -0.870  0.00  0.00    +0.040 A 
ATOM     17  C   LIG    1        5.060   7.571  -0.107  0.00  0.00    +0.030 A 
ATOM     18  C   LIG    1        6.009   7.200   0.853  0.00  0.00    +0.000 A 
BRANCH  11  19
ATOM     19  C   LIG    1        8.975   6.136   3.783  0.00  0.00    +0.510 C 
ATOM     20  F   LIG    1        9.476   4.861   3.501  0.00  0.00    -0.170 F 
ATOM     21  F   LIG    1        8.396   6.139   5.057  0.00  0.00    -0.170 F 
ATOM     22  F   LIG    1       10.018   7.067   3.743  0.00  0.00    -0.170 F 
ENDBRANCH  11  19
ENDBRANCH   6   9
BRANCH   1  23
ATOM     23  C   LIG    1        2.419   1.162   0.053  0.00  0.00    +0.280 C 
BRANCH  23  28
ATOM     24  N   LIG    1       -1.193   1.844   0.085  0.00  0.00    -0.870 N 
ATOM     25  H   LIG    1       -1.207   2.814   0.075  0.00  0.00    +0.400 HD
ATOM     26  H   LIG    1       -2.027   1.347   0.096  0.00  0.00    +0.420 HD
ATOM     27  C   LIG    1       -0.017   1.187   0.083  0.00  0.00    +0.710 C 
ATOM     28  N   LIG    1        1.141   1.877   0.061  0.00  0.00    -0.750 N 
ATOM     29  H   LIG    1        1.127   2.846   0.052  0.00  0.00    +0.400 HD
ATOM     30  O   LIG    1        0.000  -0.029   0.095  0.00  0.00    -0.590 OA
ENDBRANCH  23  28
ENDBRANCH   1  23
TORSDOF 4
