REMARK  Name = ZINCqH0000036KAB.0
REMARK                            x       y       z     vdW  Elec       q    Type
REMARK                         _______ _______ _______ _____ _____    ______ ____
ROOT
ATOM      1  C   LIG    1       -4.787   3.723  -0.142  0.00  0.00    -0.150 A 
ATOM      2  C   LIG    1       -5.943   2.968  -0.246  0.00  0.00    +0.100 A 
ATOM      3  C   LIG    1       -5.832   1.584  -0.248  0.00  0.00    -0.060 A 
ATOM      4  C   LIG    1       -4.582   1.007  -0.152  0.00  0.00    +0.300 A 
ATOM      5  N   LIG    1       -3.497   1.753  -0.059  0.00  0.00    -0.530 NA
ATOM      6  C   LIG    1       -3.562   3.074  -0.054  0.00  0.00    +0.330 A 
ENDROOT
BRANCH   1   7
ATOM      7  C   LIG    1       -4.857   5.228  -0.130  0.00  0.00    +0.240 C 
BRANCH   7   8
ATOM      8  N   LIG    1       -4.534   5.744  -1.467  0.00  0.00    -0.670 NA
ATOM      9  H   LIG    1       -5.144   5.345  -2.165  0.00  0.00    +0.340 HD
BRANCH   8  11
ATOM     10  C   LIG    1       -6.034   7.660  -1.740  0.00  0.00    +0.010 C 
ATOM     11  C   LIG    1       -4.592   7.211  -1.493  0.00  0.00    +0.250 C 
BRANCH  11  12
ATOM     12  C   LIG    1       -3.708   7.729  -2.598  0.00  0.00    -0.160 A 
ATOM     13  C   LIG    1       -3.562   7.196  -3.825  0.00  0.00    +0.170 A 
ATOM     14  O   LIG    1       -2.690   7.949  -4.514  0.00  0.00    -0.180 OA
ATOM     15  C   LIG    1       -2.263   8.961  -3.741  0.00  0.00    +0.160 A 
ATOM     16  C   LIG    1       -2.868   8.865  -2.543  0.00  0.00    -0.060 A 
ENDBRANCH  11  12
ENDBRANCH   8  11
ENDBRANCH   7   8
ENDBRANCH   1   7
BRANCH   6  17
ATOM     17  O   LIG    1       -2.422   3.802   0.044  0.00  0.00    -0.230 OA
BRANCH  17  18
ATOM     18  C   LIG    1       -1.236   3.139   0.007  0.00  0.00    +0.080 A 
ATOM     19  C   LIG    1       -0.786   2.587  -1.184  0.00  0.00    +0.070 A 
ATOM     20  C   LIG    1        0.417   1.909  -1.218  0.00  0.00    +0.020 A 
ATOM     21  C   LIG    1        1.177   1.789  -0.070  0.00  0.00    +0.130 A 
ATOM     22  C   LIG    1        0.733   2.342   1.118  0.00  0.00    -0.650 A 
ATOM     23  C   LIG    1       -0.471   3.017   1.158  0.00  0.00    +0.130 A 
BRANCH  22  24
ATOM     24  S   LIG    1        1.704   2.186   2.579  0.00  0.00    +2.500 S 
ATOM     25  O   LIG    1        2.465   1.004   2.370  0.00  0.00    -0.930 OA
ATOM     26  O   LIG    1        0.760   2.272   3.638  0.00  0.00    -0.930 OA
ATOM     27  C   LIG    1        2.781   3.646   2.566  0.00  0.00    -0.260 C 
ENDBRANCH  22  24
ENDBRANCH  17  18
ENDBRANCH   6  17
TORSDOF 7
