REMARK  Name = ZINCrg00001JduV3.0
REMARK                            x       y       z     vdW  Elec       q    Type
REMARK                         _______ _______ _______ _____ _____    ______ ____
ROOT
ATOM      1  N   LIG    1        1.143   1.901   0.001  0.00  0.00    -0.720 N 
ATOM      2  H   LIG    1        1.130   2.871   0.007  0.00  0.00    +0.410 HD
ATOM      3  C   LIG    1       -0.014   1.212   0.009  0.00  0.00    +0.580 C 
ATOM      4  O   LIG    1        0.002  -0.004   0.002  0.00  0.00    -0.530 OA
ENDROOT
BRANCH   3   5
ATOM      5  C   LIG    1       -1.302   1.932   0.019  0.00  0.00    -0.200 A 
ATOM      6  C   LIG    1       -1.332   3.327   0.026  0.00  0.00    +0.330 A 
ATOM      7  N   LIG    1       -2.477   3.979   0.034  0.00  0.00    -0.500 NA
ATOM      8  C   LIG    1       -3.637   3.345   0.035  0.00  0.00    +0.400 A 
ATOM      9  N   LIG    1       -4.835   4.053   0.037  0.00  0.00    -0.730 N 
ATOM     10  H   LIG    1       -4.897   4.928   0.452  0.00  0.00    +0.420 HD
ATOM     11  C   LIG    1       -6.003   3.438  -0.609  0.00  0.00    +0.350 C 
ATOM     12  C   LIG    1       -6.061   1.978  -0.236  0.00  0.00    +0.510 C 
ATOM     13  N   LIG    1       -4.932   1.296   0.040  0.00  0.00    -0.650 N 
ATOM     14  H   LIG    1       -4.979   0.350   0.245  0.00  0.00    +0.420 HD
ATOM     15  O   LIG    1       -7.133   1.413  -0.183  0.00  0.00    -0.510 OA
ATOM     16  C   LIG    1       -3.692   1.945   0.031  0.00  0.00    +0.050 A 
ATOM     17  C   LIG    1       -2.514   1.222   0.015  0.00  0.00    +0.140 A 
ENDBRANCH   3   5
BRANCH   1  18
ATOM     18  C   LIG    1        2.422   1.186  -0.015  0.00  0.00    +0.350 C 
ATOM     19  C   LIG    1        2.819   0.820   1.417  0.00  0.00    +0.060 C 
BRANCH  18  25
ATOM     20  C   LIG    1        6.291   2.847  -2.772  0.00  0.00    +0.270 C 
ATOM     21  C   LIG    1        6.196   1.605  -3.668  0.00  0.00    +0.050 C 
ATOM     22  C   LIG    1        6.000   0.363  -2.793  0.00  0.00    +0.050 C 
ATOM     23  C   LIG    1        4.603   0.396  -2.161  0.00  0.00    +0.290 C 
ATOM     24  N   LIG    1        4.401   1.703  -1.537  0.00  0.00    -0.460 N 
ATOM     25  C   LIG    1        3.483   2.068  -0.621  0.00  0.00    +0.170 A 
ATOM     26  N   LIG    1        3.684   3.334  -0.360  0.00  0.00    -0.280 NA
ATOM     27  N   LIG    1        4.677   3.770  -1.057  0.00  0.00    -0.270 NA
ATOM     28  C   LIG    1        5.144   2.809  -1.794  0.00  0.00    +0.160 A 
BRANCH  20  30
ATOM     29  C   LIG    1        6.915   5.146  -3.041  0.00  0.00    +0.210 C 
ATOM     30  O   LIG    1        6.202   4.027  -3.573  0.00  0.00    -0.360 OA
ENDBRANCH  20  30
ENDBRANCH  18  25
ENDBRANCH   1  18
TORSDOF 4
