REMARK  Name = ZINCpk00000y6wQP.0
REMARK                            x       y       z     vdW  Elec       q    Type
REMARK                         _______ _______ _______ _____ _____    ______ ____
ROOT
ATOM      1  C   LIG    1        6.269   3.251  -3.835  0.00  0.00    +0.110 C 
ATOM      2  C   LIG    1        6.654   4.620  -3.337  0.00  0.00    +0.500 C 
ATOM      3  N   LIG    1        7.365   4.748  -2.200  0.00  0.00    -0.610 N 
ATOM      4  C   LIG    1        7.883   3.563  -1.503  0.00  0.00    +0.290 C 
ATOM      5  C   LIG    1        7.420   3.609  -0.043  0.00  0.00    +0.240 C 
ATOM      6  C   LIG    1        7.846   4.940   0.581  0.00  0.00    +0.060 C 
ATOM      7  C   LIG    1        7.181   6.094  -0.173  0.00  0.00    +0.040 C 
ATOM      8  C   LIG    1        7.640   6.076  -1.635  0.00  0.00    +0.220 C 
ATOM      9  O   LIG    1        6.323   5.607  -3.960  0.00  0.00    -0.520 OA
ENDROOT
BRANCH   5  10
ATOM     10  N   LIG    1        5.962   3.487   0.012  0.00  0.00    -0.710 N 
ATOM     11  H   LIG    1        5.409   4.283   0.052  0.00  0.00    +0.400 HD
ATOM     12  C   LIG    1        5.386   2.268   0.007  0.00  0.00    +0.580 C 
ATOM     13  O   LIG    1        6.079   1.270  -0.043  0.00  0.00    -0.530 OA
BRANCH  12  14
ATOM     14  C   LIG    1        3.917   2.145   0.063  0.00  0.00    -0.160 A 
ATOM     15  C   LIG    1        3.335   0.910   0.057  0.00  0.00    +0.340 A 
ATOM     16  N   LIG    1        1.983   0.788   0.109  0.00  0.00    -0.400 N 
ATOM     17  C   LIG    1        1.137  -0.281   0.118  0.00  0.00    +0.360 A 
ATOM     18  N   LIG    1       -0.083   0.186   0.177  0.00  0.00    -0.250 NA
ATOM     19  N   LIG    1       -0.069   1.472   0.206  0.00  0.00    -0.280 NA
ATOM     20  C   LIG    1        1.180   1.902   0.166  0.00  0.00    +0.200 A 
ATOM     21  C   LIG    1        1.760   3.188   0.172  0.00  0.00    +0.100 A 
ATOM     22  C   LIG    1        3.110   3.310   0.121  0.00  0.00    +0.080 A 
ENDBRANCH  12  14
ENDBRANCH   5  10
BRANCH   8  23
ATOM     23  C   LIG    1        6.875   7.139  -2.426  0.00  0.00    +0.470 C 
ATOM     24  F   LIG    1        5.524   6.782  -2.501  0.00  0.00    -0.170 F 
ATOM     25  F   LIG    1        7.405   7.231  -3.717  0.00  0.00    -0.160 F 
ATOM     26  F   LIG    1        6.995   8.376  -1.783  0.00  0.00    -0.190 F 
ENDBRANCH   8  23
TORSDOF 3
