REMARK  Name = ZINCqH0000007Q7p.0
REMARK                            x       y       z     vdW  Elec       q    Type
REMARK                         _______ _______ _______ _____ _____    ______ ____
ROOT
ATOM      1  N   LIG    1       -0.724   1.573  -1.182  0.00  0.00    -0.480 N 
ATOM      2  C   LIG    1        0.131   1.312  -0.015  0.00  0.00    +0.210 C 
ATOM      3  C   LIG    1       -0.580   1.793   1.252  0.00  0.00    +0.180 C 
ATOM      4  N   LIG    1       -0.877   3.227   1.130  0.00  0.00    -0.520 NA
ATOM      5  C   LIG    1       -1.732   3.488  -0.036  0.00  0.00    +0.200 C 
ATOM      6  C   LIG    1       -1.021   3.007  -1.304  0.00  0.00    +0.190 C 
ENDROOT
BRANCH   1  12
ATOM      7  C   LIG    1        0.025  -0.292  -2.530  0.00  0.00    +0.120 A 
ATOM      8  C   LIG    1        0.605  -0.773  -3.692  0.00  0.00    -0.060 A 
ATOM      9  C   LIG    1        1.023   0.108  -4.673  0.00  0.00    +0.020 A 
ATOM     10  C   LIG    1        0.862   1.470  -4.498  0.00  0.00    -0.010 A 
ATOM     11  C   LIG    1        0.278   1.958  -3.344  0.00  0.00    +0.000 A 
ATOM     12  C   LIG    1       -0.138   1.081  -2.354  0.00  0.00    +0.080 A 
BRANCH   7  14
ATOM     13  C   LIG    1       -0.186  -2.550  -1.814  0.00  0.00    +0.230 C 
ATOM     14  O   LIG    1       -0.385  -1.157  -1.564  0.00  0.00    -0.310 OA
ENDBRANCH   7  14
ENDBRANCH   1  12
BRANCH   4  15
ATOM     15  C   LIG    1       -1.492   3.743   2.360  0.00  0.00    +0.250 C 
BRANCH  15  16
ATOM     16  C   LIG    1       -0.719   3.249   3.555  0.00  0.00    -0.020 A 
ATOM     17  C   LIG    1       -1.180   2.191   4.276  0.00  0.00    +0.010 A 
ATOM     18  C   LIG    1       -0.476   1.712   5.382  0.00  0.00    +0.110 A 
ATOM     19  C   LIG    1        0.689   2.301   5.777  0.00  0.00    +0.000 A 
ATOM     20  C   LIG    1        1.189   3.399   5.059  0.00  0.00    -0.080 A 
ATOM     21  C   LIG    1        2.387   4.035   5.434  0.00  0.00    +0.080 A 
ATOM     22  C   LIG    1        2.814   5.097   4.688  0.00  0.00    -0.020 A 
ATOM     23  C   LIG    1        2.068   5.521   3.592  0.00  0.00    +0.290 A 
ATOM     24  N   LIG    1        0.952   4.926   3.245  0.00  0.00    -0.450 NA
ATOM     25  F   LIG    1       -0.957   0.656   6.073  0.00  0.00    -0.130 F 
ATOM     26  C   LIG    1        0.479   3.882   3.932  0.00  0.00    +0.130 A 
ENDBRANCH  15  16
ENDBRANCH   4  15
TORSDOF 4
