REMARK  Name = ZINCfA000000beHg.0
REMARK                            x       y       z     vdW  Elec       q    Type
REMARK                         _______ _______ _______ _____ _____    ______ ____
ROOT
ATOM      1  C   LIG    1       -1.145   3.475   0.026  0.00  0.00    +0.220 C 
ENDROOT
BRANCH   1   2
ATOM      2  C   LIG    1       -2.567   4.042   0.036  0.00  0.00    +0.290 C 
BRANCH   2   3
ATOM      3  N   LIG    1       -3.232   3.673   1.293  0.00  0.00    -0.390 N 
ATOM      4  C   LIG    1       -2.547   4.322   2.419  0.00  0.00    +0.320 C 
ATOM      5  H   LIG    1       -3.198   2.671   1.410  0.00  0.00    +0.430 HD
BRANCH   3   6
ATOM      6  C   LIG    1       -4.633   4.113   1.252  0.00  0.00    +0.250 C 
BRANCH   6   8
ATOM      7  C   LIG    1       -6.818   4.079   2.464  0.00  0.00    +0.060 C 
ATOM      8  C   LIG    1       -5.359   3.620   2.506  0.00  0.00    +0.030 C 
ENDBRANCH   6   8
ENDBRANCH   3   6
ENDBRANCH   2   3
ENDBRANCH   1   2
BRANCH   1   9
ATOM      9  O   LIG    1       -1.202   2.047   0.019  0.00  0.00    -0.330 OA
BRANCH   9  10
ATOM     10  C   LIG    1       -0.017   1.383   0.010  0.00  0.00    +0.130 A 
ATOM     11  C   LIG    1        1.176   2.091   0.002  0.00  0.00    -0.070 A 
ATOM     12  C   LIG    1        2.381   1.414  -0.013  0.00  0.00    +0.080 A 
ATOM     13  C   LIG    1        2.398   0.032  -0.021  0.00  0.00    +0.010 A 
ATOM     14  C   LIG    1        1.209  -0.677  -0.013  0.00  0.00    +0.000 A 
ATOM     15 CL   LIG    1        1.234  -2.413  -0.022  0.00  0.00    -0.040 Cl
ATOM     16  C   LIG    1        0.002  -0.004   0.002  0.00  0.00    +0.000 A 
ENDBRANCH   9  10
ENDBRANCH   1   9
TORSDOF 6
