REMARK  Name = ZINCfA000000beHg.1
REMARK                            x       y       z     vdW  Elec       q    Type
REMARK                         _______ _______ _______ _____ _____    ______ ____
ROOT
ATOM      1  C   LIG    1       -0.006   0.976   4.884  0.00  0.00    +0.220 C 
ENDROOT
BRANCH   1   2
ATOM      2  C   LIG    1       -0.739   1.480   3.639  0.00  0.00    +0.290 C 
BRANCH   2   3
ATOM      3  N   LIG    1        0.069   1.192   2.446  0.00  0.00    -0.390 N 
ATOM      4  C   LIG    1       -0.557   1.810   1.270  0.00  0.00    +0.330 C 
ATOM      5  H   LIG    1        0.997   1.569   2.569  0.00  0.00    +0.430 HD
BRANCH   3   6
ATOM      6  C   LIG    1        0.152  -0.261   2.249  0.00  0.00    +0.240 C 
BRANCH   6   8
ATOM      7  C   LIG    1        1.180  -2.079   0.878  0.00  0.00    +0.060 C 
ATOM      8  C   LIG    1        1.094  -0.565   1.082  0.00  0.00    +0.030 C 
ENDBRANCH   6   8
ENDBRANCH   3   6
ENDBRANCH   2   3
ENDBRANCH   1   2
BRANCH   1   9
ATOM      9  O   LIG    1        1.206   1.713   5.054  0.00  0.00    -0.330 OA
BRANCH   9  10
ATOM     10  C   LIG    1        1.981   1.387   6.122  0.00  0.00    +0.130 A 
ATOM     11  C   LIG    1        1.580   0.383   6.991  0.00  0.00    -0.070 A 
ATOM     12  C   LIG    1        2.371   0.049   8.073  0.00  0.00    +0.080 A 
ATOM     13  C   LIG    1        3.557   0.723   8.297  0.00  0.00    +0.010 A 
ATOM     14  C   LIG    1        3.958   1.728   7.435  0.00  0.00    +0.000 A 
ATOM     15 CL   LIG    1        5.449   2.572   7.719  0.00  0.00    -0.040 Cl
ATOM     16  C   LIG    1        3.172   2.062   6.348  0.00  0.00    +0.000 A 
ENDBRANCH   9  10
ENDBRANCH   1   9
TORSDOF 6
