REMARK  Name = ZINC650000002Dqq.0
REMARK                            x       y       z     vdW  Elec       q    Type
REMARK                         _______ _______ _______ _____ _____    ______ ____
ROOT
ATOM      1  C   LIG    1       -0.016   1.306   0.009  0.00  0.00    -0.010 C 
ATOM      2  C   LIG    1        0.002  -0.004   0.002  0.00  0.00    -0.010 C 
ENDROOT
BRANCH   1   3
ATOM      3  C   LIG    1       -1.331   2.042   0.019  0.00  0.00    +0.310 C 
BRANCH   3   4
ATOM      4  N   LIG    1       -1.365   2.968   1.159  0.00  0.00    -0.640 N 
ATOM      5  H   LIG    1       -1.264   2.448   2.018  0.00  0.00    +0.440 HD
ATOM      6  H   LIG    1       -2.246   3.460   1.166  0.00  0.00    +0.450 HD
ATOM      7  H   LIG    1       -0.609   3.631   1.076  0.00  0.00    +0.440 HD
ENDBRANCH   3   4
ENDBRANCH   1   3
BRANCH   2   8
ATOM      8  C   LIG    1        1.317  -0.740  -0.015  0.00  0.00    +0.310 C 
BRANCH   8   9
ATOM      9  N   LIG    1        1.368  -1.678   1.115  0.00  0.00    -0.640 N 
ATOM     10  H   LIG    1        1.278  -1.168   1.980  0.00  0.00    +0.440 HD
ATOM     11  H   LIG    1        2.248  -2.171   1.103  0.00  0.00    +0.450 HD
ATOM     12  H   LIG    1        0.611  -2.341   1.035  0.00  0.00    +0.440 HD
ENDBRANCH   8   9
ENDBRANCH   2   8
TORSDOF 4
