REMARK  Name = ZINCrH00000No4BA.0
REMARK                            x       y       z     vdW  Elec       q    Type
REMARK                         _______ _______ _______ _____ _____    ______ ____
ROOT
ATOM      1  C   LIG    1        1.146  -1.663  -1.528  0.00  0.00    +0.280 C 
ENDROOT
BRANCH   1   2
ATOM      2  C   LIG    1        1.674  -1.534  -0.122  0.00  0.00    +0.160 A 
ATOM      3  N   LIG    1        2.801  -0.972   0.242  0.00  0.00    -0.290 NA
ATOM      4  N   LIG    1        2.893  -1.061   1.524  0.00  0.00    -0.080 NA
ATOM      5  N   LIG    1        1.855  -1.666   1.987  0.00  0.00    -0.090 NA
ATOM      6  N   LIG    1        1.077  -1.968   1.003  0.00  0.00    -0.290 N 
BRANCH   6   7
ATOM      7  C   LIG    1       -0.212  -2.659   1.094  0.00  0.00    +0.160 C 
ATOM      8  C   LIG    1       -1.302  -1.786   0.468  0.00  0.00    +0.070 C 
ATOM      9  C   LIG    1       -0.548  -2.920   2.563  0.00  0.00    +0.080 C 
ATOM     10  C   LIG    1       -0.131  -3.990   0.344  0.00  0.00    +0.070 C 
ENDBRANCH   6   7
ENDBRANCH   1   2
BRANCH   1  11
ATOM     11  C   LIG    1        0.902  -0.269  -2.111  0.00  0.00    -0.040 C 
ATOM     12  C   LIG    1        2.237   0.461  -2.265  0.00  0.00    +0.050 C 
ATOM     13  C   LIG    1        0.231  -0.400  -3.480  0.00  0.00    +0.050 C 
BRANCH  11  14
ATOM     14  C   LIG    1       -0.008   0.524  -1.171  0.00  0.00    +0.020 C 
BRANCH  14  15
ATOM     15  C   LIG    1       -0.177   1.948  -1.705  0.00  0.00    +0.210 C 
BRANCH  15  16
ATOM     16  C   LIG    1       -1.052   2.711  -0.801  0.00  0.00    +0.200 C 
ATOM     17  N   LIG    1       -1.728   3.300  -0.102  0.00  0.00    -0.430 NA
ENDBRANCH  15  16
ENDBRANCH  14  15
ENDBRANCH  11  14
ENDBRANCH   1  11
BRANCH   1  18
ATOM     18  N   LIG    1        2.129  -2.374  -2.357  0.00  0.00    -0.500 NA
ATOM     19  C   LIG    1        3.500  -2.073  -1.923  0.00  0.00    +0.220 C 
BRANCH  18  20
ATOM     20  C   LIG    1        1.879  -3.822  -2.343  0.00  0.00    +0.210 C 
ATOM     21  C   LIG    1        0.537  -4.114  -3.017  0.00  0.00    +0.070 C 
BRANCH  20  25
ATOM     22  C   LIG    1        5.220  -7.260  -4.052  0.00  0.00    +0.190 C 
ATOM     23  C   LIG    1        4.405  -6.016  -3.810  0.00  0.00    -0.030 A 
ATOM     24  C   LIG    1        3.399  -5.867  -2.915  0.00  0.00    -0.070 A 
ATOM     25  C   LIG    1        2.981  -4.529  -3.090  0.00  0.00    +0.020 A 
ATOM     26  N   LIG    1        3.731  -4.029  -4.029  0.00  0.00    -0.330 NA
ATOM     27  O   LIG    1        4.532  -4.838  -4.437  0.00  0.00    +0.100 OA
ENDBRANCH  20  25
ENDBRANCH  18  20
ENDBRANCH   1  18
TORSDOF 9
