REMARK  Name = ZINCpk000000nL6H.0
REMARK                            x       y       z     vdW  Elec       q    Type
REMARK                         _______ _______ _______ _____ _____    ______ ____
ROOT
ATOM      1  C   LIG    1        0.853  -2.663  -2.447  0.00  0.00    +0.470 A 
ATOM      2  C   LIG    1        0.872  -1.990  -3.664  0.00  0.00    -0.230 A 
ATOM      3  C   LIG    1        0.961  -2.742  -4.832  0.00  0.00    +0.460 A 
ATOM      4  N   LIG    1        1.024  -4.069  -4.742  0.00  0.00    -0.610 NA
ATOM      5  C   LIG    1        1.004  -4.670  -3.570  0.00  0.00    +0.580 A 
ATOM      6  N   LIG    1        0.925  -3.993  -2.442  0.00  0.00    -0.610 NA
ENDROOT
BRANCH   1   7
ATOM      7  N   LIG    1        0.766  -1.960  -1.255  0.00  0.00    -0.700 N 
ATOM      8  H   LIG    1        0.753  -2.436  -0.410  0.00  0.00    +0.410 HD
BRANCH   7  14
ATOM      9  C   LIG    1        0.002  -0.004   0.002  0.00  0.00    +0.150 C 
ATOM     10  O   LIG    1       -0.017   1.425   0.010  0.00  0.00    -0.360 OA
ATOM     11  C   LIG    1        1.279   2.026   0.001  0.00  0.00    +0.210 C 
ATOM     12  C   LIG    1        2.022   1.615  -1.273  0.00  0.00    +0.000 C 
ATOM     13  C   LIG    1        2.108   0.087  -1.334  0.00  0.00    +0.000 C 
ATOM     14  C   LIG    1        0.693  -0.497  -1.272  0.00  0.00    +0.220 C 
BRANCH   9  16
ATOM     15  C   LIG    1       -2.123  -0.041   1.315  0.00  0.00    +0.020 C 
ATOM     16  C   LIG    1       -1.433  -0.534   0.042  0.00  0.00    -0.010 C 
ATOM     17  C   LIG    1       -2.198  -0.028  -1.183  0.00  0.00    +0.020 C 
ENDBRANCH   9  16
ENDBRANCH   7  14
ENDBRANCH   1   7
BRANCH   3  18
ATOM     18  N   LIG    1        0.984  -2.118  -6.070  0.00  0.00    -0.710 N 
ATOM     19  H   LIG    1        1.046  -2.649  -6.879  0.00  0.00    +0.410 HD
BRANCH  18  20
ATOM     20  C   LIG    1        0.915  -0.657  -6.155  0.00  0.00    +0.270 C 
BRANCH  20  21
ATOM     21  C   LIG    1        0.958  -0.230  -7.624  0.00  0.00    +0.020 C 
BRANCH  21  22
ATOM     22  C   LIG    1        0.885   1.295  -7.714  0.00  0.00    +0.280 C 
BRANCH  22  23
ATOM     23  N   LIG    1        0.926   1.704  -9.120  0.00  0.00    -1.120 NA
ATOM     24  H   LIG    1        1.205   1.073  -9.801  0.00  0.00    +0.420 HD
BRANCH  23  25
ATOM     25  S   LIG    1        0.495   3.245  -9.547  0.00  0.00    +2.620 S 
ATOM     26  O   LIG    1       -0.770   3.440  -8.929  0.00  0.00    -0.950 OA
ATOM     27  O   LIG    1        0.631   3.268 -10.961  0.00  0.00    -0.960 OA
ATOM     28  C   LIG    1        1.752   4.298  -8.770  0.00  0.00    -0.280 C 
ENDBRANCH  23  25
ENDBRANCH  22  23
ENDBRANCH  21  22
ENDBRANCH  20  21
ENDBRANCH  18  20
ENDBRANCH   3  18
TORSDOF 9
