REMARK  Name = ZINCvU0000000ARU.0
REMARK                            x       y       z     vdW  Elec       q    Type
REMARK                         _______ _______ _______ _____ _____    ______ ____
ROOT
ATOM      1  C   LIG    1       -1.304   1.757  -0.004  0.00  0.00    +0.140 A 
ATOM      2  C   LIG    1       -1.347   3.143  -0.003  0.00  0.00    +0.120 A 
ATOM      3  C   LIG    1       -2.565   3.797  -0.013  0.00  0.00    -0.190 A 
ATOM      4  C   LIG    1       -3.742   3.072  -0.012  0.00  0.00    +0.100 A 
ATOM      5  C   LIG    1       -3.708   1.689  -0.008  0.00  0.00    -0.020 A 
ATOM      6  C   LIG    1       -2.491   1.027  -0.004  0.00  0.00    +0.120 A 
ENDROOT
BRANCH   1   8
ATOM      7  C   LIG    1        1.027   1.707  -0.483  0.00  0.00    +0.570 C 
ATOM      8  N   LIG    1       -0.071   1.093  -0.000  0.00  0.00    -0.660 N 
ATOM      9  H   LIG    1       -0.008   0.189   0.347  0.00  0.00    +0.420 HD
ATOM     10  O   LIG    1        0.930   2.796  -1.016  0.00  0.00    -0.490 OA
BRANCH   7  16
ATOM     11  C   LIG    1        3.498   1.687  -0.865  0.00  0.00    +0.380 A 
ATOM     12  N   LIG    1        4.679   1.102  -0.758  0.00  0.00    -0.540 NA
ATOM     13  C   LIG    1        4.821  -0.079  -0.187  0.00  0.00    +0.350 A 
ATOM     14  C   LIG    1        3.733  -0.760   0.329  0.00  0.00    -0.070 A 
ATOM     15  C   LIG    1        2.474  -0.192   0.249  0.00  0.00    +0.140 A 
ATOM     16  C   LIG    1        2.346   1.058  -0.366  0.00  0.00    -0.220 A 
BRANCH  11  17
ATOM     17  O   LIG    1        3.399   2.899  -1.460  0.00  0.00    -0.270 OA
BRANCH  17  19
ATOM     18  C   LIG    1        4.300   4.841  -2.581  0.00  0.00    +0.070 C 
ATOM     19  C   LIG    1        4.609   3.484  -1.946  0.00  0.00    +0.200 C 
ENDBRANCH  17  19
ENDBRANCH  11  17
ENDBRANCH   7  16
ENDBRANCH   1   8
BRANCH   3  20
ATOM     20  C   LIG    1       -2.610   5.303  -0.018  0.00  0.00    +0.510 C 
ATOM     21  F   LIG    1       -1.963   5.785  -1.161  0.00  0.00    -0.170 F 
ATOM     22  F   LIG    1       -1.967   5.793   1.124  0.00  0.00    -0.180 F 
ATOM     23  F   LIG    1       -3.942   5.730  -0.021  0.00  0.00    -0.180 F 
ENDBRANCH   3  20
BRANCH   6  24
ATOM     24  O   LIG    1       -2.455  -0.332   0.001  0.00  0.00    -0.250 OA
BRANCH  24  25
ATOM     25  C   LIG    1       -3.632  -1.002  -0.110  0.00  0.00    +0.120 A 
ATOM     26  C   LIG    1       -4.092  -1.778   0.945  0.00  0.00    -0.020 A 
ATOM     27  C   LIG    1       -5.292  -2.455   0.835  0.00  0.00    +0.080 A 
ATOM     28  C   LIG    1       -6.031  -2.370  -0.330  0.00  0.00    -0.070 A 
ATOM     29  C   LIG    1       -5.573  -1.600  -1.389  0.00  0.00    +0.150 A 
ATOM     30  C   LIG    1       -4.373  -0.915  -1.279  0.00  0.00    -0.040 A 
BRANCH  29  31
ATOM     31  O   LIG    1       -6.300  -1.517  -2.534  0.00  0.00    -0.310 OA
ATOM     32  C   LIG    1       -7.527  -2.249  -2.578  0.00  0.00    +0.250 C 
ENDBRANCH  29  31
ENDBRANCH  24  25
ENDBRANCH   6  24
TORSDOF 8
