REMARK  Name = ZINCpe000000UWdI.0
REMARK                            x       y       z     vdW  Elec       q    Type
REMARK                         _______ _______ _______ _____ _____    ______ ____
ROOT
ATOM      1  N   LIG    1       -0.412   0.228   0.292  0.00  0.00    -0.710 N 
ATOM      2  H   LIG    1       -0.546  -0.560  -0.258  0.00  0.00    +0.400 HD
ATOM      3  C   LIG    1        0.729   0.371   0.996  0.00  0.00    +0.710 C 
ATOM      4  N   LIG    1        1.682  -0.581   0.936  0.00  0.00    -0.680 N 
ATOM      5  H   LIG    1        1.579  -1.333   0.332  0.00  0.00    +0.410 HD
ATOM      6  O   LIG    1        0.898   1.358   1.686  0.00  0.00    -0.570 OA
ENDROOT
BRANCH   4   7
ATOM      7  C   LIG    1        2.821  -0.483   1.744  0.00  0.00    +0.220 A 
ATOM      8  C   LIG    1        4.041  -0.959   1.285  0.00  0.00    +0.010 A 
ATOM      9  C   LIG    1        5.166  -0.858   2.079  0.00  0.00    +0.080 A 
ATOM     10  C   LIG    1        5.076  -0.290   3.342  0.00  0.00    +0.070 A 
ATOM     11  C   LIG    1        3.853   0.182   3.806  0.00  0.00    +0.150 A 
ATOM     12  F   LIG    1        3.764   0.735   5.035  0.00  0.00    -0.110 F 
ATOM     13  C   LIG    1        2.728   0.086   3.008  0.00  0.00    +0.020 A 
BRANCH  10  14
ATOM     14  N   LIG    1        6.218  -0.193   4.152  0.00  0.00    -0.320 N 
ATOM     15  C   LIG    1        7.470  -0.605   3.856  0.00  0.00    +0.460 A 
ATOM     16  N   LIG    1        8.225  -0.320   4.885  0.00  0.00    -0.330 NA
ATOM     17  N   LIG    1        7.535   0.236   5.814  0.00  0.00    -0.040 NA
ATOM     18  N   LIG    1        6.304   0.349   5.446  0.00  0.00    -0.060 NA
ENDBRANCH  10  14
ENDBRANCH   4   7
BRANCH   1  23
ATOM     19  C   LIG    1       -2.114   1.425  -1.027  0.00  0.00    -0.010 C 
ATOM     20  C   LIG    1       -3.381   0.538  -0.941  0.00  0.00    +0.030 C 
ATOM     21  C   LIG    1       -3.860   0.766   0.514  0.00  0.00    +0.020 C 
ATOM     22  C   LIG    1       -2.555   0.845   1.333  0.00  0.00    +0.010 C 
ATOM     23  C   LIG    1       -1.445   1.264   0.353  0.00  0.00    +0.290 C 
BRANCH  19  27
ATOM     24  C   LIG    1       -0.824   0.009  -4.342  0.00  0.00    +0.290 C 
ATOM     25  N   LIG    1       -1.714   0.488  -3.281  0.00  0.00    -0.730 N 
ATOM     26  H   LIG    1       -2.675   0.487  -3.417  0.00  0.00    +0.400 HD
ATOM     27  C   LIG    1       -1.198   0.932  -2.118  0.00  0.00    +0.520 C 
ATOM     28  O   LIG    1        0.003   0.934  -1.949  0.00  0.00    -0.530 OA
ENDBRANCH  19  27
ENDBRANCH   1  23
TORSDOF 4
