REMARK  Name = ZINCrg00001Jdv70.0
REMARK                            x       y       z     vdW  Elec       q    Type
REMARK                         _______ _______ _______ _____ _____    ______ ____
ROOT
ATOM      1  N   LIG    1       -2.806   2.899   2.191  0.00  0.00    -0.350 N 
ATOM      2  C   LIG    1       -2.338   1.859   2.912  0.00  0.00    +0.280 A 
ATOM      3  C   LIG    1       -2.408   2.205   4.229  0.00  0.00    -0.170 A 
ATOM      4  C   LIG    1       -2.950   3.503   4.299  0.00  0.00    +0.260 A 
ATOM      5  N   LIG    1       -3.185   3.912   3.080  0.00  0.00    -0.280 NA
ENDROOT
BRANCH   1   9
ATOM      6  C   LIG    1       -0.016   1.342   0.009  0.00  0.00    +0.680 C 
ATOM      7  N   LIG    1       -1.192   2.000   0.019  0.00  0.00    -0.640 N 
ATOM      8  C   LIG    1       -2.615   1.626   0.017  0.00  0.00    +0.310 C 
ATOM      9  C   LIG    1       -2.907   2.957   0.730  0.00  0.00    +0.260 C 
ATOM     10  C   LIG    1       -1.618   3.408   0.028  0.00  0.00    +0.320 C 
ATOM     11  O   LIG    1        1.028   1.964   0.003  0.00  0.00    -0.560 OA
BRANCH   6  12
ATOM     12  O   LIG    1        0.002  -0.004   0.002  0.00  0.00    -0.360 OA
BRANCH  12  14
ATOM     13  C   LIG    1        2.093  -0.231   1.230  0.00  0.00    +0.030 C 
ATOM     14  C   LIG    1        1.305  -0.646  -0.014  0.00  0.00    +0.140 C 
ATOM     15  C   LIG    1        2.069  -0.217  -1.268  0.00  0.00    +0.040 C 
ATOM     16  C   LIG    1        1.125  -2.165  -0.020  0.00  0.00    +0.080 C 
ENDBRANCH  12  14
ENDBRANCH   6  12
ENDBRANCH   1   9
BRANCH   3  17
ATOM     17  C   LIG    1       -1.995   1.363   5.381  0.00  0.00    +0.070 A 
ATOM     18  C   LIG    1       -2.146   1.655   6.705  0.00  0.00    +0.160 A 
ATOM     19  N   LIG    1       -1.629   0.602   7.381  0.00  0.00    -0.290 N 
ATOM     20  N   LIG    1       -1.192  -0.255   6.528  0.00  0.00    -0.080 NA
ATOM     21  N   LIG    1       -1.392   0.162   5.328  0.00  0.00    -0.260 NA
BRANCH  19  22
ATOM     22  C   LIG    1       -1.573   0.465   8.839  0.00  0.00    +0.350 C 
BRANCH  22  23
ATOM     23  C   LIG    1       -2.240  -0.848   9.254  0.00  0.00    +0.250 C 
BRANCH  23  24
ATOM     24  O   LIG    1       -2.184  -0.983  10.699  0.00  0.00    -0.370 OA
BRANCH  24  25
ATOM     25  C   LIG    1       -2.731  -2.092  11.230  0.00  0.00    +0.650 C 
ATOM     26  O   LIG    1       -3.242  -2.925  10.507  0.00  0.00    -0.570 OA
ATOM     27  N   LIG    1       -2.712  -2.280  12.565  0.00  0.00    -0.820 N 
ATOM     28  H   LIG    1       -3.107  -3.079  12.948  0.00  0.00    +0.430 HD
ATOM     29  H   LIG    1       -2.305  -1.616  13.142  0.00  0.00    +0.410 HD
ENDBRANCH  24  25
ENDBRANCH  23  24
ENDBRANCH  22  23
ENDBRANCH  19  22
ENDBRANCH   3  17
TORSDOF 8
