REMARK  Name = ZINCqH0000036LVf.0
REMARK                            x       y       z     vdW  Elec       q    Type
REMARK                         _______ _______ _______ _____ _____    ______ ____
ROOT
ATOM      1  C   LIG    1        0.140  -6.488   5.432  0.00  0.00    +0.520 C 
ATOM      2  N   LIG    1        0.119  -5.603   4.416  0.00  0.00    -0.730 N 
ATOM      3  H   LIG    1        0.115  -5.918   3.498  0.00  0.00    +0.400 HD
ATOM      4  O   LIG    1        0.145  -6.094   6.579  0.00  0.00    -0.510 OA
ENDROOT
BRANCH   1   6
ATOM      5  C   LIG    1        1.464  -8.332   4.435  0.00  0.00    +0.040 C 
ATOM      6  C   LIG    1        0.158  -7.967   5.143  0.00  0.00    +0.160 C 
BRANCH   6   7
ATOM      7  O   LIG    1        0.061  -8.693   6.370  0.00  0.00    -0.350 OA
BRANCH   7   8
ATOM      8  C   LIG    1       -0.588  -9.960   6.246  0.00  0.00    +0.220 C 
BRANCH   8   9
ATOM      9  C   LIG    1       -0.634 -10.635   7.592  0.00  0.00    -0.090 A 
ATOM     10  C   LIG    1        0.398 -11.468   7.984  0.00  0.00    +0.020 A 
ATOM     11  C   LIG    1        0.358 -12.083   9.221  0.00  0.00    +0.000 A 
ATOM     12  C   LIG    1       -0.718 -11.874  10.062  0.00  0.00    +0.010 A 
ATOM     13  C   LIG    1       -1.752 -11.045   9.669  0.00  0.00    +0.000 A 
ATOM     14  C   LIG    1       -1.710 -10.426   8.434  0.00  0.00    +0.020 A 
ENDBRANCH   8   9
ENDBRANCH   7   8
ENDBRANCH   6   7
ENDBRANCH   1   6
BRANCH   2  15
ATOM     15  C   LIG    1        0.102  -4.165   4.697  0.00  0.00    +0.440 C 
BRANCH  15  16
ATOM     16  C   LIG    1        0.080  -3.417   3.429  0.00  0.00    -0.160 C 
ATOM     17  C   LIG    1        0.063  -2.821   2.418  0.00  0.00    -0.110 C 
BRANCH  17  18
ATOM     18  C   LIG    1        0.042  -2.094   1.184  0.00  0.00    +0.010 A 
ATOM     19  C   LIG    1        0.040  -2.778  -0.032  0.00  0.00    +0.080 A 
ATOM     20  C   LIG    1        0.019  -2.071  -1.217  0.00  0.00    +0.030 A 
ATOM     21  C   LIG    1       -0.006  -0.688  -1.201  0.00  0.00    +0.080 A 
ATOM     22  C   LIG    1        0.002  -0.004   0.002  0.00  0.00    -0.180 A 
ATOM     23  C   LIG    1        0.023  -0.699   1.194  0.00  0.00    +0.090 A 
BRANCH  22  24
ATOM     24  C   LIG    1       -0.018   1.503   0.010  0.00  0.00    +0.510 C 
ATOM     25  F   LIG    1       -0.673   1.954   1.161  0.00  0.00    -0.180 F 
ATOM     26  F   LIG    1       -0.695   1.966  -1.123  0.00  0.00    -0.170 F 
ATOM     27  F   LIG    1        1.294   1.987   0.000  0.00  0.00    -0.170 F 
ENDBRANCH  22  24
ENDBRANCH  17  18
ENDBRANCH  15  16
ENDBRANCH   2  15
TORSDOF 8
