REMARK  Name = ZINCrH00000No4V7.0
REMARK                            x       y       z     vdW  Elec       q    Type
REMARK                         _______ _______ _______ _____ _____    ______ ____
ROOT
ATOM      1  N   LIG    1       -4.153   2.924   0.817  0.00  0.00    -0.610 NA
ATOM      2  C   LIG    1       -3.555   3.651   1.764  0.00  0.00    +0.370 A 
ATOM      3  S   LIG    1       -4.102   3.908   3.377  0.00  0.00    +0.180 S 
ATOM      4  C   LIG    1       -2.735   4.937   3.837  0.00  0.00    -0.050 A 
ATOM      5  C   LIG    1       -1.967   5.009   2.756  0.00  0.00    +0.250 A 
ATOM      6  N   LIG    1       -2.395   4.338   1.654  0.00  0.00    -0.520 N 
ENDROOT
BRANCH   1   7
ATOM      7  C   LIG    1       -3.714   2.973  -0.433  0.00  0.00    +0.500 C 
ATOM      8  O   LIG    1       -2.916   2.145  -0.831  0.00  0.00    -0.470 OA
BRANCH   7  17
ATOM      9  C   LIG    1       -4.549   1.936  -3.833  0.00  0.00    +0.080 C 
ATOM     10  C   LIG    1       -4.439   3.459  -3.735  0.00  0.00    +0.170 C 
ATOM     11  C   LIG    1       -3.872   4.096  -5.015  0.00  0.00    +0.090 C 
ATOM     12  C   LIG    1       -2.356   4.072  -4.698  0.00  0.00    +0.080 C 
ATOM     13  C   LIG    1       -2.291   4.092  -3.191  0.00  0.00    +0.550 C 
ATOM     14  O   LIG    1       -1.273   4.236  -2.548  0.00  0.00    -0.510 OA
ATOM     15  S   LIG    1       -6.021   4.255  -3.255  0.00  0.00    -0.240 S 
ATOM     16  C   LIG    1       -5.742   3.966  -1.456  0.00  0.00    +0.180 C 
ATOM     17  C   LIG    1       -4.203   4.054  -1.362  0.00  0.00    +0.220 C 
ATOM     18  N   LIG    1       -3.525   3.905  -2.655  0.00  0.00    -0.610 N 
ENDBRANCH   7  17
ENDBRANCH   1   7
BRANCH   6  19
ATOM     19  C   LIG    1       -1.630   4.352   0.405  0.00  0.00    +0.350 C 
BRANCH  19  20
ATOM     20  C   LIG    1       -0.339   3.599   0.598  0.00  0.00    -0.090 A 
ATOM     21  C   LIG    1       -0.269   2.255   0.285  0.00  0.00    +0.090 A 
ATOM     22  C   LIG    1        0.916   1.565   0.456  0.00  0.00    +0.040 A 
ATOM     23  C   LIG    1        2.033   2.218   0.946  0.00  0.00    -0.010 A 
ATOM     24  C   LIG    1        1.962   3.563   1.265  0.00  0.00    +0.050 A 
ATOM     25 CL   LIG    1        3.521   1.352   1.161  0.00  0.00    -0.050 Cl
ATOM     26  C   LIG    1        0.776   4.253   1.094  0.00  0.00    -0.010 A 
ATOM     27 CL   LIG    1        0.687   5.939   1.494  0.00  0.00    -0.050 Cl
ENDBRANCH  19  20
ENDBRANCH   6  19
TORSDOF 4
