REMARK  Name = ZINCvU0000000BGf.0
REMARK                            x       y       z     vdW  Elec       q    Type
REMARK                         _______ _______ _______ _____ _____    ______ ____
ROOT
ATOM      1  C   LIG    1       -1.906   0.843   1.925  0.00  0.00    +0.320 C 
ENDROOT
BRANCH   1   2
ATOM      2  C   LIG    1       -2.361  -0.541   2.309  0.00  0.00    -0.100 A 
ATOM      3  C   LIG    1       -1.863  -1.141   3.451  0.00  0.00    +0.020 A 
ATOM      4  C   LIG    1       -2.283  -2.409   3.805  0.00  0.00    +0.000 A 
ATOM      5  C   LIG    1       -3.194  -3.082   3.013  0.00  0.00    +0.000 A 
ATOM      6  C   LIG    1       -3.688  -2.485   1.868  0.00  0.00    +0.000 A 
ATOM      7  C   LIG    1       -3.271  -1.215   1.516  0.00  0.00    +0.020 A 
ENDBRANCH   1   2
BRANCH   1   8
ATOM      8  N   LIG    1       -1.806   1.675   3.127  0.00  0.00    -0.710 N 
ATOM      9  H   LIG    1       -0.964   1.737   3.605  0.00  0.00    +0.390 HD
ATOM     10  C   LIG    1       -2.883   2.353   3.569  0.00  0.00    +0.560 C 
ATOM     11  O   LIG    1       -3.961   2.204   3.026  0.00  0.00    -0.500 OA
BRANCH  10  12
ATOM     12  C   LIG    1       -2.755   3.279   4.714  0.00  0.00    -0.130 A 
ATOM     13  C   LIG    1       -1.500   3.545   5.263  0.00  0.00    +0.060 A 
ATOM     14  C   LIG    1       -1.387   4.410   6.332  0.00  0.00    +0.000 A 
ATOM     15  C   LIG    1       -2.515   5.013   6.860  0.00  0.00    +0.060 A 
ATOM     16  C   LIG    1       -3.762   4.755   6.322  0.00  0.00    +0.020 A 
ATOM     17  C   LIG    1       -3.889   3.896   5.247  0.00  0.00    +0.010 A 
ATOM     18 CL   LIG    1       -5.455   3.579   4.567  0.00  0.00    -0.030 Cl
ENDBRANCH  10  12
ENDBRANCH   1   8
BRANCH   1  19
ATOM     19  C   LIG    1       -0.538   0.761   1.246  0.00  0.00    +0.060 C 
BRANCH  19  21
ATOM     20  O   LIG    1       -0.948   3.037   0.777  0.00  0.00    -0.510 OA
ATOM     21  C   LIG    1       -0.156   2.120   0.719  0.00  0.00    +0.520 C 
ATOM     22  N   LIG    1        1.063   2.315   0.177  0.00  0.00    -0.700 N 
ATOM     23  H   LIG    1        1.647   1.559   0.014  0.00  0.00    +0.400 HD
BRANCH  22  24
ATOM     24  C   LIG    1        1.504   3.670  -0.165  0.00  0.00    +0.110 C 
ATOM     25  C   LIG    1        2.989   3.994   0.010  0.00  0.00    +0.030 C 
ATOM     26  C   LIG    1        1.959   4.575   0.982  0.00  0.00    +0.030 C 
BRANCH  24  27
ATOM     27  C   LIG    1        0.771   4.327  -1.335  0.00  0.00    +0.120 C 
BRANCH  27  28
ATOM     28  C   LIG    1        0.824   3.418  -2.536  0.00  0.00    -0.070 A 
ATOM     29  C   LIG    1        1.954   3.390  -3.332  0.00  0.00    +0.000 A 
ATOM     30  C   LIG    1        2.005   2.553  -4.431  0.00  0.00    +0.000 A 
ATOM     31  C   LIG    1        0.922   1.750  -4.739  0.00  0.00    +0.000 A 
ATOM     32  C   LIG    1       -0.209   1.781  -3.946  0.00  0.00    +0.000 A 
ATOM     33  C   LIG    1       -0.258   2.615  -2.844  0.00  0.00    +0.010 A 
ENDBRANCH  27  28
ENDBRANCH  24  27
ENDBRANCH  22  24
ENDBRANCH  19  21
ENDBRANCH   1  19
TORSDOF 8
