REMARK  Name = ZINCpk00000y6zf8.0
REMARK                            x       y       z     vdW  Elec       q    Type
REMARK                         _______ _______ _______ _____ _____    ______ ____
ROOT
ATOM      1  C   LIG    1       -2.787  -2.490   0.041  0.00  0.00    +0.210 C 
ATOM      2  C   LIG    1       -3.411  -1.202   0.639  0.00  0.00    +0.090 C 
ATOM      3  C   LIG    1       -2.507  -0.104   0.025  0.00  0.00    +0.280 C 
ATOM      4  N   LIG    1       -1.156  -0.694   0.009  0.00  0.00    -0.600 N 
ATOM      5  C   LIG    1        0.002  -0.004   0.002  0.00  0.00    +0.620 C 
ATOM      6  O   LIG    1        1.062  -0.597  -0.011  0.00  0.00    -0.520 OA
ATOM      7  C   LIG    1       -1.281  -2.159  -0.003  0.00  0.00    +0.260 C 
ENDROOT
BRANCH   5   8
ATOM      8  C   LIG    1       -0.018   1.479   0.010  0.00  0.00    -0.010 A 
ATOM      9  N   LIG    1       -1.077   2.259   0.019  0.00  0.00    -0.330 NA
ATOM     10  O   LIG    1       -0.765   3.433   0.027  0.00  0.00    +0.130 OA
ATOM     11  C   LIG    1        0.557   3.588   0.017  0.00  0.00    -0.030 A 
ATOM     12  C   LIG    1        1.375   4.853   0.018  0.00  0.00    +0.160 C 
ATOM     13  C   LIG    1        2.812   4.498   0.423  0.00  0.00    +0.030 C 
ATOM     14  C   LIG    1        3.311   3.323  -0.422  0.00  0.00    +0.030 C 
ATOM     15  C   LIG    1        2.564   2.045  -0.015  0.00  0.00    +0.120 C 
ATOM     16  C   LIG    1        1.094   2.346   0.004  0.00  0.00    -0.150 A 
ENDBRANCH   5   8
BRANCH   1  19
ATOM     17  N   LIG    1       -3.109  -5.666   1.781  0.00  0.00    -0.280 N 
ATOM     18  C   LIG    1       -2.653  -4.951   0.727  0.00  0.00    +0.150 A 
ATOM     19  C   LIG    1       -3.050  -3.674   0.936  0.00  0.00    -0.040 A 
ATOM     20  N   LIG    1       -3.716  -3.669   2.096  0.00  0.00    -0.250 NA
ATOM     21  N   LIG    1       -3.738  -4.865   2.569  0.00  0.00    -0.080 NA
BRANCH  17  23
ATOM     22  C   LIG    1       -4.012  -7.875   1.248  0.00  0.00    +0.060 C 
ATOM     23  C   LIG    1       -2.920  -7.103   1.991  0.00  0.00    +0.250 C 
ATOM     24  C   LIG    1       -1.548  -7.520   1.457  0.00  0.00    +0.060 C 
ENDBRANCH  17  23
ENDBRANCH   1  19
BRANCH   1  25
ATOM     25  O   LIG    1       -3.290  -2.732  -1.274  0.00  0.00    -0.530 OA
ATOM     26  H   LIG    1       -2.931  -3.526  -1.693  0.00  0.00    +0.380 HD
ENDBRANCH   1  25
TORSDOF 4
