REMARK  Name = ZINCtV000002GIac.0
REMARK                            x       y       z     vdW  Elec       q    Type
REMARK                         _______ _______ _______ _____ _____    ______ ____
ROOT
ATOM      1  C   LIG    1       -1.407  -0.526  -0.109  0.00  0.00    +0.530 C 
ATOM      2  N   LIG    1       -1.628  -1.784  -0.537  0.00  0.00    -0.660 N 
ATOM      3  H   LIG    1       -0.887  -2.331  -0.841  0.00  0.00    +0.410 HD
ATOM      4  O   LIG    1       -2.343   0.191   0.177  0.00  0.00    -0.500 OA
ENDROOT
BRANCH   2   5
ATOM      5  C   LIG    1       -2.926  -2.303  -0.543  0.00  0.00    +0.160 A 
ATOM      6  C   LIG    1       -3.884  -1.792   0.321  0.00  0.00    +0.020 A 
ATOM      7  C   LIG    1       -5.168  -2.301   0.309  0.00  0.00    +0.040 A 
ATOM      8  C   LIG    1       -5.504  -3.330  -0.553  0.00  0.00    +0.000 A 
ATOM      9  C   LIG    1       -4.559  -3.852  -1.414  0.00  0.00    +0.050 A 
ATOM     10  C   LIG    1       -3.263  -3.343  -1.416  0.00  0.00    -0.080 A 
BRANCH  10  11
ATOM     11  C   LIG    1       -2.245  -3.900  -2.340  0.00  0.00    -0.050 A 
ATOM     12  C   LIG    1       -1.488  -3.049  -3.142  0.00  0.00    +0.000 A 
ATOM     13  C   LIG    1       -0.539  -3.572  -3.996  0.00  0.00    +0.000 A 
ATOM     14  C   LIG    1       -0.345  -4.940  -4.064  0.00  0.00    +0.000 A 
ATOM     15  C   LIG    1       -1.097  -5.790  -3.274  0.00  0.00    +0.010 A 
ATOM     16  C   LIG    1       -2.046  -5.278  -2.413  0.00  0.00    +0.030 A 
ENDBRANCH  10  11
ENDBRANCH   2   5
BRANCH   1  17
ATOM     17  C   LIG    1        0.003  -0.009   0.015  0.00  0.00    +0.010 C 
ATOM     18  C   LIG    1        0.621  -0.520   1.318  0.00  0.00    +0.100 C 
BRANCH  17  19
ATOM     19  S   LIG    1       -0.017   1.801   0.026  0.00  0.00    +0.020 S 
BRANCH  19  23
ATOM     20  C   LIG    1        4.004   5.141   0.037  0.00  0.00    +0.120 C 
ATOM     21  C   LIG    1        3.499   3.721   0.030  0.00  0.00    -0.000 A 
ATOM     22  C   LIG    1        2.163   3.455   0.026  0.00  0.00    -0.020 A 
ATOM     23  C   LIG    1        1.715   2.126   0.025  0.00  0.00    +0.140 A 
ATOM     24  N   LIG    1        2.560   1.114   0.017  0.00  0.00    -0.490 NA
ATOM     25  C   LIG    1        3.883   1.314   0.015  0.00  0.00    +0.150 A 
ATOM     26  C   LIG    1        4.778   0.232   0.006  0.00  0.00    +0.030 A 
ATOM     27  C   LIG    1        6.120   0.465   0.003  0.00  0.00    +0.040 A 
ATOM     28  C   LIG    1        6.623   1.763   0.009  0.00  0.00    +0.010 A 
ATOM     29  C   LIG    1        5.785   2.837   0.018  0.00  0.00    +0.040 A 
ATOM     30  C   LIG    1        4.397   2.634   0.021  0.00  0.00    -0.110 A 
ENDBRANCH  19  23
ENDBRANCH  17  19
ENDBRANCH   1  17
TORSDOF 5
