REMARK  Name = ZINCzw00000008Th.1
REMARK                            x       y       z     vdW  Elec       q    Type
REMARK                         _______ _______ _______ _____ _____    ______ ____
ROOT
ATOM      1  N   LIG    1       -0.700   1.560   1.217  0.00  0.00    -0.530 NA
ATOM      2  C   LIG    1       -0.610   3.022   1.335  0.00  0.00    +0.220 C 
ATOM      3  C   LIG    1       -1.387   3.479   2.571  0.00  0.00    +0.270 C 
ATOM      4  N   LIG    1       -0.826   2.838   3.768  0.00  0.00    -0.380 N 
ATOM      5  C   LIG    1       -0.946   1.379   3.646  0.00  0.00    +0.280 C 
ATOM      6  H   LIG    1        0.147   3.089   3.858  0.00  0.00    +0.430 HD
ATOM      7  C   LIG    1       -0.165   0.904   2.418  0.00  0.00    +0.220 C 
ENDROOT
BRANCH   1   8
ATOM      8  C   LIG    1       -0.013   1.086   0.008  0.00  0.00    +0.180 C 
BRANCH   8   9
ATOM      9  C   LIG    1       -0.753   1.593  -1.232  0.00  0.00    +0.310 C 
BRANCH   9  24
ATOM     10  O   LIG    1        1.189   2.949  -2.457  0.00  0.00    -0.500 OA
ATOM     11  C   LIG    1        0.901   1.887  -2.975  0.00  0.00    +0.580 A 
ATOM     12  C   LIG    1        1.616   1.443  -4.181  0.00  0.00    -0.170 A 
ATOM     13  C   LIG    1        2.622   2.198  -4.765  0.00  0.00    +0.150 A 
ATOM     14  C   LIG    1        3.265   1.740  -5.909  0.00  0.00    +0.000 A 
ATOM     15  C   LIG    1        2.933   0.548  -6.487  0.00  0.00    +0.110 A 
ATOM     16  C   LIG    1        1.918  -0.247  -5.926  0.00  0.00    -0.080 A 
ATOM     17  C   LIG    1        1.539  -1.481  -6.484  0.00  0.00    +0.110 A 
ATOM     18  C   LIG    1        0.547  -2.218  -5.904  0.00  0.00    +0.000 A 
ATOM     19  C   LIG    1       -0.111  -1.781  -4.760  0.00  0.00    +0.150 A 
ATOM     20  C   LIG    1        0.233  -0.569  -4.179  0.00  0.00    -0.170 A 
ATOM     21  C   LIG    1       -0.432  -0.062  -2.969  0.00  0.00    +0.570 A 
ATOM     22  O   LIG    1       -1.315  -0.713  -2.446  0.00  0.00    -0.490 OA
ATOM     23  C   LIG    1        1.257   0.208  -4.766  0.00  0.00    +0.010 A 
ATOM     24  N   LIG    1       -0.067   1.120  -2.437  0.00  0.00    -0.560 N 
ENDBRANCH   9  24
ENDBRANCH   8   9
ENDBRANCH   1   8
BRANCH   4  25
ATOM     25  C   LIG    1       -1.561   3.292   4.956  0.00  0.00    +0.250 C 
BRANCH  25  26
ATOM     26  C   LIG    1       -1.333   4.792   5.155  0.00  0.00    +0.270 C 
BRANCH  26  27
ATOM     27  C   LIG    1       -2.087   5.257   6.374  0.00  0.00    -0.090 A 
ATOM     28  C   LIG    1       -1.518   5.134   7.627  0.00  0.00    +0.040 A 
ATOM     29  C   LIG    1       -2.207   5.565   8.745  0.00  0.00    +0.110 A 
ATOM     30  C   LIG    1       -3.470   6.110   8.611  0.00  0.00    -0.030 A 
ATOM     31  C   LIG    1       -4.042   6.228   7.358  0.00  0.00    +0.110 A 
ATOM     32  C   LIG    1       -3.351   5.801   6.239  0.00  0.00    +0.050 A 
BRANCH  30  33
ATOM     33  N   LIG    1       -4.211   6.567   9.808  0.00  0.00    +0.020 N 
ATOM     34  O   LIG    1       -3.707   6.462  10.912  0.00  0.00    -0.140 OA
ATOM     35  O   LIG    1       -5.324   7.047   9.690  0.00  0.00    -0.140 OA
ENDBRANCH  30  33
ENDBRANCH  26  27
BRANCH  26  36
ATOM     36  O   LIG    1        0.062   5.043   5.333  0.00  0.00    -0.540 OA
ATOM     37  H   LIG    1        0.448   4.592   6.096  0.00  0.00    +0.390 HD
ENDBRANCH  26  36
ENDBRANCH  25  26
ENDBRANCH   4  25
TORSDOF 8
