REMARK  Name = ZINCrH000004ouI9.0
REMARK                            x       y       z     vdW  Elec       q    Type
REMARK                         _______ _______ _______ _____ _____    ______ ____
ROOT
ATOM      1  C   LIG    1       -1.478   3.608   0.054  0.00  0.00    +0.500 C 
ATOM      2  N   LIG    1       -1.289   4.872  -0.374  0.00  0.00    -0.600 N 
ATOM      3  C   LIG    1       -2.065   5.413  -1.500  0.00  0.00    +0.290 C 
ATOM      4  C   LIG    1       -2.943   6.567  -0.987  0.00  0.00    +0.110 C 
ATOM      5  C   LIG    1       -2.108   7.467  -0.108  0.00  0.00    +0.090 A 
ATOM      6  C   LIG    1       -0.934   7.103   0.451  0.00  0.00    -0.190 A 
ATOM      7  C   LIG    1       -0.455   8.232   1.219  0.00  0.00    -0.070 A 
ATOM      8  C   LIG    1        0.688   8.432   1.999  0.00  0.00    +0.040 A 
ATOM      9  C   LIG    1        0.823   9.671   2.603  0.00  0.00    +0.070 A 
ATOM     10  C   LIG    1       -0.127  10.670   2.445  0.00  0.00    +0.010 A 
ATOM     11  C   LIG    1       -1.264  10.492   1.676  0.00  0.00    +0.040 A 
ATOM     12  F   LIG    1        1.909   9.915   3.367  0.00  0.00    -0.140 F 
ATOM     13  C   LIG    1       -1.425   9.254   1.057  0.00  0.00    +0.090 A 
ATOM     14  N   LIG    1       -2.408   8.757   0.248  0.00  0.00    -0.580 N 
ATOM     15  H   LIG    1       -3.199   9.244  -0.031  0.00  0.00    +0.420 HD
ATOM     16  C   LIG    1       -0.293   5.748   0.269  0.00  0.00    +0.390 C 
ATOM     17  O   LIG    1       -2.250   2.879  -0.532  0.00  0.00    -0.530 OA
ENDROOT
BRANCH   1  18
ATOM     18  C   LIG    1       -0.732   3.102   1.261  0.00  0.00    +0.130 C 
ATOM     19  C   LIG    1       -1.376   3.661   2.531  0.00  0.00    +0.080 C 
BRANCH  18  21
ATOM     20  C   LIG    1       -0.144   1.014   0.022  0.00  0.00    +0.040 C 
ATOM     21  C   LIG    1       -0.789   1.573   1.292  0.00  0.00    +0.040 C 
BRANCH  21  22
ATOM     22  C   LIG    1       -0.042   1.067   2.499  0.00  0.00    -0.080 A 
ATOM     23  C   LIG    1        1.303   1.349   2.649  0.00  0.00    +0.030 A 
ATOM     24  C   LIG    1        1.987   0.888   3.758  0.00  0.00    +0.000 A 
ATOM     25  C   LIG    1        1.328   0.137   4.713  0.00  0.00    +0.000 A 
ATOM     26  C   LIG    1       -0.016  -0.150   4.561  0.00  0.00    +0.000 A 
ATOM     27  C   LIG    1       -0.701   0.315   3.454  0.00  0.00    +0.000 A 
ENDBRANCH  21  22
ENDBRANCH  18  21
BRANCH  18  28
ATOM     28  O   LIG    1        0.631   3.527   1.192  0.00  0.00    -0.540 OA
ATOM     29  H   LIG    1        1.103   3.208   0.410  0.00  0.00    +0.380 HD
ENDBRANCH  18  28
ENDBRANCH   1  18
TORSDOF 4
