REMARK  Name = ZINCpe00000cc6qn.0
REMARK                            x       y       z     vdW  Elec       q    Type
REMARK                         _______ _______ _______ _____ _____    ______ ____
ROOT
ATOM      1  C   LIG    1       -0.753   1.545  -5.894  0.00  0.00    +0.520 C 
ATOM      2  N   LIG    1       -0.145   1.928  -4.754  0.00  0.00    -0.610 N 
ATOM      3  C   LIG    1        1.274   2.316  -4.749  0.00  0.00    +0.300 C 
ATOM      4  C   LIG    1        1.991   1.528  -3.648  0.00  0.00    +0.170 C 
ATOM      5  N   LIG    1        1.289   1.725  -2.373  0.00  0.00    -0.530 NA
ATOM      6  C   LIG    1       -0.079   1.193  -2.430  0.00  0.00    +0.170 C 
ATOM      7  C   LIG    1       -0.881   1.968  -3.481  0.00  0.00    +0.280 C 
ATOM      8  O   LIG    1       -0.131   1.517  -6.934  0.00  0.00    -0.540 OA
ENDROOT
BRANCH   1   9
ATOM      9  C   LIG    1       -2.208   1.151  -5.875  0.00  0.00    +0.030 C 
BRANCH   9  10
ATOM     10  C   LIG    1       -2.649   0.762  -7.288  0.00  0.00    +0.320 C 
BRANCH  10  16
ATOM     11  O   LIG    1       -4.962   2.421  -7.679  0.00  0.00    -0.530 OA
ATOM     12  C   LIG    1       -5.082   1.234  -7.462  0.00  0.00    +0.510 C 
ATOM     13  C   LIG    1       -6.402   0.499  -7.367  0.00  0.00    +0.050 C 
ATOM     14  C   LIG    1       -6.042  -0.839  -6.680  0.00  0.00    +0.040 C 
ATOM     15  C   LIG    1       -4.548  -0.988  -7.048  0.00  0.00    +0.250 C 
ATOM     16  N   LIG    1       -4.063   0.379  -7.270  0.00  0.00    -0.620 N 
ENDBRANCH  10  16
ENDBRANCH   9  10
ENDBRANCH   1   9
BRANCH   5  17
ATOM     17  C   LIG    1        2.040   1.127  -1.261  0.00  0.00    +0.160 C 
BRANCH  17  18
ATOM     18  C   LIG    1        3.231   2.021  -0.911  0.00  0.00    +0.260 C 
BRANCH  18  19
ATOM     19  C   LIG    1        4.009   1.402   0.222  0.00  0.00    -0.120 A 
ATOM     20  C   LIG    1        3.568   1.548   1.524  0.00  0.00    +0.010 A 
ATOM     21  C   LIG    1        4.279   0.977   2.562  0.00  0.00    +0.000 A 
ATOM     22  C   LIG    1        5.435   0.266   2.300  0.00  0.00    +0.000 A 
ATOM     23  C   LIG    1        5.879   0.124   0.998  0.00  0.00    +0.000 A 
ATOM     24  C   LIG    1        5.165   0.693  -0.041  0.00  0.00    +0.010 A 
ENDBRANCH  18  19
BRANCH  18  25
ATOM     25  O   LIG    1        2.759   3.311  -0.516  0.00  0.00    -0.540 OA
ATOM     26  H   LIG    1        2.177   3.297   0.256  0.00  0.00    +0.370 HD
ENDBRANCH  18  25
ENDBRANCH  17  18
ENDBRANCH   5  17
TORSDOF 7
