REMARK  Name = ZINCqH0000000fpY.0
REMARK                            x       y       z     vdW  Elec       q    Type
REMARK                         _______ _______ _______ _____ _____    ______ ____
ROOT
ATOM      1  N   LIG    1        0.142   3.767  -2.730  0.00  0.00    -0.600 N 
ATOM      2  C   LIG    1       -0.234   3.091  -1.626  0.00  0.00    +0.540 C 
ATOM      3  O   LIG    1       -1.131   3.518  -0.930  0.00  0.00    -0.510 OA
ENDROOT
BRANCH   2   4
ATOM      4  C   LIG    1        0.460   1.806  -1.256  0.00  0.00    -0.050 C 
ATOM      5  C   LIG    1        1.335   1.811  -0.001  0.00  0.00    +0.070 C 
ATOM      6  C   LIG    1       -0.013   1.086   0.008  0.00  0.00    +0.040 C 
BRANCH   6   7
ATOM      7  C   LIG    1       -1.137   1.716   0.789  0.00  0.00    -0.020 A 
ATOM      8  C   LIG    1       -0.982   2.987   1.314  0.00  0.00    +0.060 A 
ATOM      9  C   LIG    1       -2.009   3.572   2.026  0.00  0.00    +0.040 A 
ATOM     10  C   LIG    1       -3.202   2.874   2.225  0.00  0.00    -0.030 A 
ATOM     11  C   LIG    1       -3.349   1.590   1.697  0.00  0.00    +0.050 A 
ATOM     12  C   LIG    1       -2.317   1.020   0.982  0.00  0.00    +0.020 A 
BRANCH  10  13
ATOM     13  C   LIG    1       -4.270   3.473   2.968  0.00  0.00    +0.250 C 
ATOM     14  N   LIG    1       -5.117   3.949   3.557  0.00  0.00    -0.420 NA
ENDBRANCH  10  13
ENDBRANCH   6   7
ENDBRANCH   2   4
BRANCH   1  15
ATOM     15  C   LIG    1        1.226   3.252  -3.570  0.00  0.00    +0.320 C 
BRANCH  15  17
ATOM     16  C   LIG    1        0.905   2.572  -5.893  0.00  0.00    +0.030 C 
ATOM     17  C   LIG    1        0.653   2.344  -4.628  0.00  0.00    -0.070 C 
ENDBRANCH  15  17
ENDBRANCH   1  15
BRANCH   1  18
ATOM     18  C   LIG    1       -0.532   5.017  -3.089  0.00  0.00    +0.350 C 
BRANCH  18  19
ATOM     19  C   LIG    1        0.181   6.176  -2.443  0.00  0.00    -0.110 A 
ATOM     20  C   LIG    1        1.213   6.811  -3.111  0.00  0.00    +0.050 A 
ATOM     21  C   LIG    1        1.873   7.877  -2.525  0.00  0.00    +0.020 A 
ATOM     22  C   LIG    1        1.506   8.313  -1.269  0.00  0.00    +0.060 A 
ATOM     23  C   LIG    1        0.465   7.677  -0.589  0.00  0.00    -0.030 A 
ATOM     24  C   LIG    1       -0.201   6.606  -1.189  0.00  0.00    +0.090 A 
BRANCH  23  25
ATOM     25  C   LIG    1        0.078   8.126   0.715  0.00  0.00    +0.250 C 
ATOM     26  N   LIG    1       -0.229   8.481   1.749  0.00  0.00    -0.410 NA
ENDBRANCH  23  25
ENDBRANCH  18  19
ENDBRANCH   1  18
TORSDOF 8
