REMARK  Name = ZINCpk000000n3Qw.0
REMARK                            x       y       z     vdW  Elec       q    Type
REMARK                         _______ _______ _______ _____ _____    ______ ____
ROOT
ATOM      1  C   LIG    1       -1.416   4.071   0.037  0.00  0.00    +0.000 C 
ATOM      2  C   LIG    1       -0.708   3.567  -1.222  0.00  0.00    +0.030 C 
ATOM      3  C   LIG    1       -0.722   2.036  -1.235  0.00  0.00    +0.060 C 
ATOM      4  C   LIG    1       -0.018   1.507   0.010  0.00  0.00    +0.130 C 
ATOM      5  N   LIG    1        1.401   1.883  -0.001  0.00  0.00    -0.710 N 
ATOM      6  H   LIG    1        1.764   2.783  -0.000  0.00  0.00    +0.440 HD
ATOM      7  C   LIG    1        2.100   0.732  -0.014  0.00  0.00    +0.710 C 
ATOM      8  N   LIG    1        1.307  -0.347  -0.012  0.00  0.00    -0.560 N 
ATOM      9  O   LIG    1        3.314   0.678  -0.026  0.00  0.00    -0.540 OA
ATOM     10  C   LIG    1       -0.698   2.022   1.274  0.00  0.00    +0.050 C 
ATOM     11  C   LIG    1        0.002  -0.004   0.002  0.00  0.00    +0.540 C 
ATOM     12  O   LIG    1       -0.953  -0.751   0.006  0.00  0.00    -0.460 OA
ATOM     13  C   LIG    1       -0.684   3.553   1.277  0.00  0.00    +0.030 C 
ENDROOT
BRANCH   1  15
ATOM     14  C   LIG    1       -2.145   6.119  -1.193  0.00  0.00    +0.020 C 
ATOM     15  C   LIG    1       -1.412   5.601   0.046  0.00  0.00    -0.060 C 
ATOM     16  C   LIG    1        0.031   6.108   0.034  0.00  0.00    +0.020 C 
ATOM     17  C   LIG    1       -2.120   6.106   1.305  0.00  0.00    +0.020 C 
ENDBRANCH   1  15
BRANCH   8  18
ATOM     18  C   LIG    1        1.795  -1.728  -0.024  0.00  0.00    +0.360 C 
BRANCH  18  19
ATOM     19  C   LIG    1        1.949  -2.194  -1.448  0.00  0.00    +0.500 C 
ATOM     20  N   LIG    1        2.389  -3.442  -1.705  0.00  0.00    -0.720 N 
ATOM     21  H   LIG    1        2.606  -4.040  -0.973  0.00  0.00    +0.400 HD
ATOM     22  O   LIG    1        1.678  -1.447  -2.364  0.00  0.00    -0.520 OA
BRANCH  20  23
ATOM     23  C   LIG    1        2.538  -3.896  -3.090  0.00  0.00    +0.220 C 
ATOM     24  C   LIG    1        3.518  -5.092  -3.166  0.00  0.00    +0.030 C 
ATOM     25  C   LIG    1        2.550  -6.302  -3.198  0.00  0.00    +0.200 C 
ATOM     26  O   LIG    1        1.446  -5.829  -3.998  0.00  0.00    -0.370 OA
ATOM     27  C   LIG    1        1.207  -4.464  -3.619  0.00  0.00    +0.190 C 
ENDBRANCH  20  23
ENDBRANCH  18  19
ENDBRANCH   8  18
TORSDOF 4
