REMARK  Name = ZINCrg000000pabQ.1
REMARK                            x       y       z     vdW  Elec       q    Type
REMARK                         _______ _______ _______ _____ _____    ______ ____
ROOT
ATOM      1  C   LIG    1       -4.954   1.480  -1.225  0.00  0.00    +0.560 C 
ATOM      2  N   LIG    1       -6.284   1.699  -1.250  0.00  0.00    -0.720 N 
ATOM      3  H   LIG    1       -6.737   2.022  -0.455  0.00  0.00    +0.400 HD
ATOM      4  O   LIG    1       -4.386   1.076  -2.220  0.00  0.00    -0.530 OA
ENDROOT
BRANCH   1   7
ATOM      5  C   LIG    1       -2.088   1.742   1.202  0.00  0.00    +0.210 A 
ATOM      6  C   LIG    1       -2.809   1.506   0.041  0.00  0.00    +0.040 A 
ATOM      7  C   LIG    1       -4.186   1.732   0.014  0.00  0.00    -0.090 A 
ATOM      8  C   LIG    1       -4.837   2.195   1.155  0.00  0.00    +0.030 A 
ATOM      9  C   LIG    1       -4.109   2.432   2.321  0.00  0.00    +0.020 A 
ATOM     10  C   LIG    1       -2.733   2.199   2.342  0.00  0.00    +0.010 A 
BRANCH   5  12
ATOM     11  C   LIG    1       -0.027   1.027   0.024  0.00  0.00    +0.280 C 
ATOM     12  N   LIG    1       -0.709   1.514   1.225  0.00  0.00    -0.630 N 
ATOM     13  C   LIG    1        0.054   1.764   2.450  0.00  0.00    +0.280 C 
ENDBRANCH   5  12
BRANCH   9  14
ATOM     14  C   LIG    1       -4.774   2.908   3.497  0.00  0.00    +0.250 C 
ATOM     15  N   LIG    1       -5.301   3.287   4.429  0.00  0.00    -0.410 NA
ENDBRANCH   9  14
ENDBRANCH   1   7
BRANCH   2  16
ATOM     16  C   LIG    1       -7.044   1.450  -2.477  0.00  0.00    +0.230 C 
ATOM     17  C   LIG    1       -6.980   2.686  -3.378  0.00  0.00    +0.040 C 
ATOM     18  C   LIG    1       -7.825   2.442  -4.630  0.00  0.00    +0.180 C 
ATOM     19  N   LIG    1       -9.214   2.172  -4.239  0.00  0.00    -0.520 NA
ATOM     20  C   LIG    1       -9.307   0.962  -3.412  0.00  0.00    +0.180 C 
ATOM     21  C   LIG    1       -8.505   1.161  -2.123  0.00  0.00    +0.040 C 
BRANCH  19  22
ATOM     22  C   LIG    1      -10.084   2.070  -5.419  0.00  0.00    +0.130 C 
ATOM     23  C   LIG    1      -10.191   3.438  -6.132  0.00  0.00    +0.060 C 
ATOM     24  C   LIG    1      -11.471   4.025  -5.496  0.00  0.00    +0.270 C 
ATOM     25  N   LIG    1      -12.259   2.865  -5.063  0.00  0.00    -0.620 N 
ATOM     26  C   LIG    1      -13.686   2.912  -4.734  0.00  0.00    +0.290 C 
ATOM     27  C   LIG    1      -11.504   1.755  -5.005  0.00  0.00    +0.530 C 
ATOM     28  O   LIG    1      -11.903   0.660  -4.669  0.00  0.00    -0.530 OA
ENDBRANCH  19  22
ENDBRANCH   2  16
TORSDOF 5
