REMARK  Name = ZINCpk000000mJZn.0
REMARK                            x       y       z     vdW  Elec       q    Type
REMARK                         _______ _______ _______ _____ _____    ______ ____
ROOT
ATOM      1  C   LIG    1        2.384   0.923   0.668  0.00  0.00    +0.270 A 
ATOM      2  C   LIG    1        2.103  -0.205   1.430  0.00  0.00    -0.060 A 
ATOM      3  C   LIG    1        3.122  -0.879   2.070  0.00  0.00    +0.080 A 
ATOM      4  C   LIG    1        4.430  -0.433   1.969  0.00  0.00    -0.050 A 
ATOM      5  C   LIG    1        4.729   0.686   1.223  0.00  0.00    +0.080 A 
ATOM      6  C   LIG    1        3.709   1.377   0.564  0.00  0.00    -0.210 A 
ENDROOT
BRANCH   6   7
ATOM      7  C   LIG    1        4.021   2.575  -0.236  0.00  0.00    +0.570 C 
ATOM      8  N   LIG    1        4.684   3.606   0.325  0.00  0.00    -0.600 N 
ATOM      9  C   LIG    1        5.184   3.513   1.703  0.00  0.00    +0.270 C 
ATOM     10  C   LIG    1        4.661   4.713   2.499  0.00  0.00    +0.030 C 
ATOM     11  C   LIG    1        5.047   6.006   1.776  0.00  0.00    +0.020 C 
ATOM     12  C   LIG    1        4.402   6.029   0.389  0.00  0.00    +0.150 C 
ATOM     13  C   LIG    1        4.926   4.841  -0.433  0.00  0.00    +0.250 C 
ATOM     14  O   LIG    1        3.680   2.634  -1.402  0.00  0.00    -0.540 OA
BRANCH  12  15
ATOM     15  O   LIG    1        4.737   7.250  -0.273  0.00  0.00    -0.560 OA
ATOM     16  H   LIG    1        4.361   7.333  -1.160  0.00  0.00    +0.380 HD
ENDBRANCH  12  15
ENDBRANCH   6   7
BRANCH   1  17
ATOM     17  N   LIG    1        1.361   1.600   0.019  0.00  0.00    -0.720 N 
ATOM     18  H   LIG    1        1.548   2.429  -0.448  0.00  0.00    +0.410 HD
BRANCH  17  22
ATOM     19  N   LIG    1       -1.989   1.958   0.901  0.00  0.00    -0.620 N 
ATOM     20  C   LIG    1       -2.218   1.774  -0.537  0.00  0.00    +0.260 C 
ATOM     21  C   LIG    1       -0.815   1.603  -1.160  0.00  0.00    +0.050 C 
ATOM     22  C   LIG    1       -0.002   1.062   0.039  0.00  0.00    +0.240 C 
ATOM     23  C   LIG    1       -0.751   1.561   1.255  0.00  0.00    +0.500 C 
ATOM     24  O   LIG    1       -0.301   1.598   2.381  0.00  0.00    -0.510 OA
BRANCH  19  25
ATOM     25  C   LIG    1       -2.978   2.505   1.832  0.00  0.00    +0.330 C 
BRANCH  25  27
ATOM     26  C   LIG    1       -3.905   1.228   3.696  0.00  0.00    +0.040 C 
ATOM     27  C   LIG    1       -3.809   1.382   2.398  0.00  0.00    -0.080 C 
ENDBRANCH  25  27
ENDBRANCH  19  25
ENDBRANCH  17  22
ENDBRANCH   1  17
TORSDOF 6
