REMARK  Name = ZINCpe00000My5lu.0
REMARK                            x       y       z     vdW  Elec       q    Type
REMARK                         _______ _______ _______ _____ _____    ______ ____
ROOT
ATOM      1  N   LIG    1        4.657   2.352   3.599  0.00  0.00    -1.100 NA
ATOM      2  H   LIG    1        5.140   2.168   4.420  0.00  0.00    +0.420 HD
ENDROOT
BRANCH   1   9
ATOM      3  C   LIG    1        2.437  -1.093   2.678  0.00  0.00    +0.220 A 
ATOM      4  N   LIG    1        3.460  -1.815   2.296  0.00  0.00    -0.310 NA
ATOM      5  N   LIG    1        4.533  -0.933   2.136  0.00  0.00    -0.370 N 
ATOM      6  C   LIG    1        5.902  -1.236   1.719  0.00  0.00    +0.310 C 
ATOM      7  C   LIG    1        6.584   0.065   1.281  0.00  0.00    +0.050 C 
ATOM      8  C   LIG    1        6.389   1.133   2.362  0.00  0.00    +0.050 C 
ATOM      9  C   LIG    1        4.912   1.547   2.402  0.00  0.00    +0.360 C 
ATOM     10  C   LIG    1        4.072   0.294   2.442  0.00  0.00    +0.250 A 
ATOM     11  N   LIG    1        2.814   0.184   2.765  0.00  0.00    -0.510 NA
BRANCH   3  13
ATOM     12  C   LIG    1        0.960  -2.002   4.451  0.00  0.00    +0.040 C 
ATOM     13  C   LIG    1        1.056  -1.620   2.973  0.00  0.00    +0.130 C 
ENDBRANCH   3  13
ENDBRANCH   1   9
BRANCH   1  14
ATOM     14  S   LIG    1        3.542   3.577   3.551  0.00  0.00    +2.720 S 
ATOM     15  O   LIG    1        3.503   4.134   4.858  0.00  0.00    -0.960 OA
ATOM     16  O   LIG    1        3.835   4.340   2.389  0.00  0.00    -0.960 OA
BRANCH  14  17
ATOM     17  C   LIG    1        1.967   2.837   3.278  0.00  0.00    -0.790 A 
ATOM     18  C   LIG    1        1.402   2.589   2.073  0.00  0.00    +0.380 A 
ATOM     19  N   LIG    1        0.198   2.021   2.293  0.00  0.00    -0.340 N 
ATOM     20  N   LIG    1        0.020   1.909   3.678  0.00  0.00    -0.280 NA
ATOM     21  C   LIG    1        1.081   2.398   4.267  0.00  0.00    +0.340 A 
BRANCH  19  22
ATOM     22  C   LIG    1       -0.753   1.593   1.264  0.00  0.00    +0.240 C 
ATOM     23  C   LIG    1       -1.552   2.804   0.708  0.00  0.00    +0.020 C 
ATOM     24  C   LIG    1       -1.880   2.309  -0.724  0.00  0.00    +0.220 C 
ATOM     25  O   LIG    1       -0.722   1.569  -1.139  0.00  0.00    -0.370 OA
ATOM     26  C   LIG    1       -0.013   1.086   0.008  0.00  0.00    +0.210 C 
ENDBRANCH  19  22
ENDBRANCH  14  17
ENDBRANCH   1  14
TORSDOF 5
