REMARK  Name = ZINCnE000001FvVq.0
REMARK                            x       y       z     vdW  Elec       q    Type
REMARK                         _______ _______ _______ _____ _____    ______ ____
ROOT
ATOM      1  C   LIG    1       -0.786   1.469   1.099  0.00  0.00    +0.550 C 
ATOM      2  N   LIG    1       -0.306   0.941   2.242  0.00  0.00    -0.560 N 
ATOM      3  C   LIG    1       -0.894   1.136   3.572  0.00  0.00    +0.300 C 
ATOM      4  C   LIG    1        0.005   0.341   4.521  0.00  0.00    -0.020 C 
ATOM      5  C   LIG    1        1.074  -0.258   3.647  0.00  0.00    -0.170 A 
ATOM      6  C   LIG    1        2.158  -1.065   3.947  0.00  0.00    +0.140 A 
ATOM      7  C   LIG    1        3.008  -1.491   2.940  0.00  0.00    -0.060 A 
ATOM      8  C   LIG    1        2.771  -1.109   1.633  0.00  0.00    +0.080 A 
ATOM      9  C   LIG    1        1.693  -0.305   1.330  0.00  0.00    +0.000 A 
ATOM     10  F   LIG    1        2.387  -1.437   5.225  0.00  0.00    -0.140 F 
ATOM     11  C   LIG    1        0.616   1.260   5.588  0.00  0.00    +0.030 C 
ATOM     12  C   LIG    1       -0.294   1.054   6.827  0.00  0.00    +0.020 C 
ATOM     13  C   LIG    1       -0.626  -0.459   6.762  0.00  0.00    +0.020 C 
ATOM     14  C   LIG    1       -0.786  -0.748   5.253  0.00  0.00    +0.040 C 
ATOM     15  C   LIG    1        0.831   0.130   2.337  0.00  0.00    +0.190 A 
ATOM     16  O   LIG    1       -0.278   1.178   0.037  0.00  0.00    -0.510 OA
ENDROOT
BRANCH   1  17
ATOM     17  C   LIG    1       -1.954   2.420   1.141  0.00  0.00    -0.090 C 
BRANCH  17  18
ATOM     18  C   LIG    1       -3.234   1.653   0.929  0.00  0.00    +0.510 C 
ATOM     19  O   LIG    1       -3.394   1.004  -0.090  0.00  0.00    -0.670 OA
ATOM     20  O   LIG    1       -4.109   1.681   1.778  0.00  0.00    -0.690 OA
ENDBRANCH  17  18
BRANCH  17  21
ATOM     21  C   LIG    1       -1.799   3.467   0.036  0.00  0.00    +0.050 C 
BRANCH  21  23
ATOM     22  C   LIG    1       -2.762   5.552  -0.948  0.00  0.00    +0.000 C 
ATOM     23  C   LIG    1       -2.917   4.504   0.156  0.00  0.00    +0.010 C 
ENDBRANCH  21  23
ENDBRANCH  17  21
ENDBRANCH   1  17
TORSDOF 4
