REMARK  Name = ZINCah0000002m1w.0
REMARK                            x       y       z     vdW  Elec       q    Type
REMARK                         _______ _______ _______ _____ _____    ______ ____
ROOT
ATOM      1  C   LIG    1       -2.143   1.058   1.278  0.00  0.00    +0.270 A 
ATOM      2  N   LIG    1       -2.976   1.353   0.321  0.00  0.00    -0.460 NA
ATOM      3  S   LIG    1       -4.430   0.571   0.724  0.00  0.00    +0.250 S 
ATOM      4  C   LIG    1       -3.817  -0.116   2.179  0.00  0.00    +0.080 A 
ATOM      5  N   LIG    1       -2.573   0.287   2.248  0.00  0.00    -0.490 NA
ENDROOT
BRANCH   1   7
ATOM      6  C   LIG    1       -0.013   1.086   0.008  0.00  0.00    +0.060 C 
ATOM      7  C   LIG    1       -0.729   1.579   1.267  0.00  0.00    +0.090 C 
ATOM      8  C   LIG    1       -0.750   3.109   1.275  0.00  0.00    +0.060 C 
ENDBRANCH   1   7
BRANCH   4   9
ATOM      9  C   LIG    1       -4.550  -0.997   3.158  0.00  0.00    +0.330 C 
BRANCH   9  10
ATOM     10  O   LIG    1       -5.180  -0.184   4.151  0.00  0.00    -0.560 OA
ATOM     11  H   LIG    1       -5.671  -0.685   4.816  0.00  0.00    +0.400 HD
ENDBRANCH   9  10
ENDBRANCH   4   9
TORSDOF 3
