REMARK  Name = ZINCvU0000000CQS.1
REMARK                            x       y       z     vdW  Elec       q    Type
REMARK                         _______ _______ _______ _____ _____    ______ ____
ROOT
ATOM      1  C   LIG    1        4.383  -1.703  -0.048  0.00  0.00    +0.600 C 
ATOM      2  N   LIG    1        4.649  -2.332   1.114  0.00  0.00    -0.720 N 
ATOM      3  H   LIG    1        4.473  -1.888   1.958  0.00  0.00    +0.400 HD
ATOM      4  O   LIG    1        4.604  -2.260  -1.107  0.00  0.00    -0.520 OA
ENDROOT
BRANCH   1   6
ATOM      5  C   LIG    1        4.514   0.829  -0.036  0.00  0.00    +0.100 A 
ATOM      6  C   LIG    1        3.823  -0.343  -0.036  0.00  0.00    -0.230 A 
ATOM      7  C   LIG    1        2.396   0.034  -0.021  0.00  0.00    -0.100 A 
ATOM      8  C   LIG    1        1.203  -0.681  -0.013  0.00  0.00    +0.060 A 
ATOM      9  C   LIG    1        0.002  -0.004   0.002  0.00  0.00    +0.000 A 
ATOM     10  C   LIG    1       -0.017   1.382   0.010  0.00  0.00    +0.050 A 
ATOM     11  C   LIG    1        1.160   2.101   0.002  0.00  0.00    +0.040 A 
ATOM     12  C   LIG    1        2.380   1.437  -0.013  0.00  0.00    +0.050 A 
ATOM     13  O   LIG    1        3.660   1.860  -0.023  0.00  0.00    -0.180 OA
BRANCH   5  14
ATOM     14  C   LIG    1        6.016   0.949  -0.049  0.00  0.00    +0.140 C 
BRANCH  14  15
ATOM     15  C   LIG    1        6.511   0.998  -1.496  0.00  0.00    +0.020 C 
BRANCH  15  17
ATOM     16  C   LIG    1        8.531   1.168  -2.957  0.00  0.00    +0.020 C 
ATOM     17  C   LIG    1        8.036   1.119  -1.510  0.00  0.00    +0.000 C 
ENDBRANCH  15  17
ENDBRANCH  14  15
ENDBRANCH   5  14
ENDBRANCH   1   6
BRANCH   2  18
ATOM     18  C   LIG    1        5.207  -3.687   1.102  0.00  0.00    +0.290 C 
ATOM     19  C   LIG    1        4.070  -4.705   0.981  0.00  0.00    +0.030 C 
BRANCH  18  20
ATOM     20  C   LIG    1        5.964  -3.930   2.381  0.00  0.00    -0.120 A 
ATOM     21  C   LIG    1        5.464  -3.455   3.580  0.00  0.00    +0.030 A 
ATOM     22  C   LIG    1        6.153  -3.681   4.755  0.00  0.00    -0.040 A 
ATOM     23  C   LIG    1        7.356  -4.376   4.731  0.00  0.00    +0.120 A 
ATOM     24  C   LIG    1        7.858  -4.847   3.524  0.00  0.00    +0.000 A 
ATOM     25  C   LIG    1        7.161  -4.622   2.353  0.00  0.00    +0.050 A 
BRANCH  23  26
ATOM     26  N   LIG    1        8.059  -4.601   5.917  0.00  0.00    -0.490 N 
ATOM     27  C   LIG    1        8.302  -6.036   6.121  0.00  0.00    +0.200 C 
ATOM     28  C   LIG    1        9.140  -6.233   7.386  0.00  0.00    +0.190 C 
ATOM     29  N   LIG    1        8.432  -5.653   8.536  0.00  0.00    -0.550 NA
ATOM     30  C   LIG    1        8.189  -4.218   8.332  0.00  0.00    +0.190 C 
ATOM     31  C   LIG    1        9.171  -5.889   9.783  0.00  0.00    +0.190 C 
ATOM     32  C   LIG    1        7.351  -4.021   7.067  0.00  0.00    +0.200 C 
ENDBRANCH  23  26
ENDBRANCH  18  20
ENDBRANCH   2  18
TORSDOF 7
