REMARK  Name = ZINCqH0000036IJQ.1
REMARK                            x       y       z     vdW  Elec       q    Type
REMARK                         _______ _______ _______ _____ _____    ______ ____
ROOT
ATOM      1  N   LIG    1        3.627   1.839  -0.023  0.00  0.00    -0.720 N 
ATOM      2  H   LIG    1        3.590   2.808  -0.017  0.00  0.00    +0.400 HD
ATOM      3  C   LIG    1        2.487   1.121  -0.016  0.00  0.00    +0.570 C 
ATOM      4  O   LIG    1        2.533  -0.094  -0.024  0.00  0.00    -0.530 OA
ENDROOT
BRANCH   3   5
ATOM      5  C   LIG    1        1.179   1.810   0.001  0.00  0.00    -0.190 A 
ATOM      6  C   LIG    1       -0.013   1.076   0.008  0.00  0.00    +0.140 A 
ATOM      7  C   LIG    1       -1.210   1.769   0.017  0.00  0.00    -0.010 A 
ATOM      8  C   LIG    1       -1.191   3.152   0.030  0.00  0.00    +0.160 A 
ATOM      9  N   LIG    1       -0.052   3.818   0.023  0.00  0.00    -0.480 NA
ATOM     10  C   LIG    1        1.112   3.204   0.009  0.00  0.00    +0.290 A 
BRANCH   8  11
ATOM     11  C   LIG    1       -2.493   3.911   0.046  0.00  0.00    +0.250 C 
BRANCH  11  12
ATOM     12  N   LIG    1       -2.843   4.255   1.431  0.00  0.00    -0.540 NA
ATOM     13  C   LIG    1       -4.211   4.782   1.514  0.00  0.00    +0.190 C 
ATOM     14  C   LIG    1       -1.877   5.206   1.997  0.00  0.00    +0.190 C 
ENDBRANCH  11  12
ENDBRANCH   8  11
ENDBRANCH   3   5
BRANCH   1  16
ATOM     15  C   LIG    1        5.330   0.798   1.391  0.00  0.00    +0.030 C 
ATOM     16  C   LIG    1        4.923   1.155  -0.040  0.00  0.00    +0.320 C 
BRANCH  16  17
ATOM     17  C   LIG    1        5.962   2.063  -0.645  0.00  0.00    -0.180 A 
ATOM     18  C   LIG    1        5.928   3.405  -0.679  0.00  0.00    +0.230 A 
ATOM     19  N   LIG    1        7.044   3.884  -1.310  0.00  0.00    -0.480 N 
ATOM     20  C   LIG    1        7.844   2.836  -1.707  0.00  0.00    +0.110 A 
ATOM     21  C   LIG    1        9.063   2.761  -2.373  0.00  0.00    +0.010 A 
ATOM     22  C   LIG    1        9.626   1.529  -2.632  0.00  0.00    -0.010 A 
ATOM     23  C   LIG    1        8.987   0.361  -2.236  0.00  0.00    +0.000 A 
ATOM     24  C   LIG    1        7.789   0.413  -1.582  0.00  0.00    +0.080 A 
ATOM     25 CL   LIG    1       11.147   1.438  -3.464  0.00  0.00    -0.070 Cl
ATOM     26  C   LIG    1        7.343   5.301  -1.530  0.00  0.00    +0.310 C 
ATOM     27  C   LIG    1        7.205   1.650  -1.303  0.00  0.00    -0.090 A 
ENDBRANCH  16  17
ENDBRANCH   1  16
TORSDOF 5
