REMARK  Name = ZINCrD000000BNtq.0
REMARK                            x       y       z     vdW  Elec       q    Type
REMARK                         _______ _______ _______ _____ _____    ______ ____
ROOT
ATOM      1  O   LIG    1        0.105  -0.130   2.412  0.00  0.00    -0.510 OA
ATOM      2  C   LIG    1       -0.575   0.877   2.369  0.00  0.00    +0.590 C 
ATOM      3  N   LIG    1       -0.698   1.558   1.213  0.00  0.00    -0.720 N 
ATOM      4  H   LIG    1       -1.241   2.362   1.179  0.00  0.00    +0.390 HD
ENDROOT
BRANCH   2   5
ATOM      5  C   LIG    1       -1.267   1.353   3.584  0.00  0.00    -0.130 A 
ATOM      6  C   LIG    1       -2.044   2.513   3.539  0.00  0.00    +0.070 A 
ATOM      7  C   LIG    1       -2.691   2.951   4.672  0.00  0.00    -0.020 A 
ATOM      8  C   LIG    1       -2.564   2.247   5.864  0.00  0.00    +0.180 A 
ATOM      9  C   LIG    1       -1.786   1.095   5.915  0.00  0.00    +0.010 A 
ATOM     10  C   LIG    1       -1.140   0.648   4.784  0.00  0.00    +0.110 A 
BRANCH   8  11
ATOM     11  N   LIG    1       -3.218   2.697   7.015  0.00  0.00    -0.330 N 
ATOM     12  C   LIG    1       -4.001   3.804   7.109  0.00  0.00    +0.230 A 
ATOM     13  C   LIG    1       -4.445   3.884   8.384  0.00  0.00    -0.100 A 
ATOM     14  C   LIG    1       -3.913   2.803   9.095  0.00  0.00    +0.250 A 
ATOM     15  N   LIG    1       -3.179   2.092   8.278  0.00  0.00    -0.290 NA
ENDBRANCH   8  11
ENDBRANCH   2   5
BRANCH   3  16
ATOM     16  C   LIG    1       -0.013   1.086   0.008  0.00  0.00    +0.300 C 
BRANCH  16  17
ATOM     17  C   LIG    1       -0.742   1.585  -1.213  0.00  0.00    -0.100 A 
ATOM     18  C   LIG    1       -1.257   2.868  -1.234  0.00  0.00    +0.010 A 
ATOM     19  C   LIG    1       -1.922   3.327  -2.355  0.00  0.00    +0.010 A 
ATOM     20  C   LIG    1       -2.079   2.501  -3.453  0.00  0.00    +0.000 A 
ATOM     21  C   LIG    1       -1.568   1.216  -3.430  0.00  0.00    +0.010 A 
ATOM     22  C   LIG    1       -0.899   0.759  -2.310  0.00  0.00    +0.010 A 
ENDBRANCH  16  17
BRANCH  16  23
ATOM     23  C   LIG    1        1.423   1.615  -0.003  0.00  0.00    +0.140 C 
BRANCH  23  24
ATOM     24  C   LIG    1        2.187   1.018   1.151  0.00  0.00    +0.200 A 
ATOM     25  N   LIG    1        1.838   1.079   2.407  0.00  0.00    -0.450 NA
ATOM     26  C   LIG    1        2.752   0.438   3.151  0.00  0.00    +0.140 A 
ATOM     27  C   LIG    1        3.708  -0.030   2.325  0.00  0.00    +0.110 A 
ATOM     28  N   LIG    1        3.350   0.338   1.056  0.00  0.00    -0.570 N 
ATOM     29  H   LIG    1        3.840   0.146   0.241  0.00  0.00    +0.410 HD
ENDBRANCH  23  24
ENDBRANCH  16  23
ENDBRANCH   3  16
TORSDOF 6
