REMARK  Name = ZINCrD000000BoPW.0
REMARK                            x       y       z     vdW  Elec       q    Type
REMARK                         _______ _______ _______ _____ _____    ______ ____
ROOT
ATOM      1  C   LIG    1        5.772   7.800  -0.779  0.00  0.00    -0.010 C 
ATOM      2  C   LIG    1        4.384   8.437  -0.871  0.00  0.00    +0.060 C 
ATOM      3  C   LIG    1        3.484   7.852   0.223  0.00  0.00    +0.280 C 
ATOM      4  N   LIG    1        3.486   6.388   0.104  0.00  0.00    -0.610 N 
ATOM      5  C   LIG    1        4.773   5.681   0.096  0.00  0.00    +0.280 C 
ATOM      6  C   LIG    1        2.327   5.706   0.009  0.00  0.00    +0.550 C 
ATOM      7  O   LIG    1        1.272   6.307  -0.074  0.00  0.00    -0.540 OA
ATOM      8  C   LIG    1        5.658   6.290  -1.002  0.00  0.00    +0.030 C 
ENDROOT
BRANCH   1  10
ATOM      9  O   LIG    1        6.241   9.247  -2.583  0.00  0.00    -0.530 OA
ATOM     10  C   LIG    1        6.669   8.396  -1.832  0.00  0.00    +0.520 C 
ATOM     11  N   LIG    1        7.948   7.985  -1.940  0.00  0.00    -0.730 N 
ATOM     12  H   LIG    1        8.291   7.304  -1.340  0.00  0.00    +0.400 HD
BRANCH  11  13
ATOM     13  C   LIG    1        8.820   8.565  -2.965  0.00  0.00    +0.320 C 
BRANCH  13  14
ATOM     14  C   LIG    1       10.188   7.938  -2.874  0.00  0.00    -0.120 A 
ATOM     15  C   LIG    1       11.155   8.505  -2.065  0.00  0.00    +0.070 A 
ATOM     16  C   LIG    1       12.408   7.927  -1.977  0.00  0.00    -0.020 A 
ATOM     17  C   LIG    1       12.697   6.787  -2.708  0.00  0.00    +0.110 A 
ATOM     18  C   LIG    1       11.729   6.223  -3.521  0.00  0.00    -0.020 A 
ATOM     19  F   LIG    1       13.923   6.226  -2.627  0.00  0.00    -0.140 F 
ATOM     20  C   LIG    1       10.475   6.799  -3.603  0.00  0.00    +0.070 A 
ENDBRANCH  13  14
ENDBRANCH  11  13
ENDBRANCH   1  10
BRANCH   6  21
ATOM     21  C   LIG    1        2.338   4.242   0.007  0.00  0.00    -0.090 C 
ATOM     22  C   LIG    1        1.175   3.559   0.014  0.00  0.00    +0.130 C 
BRANCH  22  23
ATOM     23  C   LIG    1        1.186   2.087   0.012  0.00  0.00    -0.080 A 
ATOM     24  C   LIG    1       -0.018   1.375   0.019  0.00  0.00    +0.040 A 
ATOM     25  C   LIG    1        0.000  -0.003   0.017  0.00  0.00    +0.010 A 
ATOM     26  C   LIG    1        1.206  -0.683   0.007  0.00  0.00    +0.020 A 
ATOM     27  C   LIG    1        2.402   0.014  -0.000  0.00  0.00    +0.010 A 
ATOM     28  C   LIG    1        2.400   1.393   0.002  0.00  0.00    +0.030 A 
ENDBRANCH  22  23
ENDBRANCH   6  21
TORSDOF 5
