REMARK  Name = ZINCpk00000KfLGu.0
REMARK                            x       y       z     vdW  Elec       q    Type
REMARK                         _______ _______ _______ _____ _____    ______ ____
ROOT
ATOM      1  N   LIG    1        7.708  -1.330   5.705  0.00  0.00    -0.340 N 
ATOM      2  N   LIG    1        8.167  -0.445   4.899  0.00  0.00    -0.220 NA
ATOM      3  C   LIG    1        7.670  -0.253   3.703  0.00  0.00    +0.070 A 
ATOM      4  C   LIG    1        8.270   0.820   2.829  0.00  0.00    +0.150 C 
ATOM      5  C   LIG    1        7.851   0.598   1.375  0.00  0.00    +0.200 C 
ATOM      6  N   LIG    1        6.389   0.438   1.324  0.00  0.00    -0.530 NA
ATOM      7  C   LIG    1        5.997  -0.858   1.890  0.00  0.00    +0.270 C 
ATOM      8  C   LIG    1        6.597  -1.033   3.257  0.00  0.00    -0.020 A 
ATOM      9  C   LIG    1        6.085  -1.983   4.096  0.00  0.00    -0.040 A 
ATOM     10  C   LIG    1        6.674  -2.124   5.370  0.00  0.00    +0.480 A 
ATOM     11  O   LIG    1        6.252  -2.956   6.158  0.00  0.00    -0.530 OA
ENDROOT
BRANCH   1  13
ATOM     12  C   LIG    1        9.461  -2.502   6.945  0.00  0.00    +0.030 C 
ATOM     13  C   LIG    1        8.325  -1.480   7.026  0.00  0.00    +0.310 C 
ENDBRANCH   1  13
BRANCH   6  14
ATOM     14  C   LIG    1        5.892   0.585  -0.051  0.00  0.00    +0.300 C 
BRANCH  14  15
ATOM     15  C   LIG    1        4.386   0.641  -0.036  0.00  0.00    +0.080 A 
ATOM     16  C   LIG    1        3.640   1.766  -0.023  0.00  0.00    +0.120 A 
ATOM     17  N   LIG    1        2.328   1.379  -0.013  0.00  0.00    -0.400 N 
ATOM     18  C   LIG    1        1.156   2.078   0.002  0.00  0.00    +0.150 A 
ATOM     19  C   LIG    1       -0.017   1.398   0.010  0.00  0.00    -0.050 A 
ATOM     20  C   LIG    1        0.002  -0.004   0.002  0.00  0.00    +0.200 A 
ATOM     21  N   LIG    1        1.143  -0.652  -0.012  0.00  0.00    -0.450 NA
ATOM     22  C   LIG    1       -1.295  -0.771   0.011  0.00  0.00    +0.160 C 
ATOM     23  C   LIG    1        1.165   3.585   0.010  0.00  0.00    +0.160 C 
ATOM     24  C   LIG    1        2.310   0.008  -0.020  0.00  0.00    +0.390 A 
ATOM     25  N   LIG    1        3.566  -0.414  -0.034  0.00  0.00    -0.470 NA
ENDBRANCH  14  15
ENDBRANCH   6  14
TORSDOF 3
