REMARK  Name = ZINCrg00000fSBvm.0
REMARK                            x       y       z     vdW  Elec       q    Type
REMARK                         _______ _______ _______ _____ _____    ______ ____
ROOT
ATOM      1  O   LIG    1       -0.511  -4.953  -0.866  0.00  0.00    -0.570 OA
ATOM      2  C   LIG    1        0.472  -4.310  -0.552  0.00  0.00    +0.720 C 
ATOM      3  N   LIG    1        0.412  -2.964  -0.510  0.00  0.00    -0.630 N 
ATOM      4  C   LIG    1       -0.881  -2.277  -0.380  0.00  0.00    +0.290 C 
ATOM      5  C   LIG    1       -1.026  -1.283  -1.538  0.00  0.00    +0.300 C 
ATOM      6  N   LIG    1        0.199  -0.476  -1.622  0.00  0.00    -1.000 NA
ATOM      7  C   LIG    1        1.491  -1.163  -1.758  0.00  0.00    +0.300 C 
ATOM      8  C   LIG    1        1.638  -2.157  -0.594  0.00  0.00    +0.260 C 
ATOM      9  N   LIG    1        1.623  -4.943  -0.247  0.00  0.00    -0.630 N 
ATOM     10  C   LIG    1        2.757  -4.211   0.339  0.00  0.00    +0.240 C 
ATOM     11  C   LIG    1        3.226  -4.975   1.587  0.00  0.00    +0.220 C 
ATOM     12  O   LIG    1        3.464  -6.341   1.239  0.00  0.00    -0.380 OA
ATOM     13  C   LIG    1        2.302  -7.041   0.789  0.00  0.00    +0.220 C 
ATOM     14  C   LIG    1        1.783  -6.384  -0.495  0.00  0.00    +0.280 C 
ENDROOT
BRANCH   6  15
ATOM     15  S   LIG    1        0.125   1.177  -1.570  0.00  0.00    +2.690 S 
ATOM     16  O   LIG    1       -1.203   1.531  -1.934  0.00  0.00    -0.920 OA
ATOM     17  O   LIG    1        1.272   1.652  -2.261  0.00  0.00    -0.920 OA
BRANCH  15  18
ATOM     18  C   LIG    1        0.324   1.656   0.114  0.00  0.00    -0.620 A 
ATOM     19  C   LIG    1        0.236   0.709   1.116  0.00  0.00    +0.140 A 
ATOM     20  C   LIG    1        0.398   1.083   2.437  0.00  0.00    +0.090 A 
ATOM     21  C   LIG    1        0.636   2.408   2.756  0.00  0.00    +0.010 A 
ATOM     22  C   LIG    1        0.718   3.357   1.753  0.00  0.00    +0.120 A 
ATOM     23 CL   LIG    1        0.833   2.879   4.415  0.00  0.00    -0.010 Cl
ATOM     24  C   LIG    1        0.562   2.980   0.432  0.00  0.00    +0.060 A 
BRANCH  24  25
ATOM     25  N   LIG    1        0.650   3.995  -0.642  0.00  0.00    +0.010 N 
ATOM     26  O   LIG    1        0.367   3.695  -1.788  0.00  0.00    -0.150 OA
ATOM     27  O   LIG    1        1.004   5.131  -0.379  0.00  0.00    -0.100 OA
ENDBRANCH  24  25
ENDBRANCH  15  18
ENDBRANCH   6  15
TORSDOF 3
