REMARK  Name = ZINCpe000000Yq9C.0
REMARK                            x       y       z     vdW  Elec       q    Type
REMARK                         _______ _______ _______ _____ _____    ______ ____
ROOT
ATOM      1  N   LIG    1        1.083   3.401   0.009  0.00  0.00    -0.470 N 
ATOM      2  C   LIG    1        1.833   3.949  -1.129  0.00  0.00    +0.200 C 
ATOM      3  C   LIG    1        1.904   5.473  -1.009  0.00  0.00    +0.050 C 
ATOM      4  C   LIG    1        0.483   6.045  -0.986  0.00  0.00    +0.000 C 
ATOM      5  C   LIG    1       -0.290   5.422   0.179  0.00  0.00    +0.030 C 
ATOM      6  C   LIG    1       -0.298   3.900   0.025  0.00  0.00    +0.220 C 
ENDROOT
BRANCH   1  12
ATOM      7  C   LIG    1        4.049  -1.898  -0.046  0.00  0.00    +0.370 C 
ATOM      8  N   LIG    1        3.598  -0.504  -0.035  0.00  0.00    -0.380 N 
ATOM      9  N   LIG    1        4.425   0.626  -0.036  0.00  0.00    -0.250 NA
ATOM     10  C   LIG    1        3.694   1.705  -0.024  0.00  0.00    +0.310 A 
ATOM     11  C   LIG    1        2.335   1.324  -0.013  0.00  0.00    -0.300 A 
ATOM     12  C   LIG    1        1.111   2.021   0.002  0.00  0.00    +0.450 A 
ATOM     13  N   LIG    1       -0.016   1.317   0.009  0.00  0.00    -0.590 NA
ATOM     14  C   LIG    1        0.002  -0.004   0.002  0.00  0.00    +0.580 A 
ATOM     15  N   LIG    1        1.119  -0.698  -0.012  0.00  0.00    -0.560 NA
ATOM     16  C   LIG    1        2.301  -0.084  -0.020  0.00  0.00    +0.360 A 
ENDBRANCH   1  12
BRANCH   4  17
ATOM     17  C   LIG    1        0.545   7.563  -0.806  0.00  0.00    +0.060 C 
BRANCH  17  18
ATOM     18  C   LIG    1        1.199   8.186  -2.012  0.00  0.00    +0.520 C 
ATOM     19  N   LIG    1        1.362   9.522  -2.076  0.00  0.00    -0.620 N 
ATOM     20  C   LIG    1        0.904  10.394  -0.982  0.00  0.00    +0.250 C 
ATOM     21  C   LIG    1        2.066  11.321  -0.591  0.00  0.00    +0.220 C 
ATOM     22  O   LIG    1        2.557  11.978  -1.762  0.00  0.00    -0.380 OA
ATOM     23  C   LIG    1        3.101  11.093  -2.744  0.00  0.00    +0.220 C 
ATOM     24  C   LIG    1        1.997  10.153  -3.244  0.00  0.00    +0.260 C 
ATOM     25  O   LIG    1        1.578   7.484  -2.926  0.00  0.00    -0.530 OA
ENDBRANCH  17  18
ENDBRANCH   4  17
TORSDOF 3
