REMARK  Name = ZINCqH0000037bGJ.0
REMARK                            x       y       z     vdW  Elec       q    Type
REMARK                         _______ _______ _______ _____ _____    ______ ____
ROOT
ATOM      1  N   LIG    1       -1.361  -0.919   2.242  0.00  0.00    -0.740 N 
ATOM      2  H   LIG    1       -1.548  -1.805   2.591  0.00  0.00    +0.390 HD
ATOM      3  C   LIG    1       -2.365  -0.156   1.766  0.00  0.00    +0.720 C 
ATOM      4  N   LIG    1       -3.612  -0.659   1.683  0.00  0.00    -0.630 N 
ATOM      5  C   LIG    1       -4.694   0.121   1.067  0.00  0.00    +0.300 C 
ATOM      6  C   LIG    1       -5.865   0.205   2.045  0.00  0.00    +0.030 C 
ATOM      7  C   LIG    1       -6.272  -1.206   2.472  0.00  0.00    +0.060 C 
ATOM      8  C   LIG    1       -5.098  -1.886   3.180  0.00  0.00    +0.030 C 
ATOM      9  C   LIG    1       -3.917  -1.996   2.210  0.00  0.00    +0.270 C 
ATOM     10  O   LIG    1       -2.145   0.986   1.413  0.00  0.00    -0.580 OA
ENDROOT
BRANCH   7  11
ATOM     11  C   LIG    1       -7.447  -1.127   3.413  0.00  0.00    +0.200 A 
ATOM     12  N   LIG    1       -8.366  -2.061   3.366  0.00  0.00    -0.460 NA
ATOM     13  C   LIG    1       -9.425  -2.039   4.182  0.00  0.00    +0.310 A 
ATOM     14  N   LIG    1      -10.352  -3.001   4.128  0.00  0.00    -0.470 NA
ATOM     15  C   LIG    1      -11.398  -2.987   4.920  0.00  0.00    +0.330 A 
ATOM     16  C   LIG    1      -11.597  -1.975   5.855  0.00  0.00    -0.040 A 
ATOM     17  C   LIG    1      -10.688  -0.960   5.963  0.00  0.00    +0.100 A 
ATOM     18  C   LIG    1       -9.569  -0.980   5.112  0.00  0.00    -0.160 A 
ATOM     19  C   LIG    1       -8.589   0.028   5.163  0.00  0.00    +0.100 A 
ATOM     20  C   LIG    1       -7.530  -0.059   4.304  0.00  0.00    -0.020 A 
ENDBRANCH   7  11
BRANCH   1  22
ATOM     21  C   LIG    1        0.256   0.430   3.486  0.00  0.00    +0.050 C 
ATOM     22  C   LIG    1        0.013  -0.412   2.232  0.00  0.00    +0.360 C 
BRANCH  22  23
ATOM     23  C   LIG    1        0.977  -1.571   2.210  0.00  0.00    +0.040 A 
ATOM     24  N   LIG    1        2.016  -1.653   1.450  0.00  0.00    -0.460 NA
ATOM     25  C   LIG    1        2.755  -2.738   1.559  0.00  0.00    +0.220 A 
ATOM     26  C   LIG    1        2.315  -3.621   2.461  0.00  0.00    -0.070 A 
ATOM     27  S   LIG    1        0.855  -2.963   3.195  0.00  0.00    +0.120 S 
ENDBRANCH  22  23
ENDBRANCH   1  22
TORSDOF 3
