REMARK  Name = ZINCkj00000dE7rD.0
REMARK                            x       y       z     vdW  Elec       q    Type
REMARK                         _______ _______ _______ _____ _____    ______ ____
ROOT
ATOM      1  C   LIG    1       -0.016   1.344   0.009  0.00  0.00    +0.580 C 
ATOM      2  N   LIG    1        0.002  -0.004   0.002  0.00  0.00    -0.710 N 
ATOM      3  H   LIG    1       -0.831  -0.500   0.007  0.00  0.00    +0.400 HD
ATOM      4  O   LIG    1        1.029   1.966   0.003  0.00  0.00    -0.520 OA
ENDROOT
BRANCH   2   5
ATOM      5  C   LIG    1        1.281  -0.719  -0.014  0.00  0.00    +0.260 C 
ATOM      6  C   LIG    1        1.757  -0.960  -1.462  0.00  0.00    +0.080 C 
ATOM      7  C   LIG    1        2.434  -2.316  -1.433  0.00  0.00    -0.080 A 
ATOM      8  C   LIG    1        3.307  -2.901  -2.336  0.00  0.00    +0.020 A 
ATOM      9  C   LIG    1        3.812  -4.165  -2.100  0.00  0.00    +0.030 A 
ATOM     10  C   LIG    1        3.447  -4.853  -0.959  0.00  0.00    -0.010 A 
ATOM     11  C   LIG    1        2.573  -4.272  -0.052  0.00  0.00    +0.120 A 
ATOM     12  C   LIG    1        2.066  -3.000  -0.290  0.00  0.00    -0.130 A 
ATOM     13  C   LIG    1        1.113  -2.155   0.527  0.00  0.00    +0.090 C 
BRANCH  11  14
ATOM     14  O   LIG    1        2.213  -4.947   1.071  0.00  0.00    -0.500 OA
ATOM     15  H   LIG    1        1.424  -5.496   0.964  0.00  0.00    +0.390 HD
ENDBRANCH  11  14
ENDBRANCH   2   5
BRANCH   1  18
ATOM     16  C   LIG    1       -2.835   3.705   0.035  0.00  0.00    -0.110 A 
ATOM     17  C   LIG    1       -1.506   3.519   0.028  0.00  0.00    +0.090 A 
ATOM     18  C   LIG    1       -1.302   2.063   0.019  0.00  0.00    -0.230 A 
ATOM     19  C   LIG    1       -2.553   1.517   0.016  0.00  0.00    +0.300 A 
ATOM     20  O   LIG    1       -3.447   2.511   0.031  0.00  0.00    -0.160 OA
BRANCH  16  21
ATOM     21  C   LIG    1       -3.530   5.043   0.045  0.00  0.00    +0.410 C 
BRANCH  21  22
ATOM     22  N   LIG    1       -3.761   5.484  -1.337  0.00  0.00    -0.640 N 
ATOM     23  H   LIG    1       -4.339   4.809  -1.814  0.00  0.00    +0.440 HD
ATOM     24  H   LIG    1       -2.877   5.568  -1.816  0.00  0.00    +0.440 HD
ATOM     25  H   LIG    1       -4.226   6.380  -1.331  0.00  0.00    +0.440 HD
ENDBRANCH  21  22
ENDBRANCH  16  21
ENDBRANCH   1  18
TORSDOF 5
