REMARK  Name = ZINCpe00000xT4UC.0
REMARK                            x       y       z     vdW  Elec       q    Type
REMARK                         _______ _______ _______ _____ _____    ______ ____
ROOT
ATOM      1  C   LIG    1        4.399   1.190   2.219  0.00  0.00    -0.190 C 
ATOM      2  C   LIG    1        5.535   1.945   2.531  0.00  0.00    +0.200 A 
ATOM      3  S   LIG    1        6.267   3.138   1.531  0.00  0.00    +0.260 S 
ATOM      4  C   LIG    1        7.561   3.534   2.678  0.00  0.00    -0.310 A 
ATOM      5  C   LIG    1        7.312   2.656   3.821  0.00  0.00    +0.560 A 
ATOM      6  O   LIG    1        8.014   2.650   4.817  0.00  0.00    -0.470 OA
ATOM      7  C   LIG    1        8.562   4.449   2.527  0.00  0.00    +0.290 C 
ATOM      8  N   LIG    1        6.254   1.872   3.681  0.00  0.00    -0.530 N 
ENDROOT
BRANCH   7   9
ATOM      9  C   LIG    1        8.647   5.215   1.342  0.00  0.00    -0.050 A 
ATOM     10  C   LIG    1        9.602   6.171   1.058  0.00  0.00    +0.040 A 
ATOM     11  C   LIG    1        9.299   6.670  -0.218  0.00  0.00    -0.070 A 
ATOM     12  C   LIG    1        8.198   6.017  -0.652  0.00  0.00    +0.040 A 
ATOM     13  C   LIG    1        7.518   6.235  -1.979  0.00  0.00    +0.190 C 
ATOM     14  O   LIG    1        7.812   5.139   0.285  0.00  0.00    -0.160 OA
ENDBRANCH   7   9
BRANCH   1  17
ATOM     15  N   LIG    1        2.542   0.757   0.707  0.00  0.00    -0.720 N 
ATOM     16  H   LIG    1        2.261   0.038   1.295  0.00  0.00    +0.400 HD
ATOM     17  C   LIG    1        3.636   1.484   1.008  0.00  0.00    +0.590 C 
ATOM     18  O   LIG    1        3.990   2.386   0.270  0.00  0.00    -0.530 OA
BRANCH  15  19
ATOM     19  C   LIG    1        1.778   1.052  -0.508  0.00  0.00    +0.310 C 
BRANCH  19  21
ATOM     20  C   LIG    1       -0.605   0.571  -0.739  0.00  0.00    +0.040 C 
ATOM     21  C   LIG    1        0.612   0.102  -0.610  0.00  0.00    -0.060 C 
ENDBRANCH  19  21
ENDBRANCH  15  19
ENDBRANCH   1  17
BRANCH   1  22
ATOM     22  C   LIG    1        3.983   0.129   3.087  0.00  0.00    +0.260 C 
ATOM     23  N   LIG    1        3.654  -0.712   3.775  0.00  0.00    -0.410 NA
ENDBRANCH   1  22
BRANCH   8  24
ATOM     24  C   LIG    1        5.869   0.941   4.744  0.00  0.00    +0.340 C 
BRANCH  24  25
ATOM     25  C   LIG    1        6.446  -0.421   4.451  0.00  0.00    -0.080 C 
ATOM     26  C   LIG    1        7.195  -1.020   5.343  0.00  0.00    +0.070 C 
ENDBRANCH  24  25
ENDBRANCH   8  24
TORSDOF 7
