REMARK  Name = ZINCvU0000000CXw.0
REMARK                            x       y       z     vdW  Elec       q    Type
REMARK                         _______ _______ _______ _____ _____    ______ ____
ROOT
ATOM      1  C   LIG    1        3.717  -1.002   0.295  0.00  0.00    -0.690 A 
ATOM      2  C   LIG    1        4.878  -0.249   0.298  0.00  0.00    +0.180 A 
ATOM      3  C   LIG    1        4.817   1.129   0.202  0.00  0.00    +0.020 A 
ATOM      4  C   LIG    1        3.595   1.764   0.102  0.00  0.00    +0.070 A 
ATOM      5  C   LIG    1        2.418   1.009   0.098  0.00  0.00    -0.150 A 
ATOM      6 CL   LIG    1        3.519   3.494  -0.018  0.00  0.00    -0.010 Cl
ATOM      7  C   LIG    1        2.489  -0.381   0.201  0.00  0.00    +0.170 A 
ENDROOT
BRANCH   5   8
ATOM      8  C   LIG    1        1.107   1.680  -0.009  0.00  0.00    +0.560 C 
ATOM      9  N   LIG    1       -0.026   0.949  -0.013  0.00  0.00    -0.670 N 
ATOM     10  H   LIG    1        0.022  -0.020  -0.013  0.00  0.00    +0.410 HD
ATOM     11  O   LIG    1        1.048   2.891  -0.094  0.00  0.00    -0.490 OA
BRANCH   9  12
ATOM     12  C   LIG    1       -1.270   1.587  -0.022  0.00  0.00    +0.140 A 
ATOM     13  C   LIG    1       -1.437   2.777  -0.718  0.00  0.00    +0.020 A 
ATOM     14  C   LIG    1       -2.667   3.403  -0.724  0.00  0.00    +0.030 A 
ATOM     15  C   LIG    1       -3.737   2.849  -0.040  0.00  0.00    -0.110 A 
ATOM     16  C   LIG    1       -5.164   3.332   0.104  0.00  0.00    +0.080 C 
ATOM     17  C   LIG    1       -5.961   2.102   0.589  0.00  0.00    +0.030 C 
ATOM     18  C   LIG    1       -4.880   1.271   1.311  0.00  0.00    +0.080 C 
ATOM     19  C   LIG    1       -3.573   1.663   0.654  0.00  0.00    -0.080 A 
ATOM     20  C   LIG    1       -2.343   1.030   0.659  0.00  0.00    -0.010 A 
ENDBRANCH   9  12
ENDBRANCH   5   8
BRANCH   1  21
ATOM     21  S   LIG    1        3.808  -2.757   0.418  0.00  0.00    +2.690 S 
ATOM     22  O   LIG    1        5.101  -3.126  -0.042  0.00  0.00    -0.930 OA
ATOM     23  O   LIG    1        2.607  -3.262  -0.151  0.00  0.00    -0.940 OA
BRANCH  21  25
ATOM     24  C   LIG    1        2.483  -3.483   2.661  0.00  0.00    +0.320 C 
ATOM     25  N   LIG    1        3.759  -3.139   2.029  0.00  0.00    -0.950 N 
BRANCH  25  26
ATOM     26  C   LIG    1        4.934  -3.132   2.785  0.00  0.00    +0.110 A 
ATOM     27  C   LIG    1        5.985  -3.975   2.445  0.00  0.00    +0.070 A 
ATOM     28  C   LIG    1        7.147  -3.963   3.191  0.00  0.00    +0.010 A 
ATOM     29  C   LIG    1        7.262  -3.119   4.282  0.00  0.00    +0.110 A 
ATOM     30  C   LIG    1        6.215  -2.282   4.626  0.00  0.00    +0.000 A 
ATOM     31  F   LIG    1        8.399  -3.113   5.013  0.00  0.00    -0.130 F 
ATOM     32  C   LIG    1        5.052  -2.287   3.881  0.00  0.00    +0.050 A 
ENDBRANCH  25  26
ENDBRANCH  21  25
ENDBRANCH   1  21
TORSDOF 5
