REMARK  Name = ZINCrH000004ozKC.0
REMARK                            x       y       z     vdW  Elec       q    Type
REMARK                         _______ _______ _______ _____ _____    ______ ____
ROOT
ATOM      1  C   LIG    1       -2.482   0.853   0.018  0.00  0.00    -0.010 C 
ATOM      2  C   LIG    1       -2.557  -0.022  -1.235  0.00  0.00    +0.030 C 
ATOM      3  C   LIG    1       -3.858  -0.830  -1.213  0.00  0.00    +0.270 C 
ATOM      4  N   LIG    1       -4.987   0.096  -1.055  0.00  0.00    -0.620 N 
ATOM      5  C   LIG    1       -4.972   1.044   0.067  0.00  0.00    +0.280 C 
ATOM      6  C   LIG    1       -6.017   0.077  -1.925  0.00  0.00    +0.520 C 
ATOM      7  O   LIG    1       -6.943   0.847  -1.784  0.00  0.00    -0.540 OA
ATOM      8  C   LIG    1       -3.658   1.831   0.030  0.00  0.00    +0.050 C 
ENDROOT
BRANCH   1  11
ATOM      9  N   LIG    1       -0.011   0.966   0.007  0.00  0.00    -0.730 N 
ATOM     10  H   LIG    1        0.002  -0.004   0.002  0.00  0.00    +0.400 HD
ATOM     11  C   LIG    1       -1.187   1.624   0.017  0.00  0.00    +0.520 C 
ATOM     12  O   LIG    1       -1.204   2.837   0.023  0.00  0.00    -0.530 OA
BRANCH   9  18
ATOM     13  C   LIG    1        3.516   2.905   1.421  0.00  0.00    +0.020 C 
ATOM     14  C   LIG    1        3.675   1.633   0.585  0.00  0.00    -0.010 C 
ATOM     15  C   LIG    1        4.035   2.010  -0.853  0.00  0.00    +0.010 C 
ATOM     16  C   LIG    1        2.922   2.875  -1.448  0.00  0.00    +0.010 C 
ATOM     17  C   LIG    1        1.608   2.092  -1.439  0.00  0.00    +0.000 C 
ATOM     18  C   LIG    1        1.248   1.716  -0.001  0.00  0.00    +0.240 C 
ATOM     19  C   LIG    1        2.361   0.850   0.594  0.00  0.00    -0.020 C 
ATOM     20  C   LIG    1        2.000   0.473   2.032  0.00  0.00    +0.020 C 
ENDBRANCH   9  18
ENDBRANCH   1  11
BRANCH   6  21
ATOM     21  C   LIG    1       -6.018  -0.901  -3.071  0.00  0.00    +0.060 C 
BRANCH  21  22
ATOM     22  C   LIG    1       -7.290  -0.716  -3.899  0.00  0.00    +0.090 C 
BRANCH  22  23
ATOM     23  C   LIG    1       -7.291  -1.694  -5.045  0.00  0.00    -0.080 A 
ATOM     24  C   LIG    1       -6.732  -1.338  -6.259  0.00  0.00    +0.000 A 
ATOM     25  C   LIG    1       -6.729  -2.237  -7.309  0.00  0.00    +0.000 A 
ATOM     26  C   LIG    1       -7.293  -3.489  -7.148  0.00  0.00    +0.000 A 
ATOM     27  C   LIG    1       -7.856  -3.843  -5.937  0.00  0.00    +0.000 A 
ATOM     28  C   LIG    1       -7.855  -2.946  -4.885  0.00  0.00    +0.000 A 
ENDBRANCH  22  23
ENDBRANCH  21  22
ENDBRANCH   6  21
TORSDOF 5
