REMARK  Name = ZINCqH0000000oxH.0
REMARK                            x       y       z     vdW  Elec       q    Type
REMARK                         _______ _______ _______ _____ _____    ______ ____
ROOT
ATOM      1  C   LIG    1       -6.465   1.562   1.182  0.00  0.00    +0.150 A 
ATOM      2  C   LIG    1       -7.354   2.490   1.708  0.00  0.00    +0.010 A 
ATOM      3  C   LIG    1       -8.709   2.224   1.710  0.00  0.00    +0.030 A 
ATOM      4  C   LIG    1       -9.181   1.024   1.198  0.00  0.00    +0.070 A 
ATOM      5  C   LIG    1       -8.292   0.093   0.678  0.00  0.00    +0.040 A 
ATOM      6  C   LIG    1       -6.938   0.361   0.670  0.00  0.00    +0.040 A 
ENDROOT
BRANCH   1   8
ATOM      7  C   LIG    1       -4.324   1.401   0.154  0.00  0.00    +0.520 C 
ATOM      8  N   LIG    1       -5.091   1.835   1.174  0.00  0.00    -0.670 N 
ATOM      9  H   LIG    1       -4.691   2.335   1.902  0.00  0.00    +0.410 HD
ATOM     10  O   LIG    1       -4.806   0.705  -0.715  0.00  0.00    -0.510 OA
BRANCH   7  17
ATOM     11  C   LIG    1        1.442   2.448   2.006  0.00  0.00    +0.100 C 
ATOM     12  C   LIG    1       -0.033   2.184   2.165  0.00  0.00    +0.510 C 
ATOM     13  N   LIG    1       -0.706   1.522   1.204  0.00  0.00    -0.610 N 
ATOM     14  C   LIG    1       -0.016   1.051  -0.005  0.00  0.00    +0.260 C 
ATOM     15  C   LIG    1       -0.759   1.578  -1.237  0.00  0.00    +0.020 C 
ATOM     16  C   LIG    1       -2.231   1.165  -1.156  0.00  0.00    +0.060 C 
ATOM     17  C   LIG    1       -2.867   1.782   0.092  0.00  0.00    -0.010 C 
ATOM     18  C   LIG    1       -2.148   1.258   1.339  0.00  0.00    +0.300 C 
ATOM     19  O   LIG    1       -0.614   2.568   3.158  0.00  0.00    -0.540 OA
ENDBRANCH   7  17
ENDBRANCH   1   8
BRANCH   4  20
ATOM     20  O   LIG    1      -10.514   0.759   1.206  0.00  0.00    -0.240 OA
BRANCH  20  21
ATOM     21  C   LIG    1      -10.983  -0.124   2.124  0.00  0.00    +0.320 A 
ATOM     22  C   LIG    1      -12.351  -0.339   2.234  0.00  0.00    -0.020 A 
ATOM     23  C   LIG    1      -12.816  -1.247   3.170  0.00  0.00    +0.130 A 
ATOM     24  C   LIG    1      -11.892  -1.902   3.974  0.00  0.00    -0.130 A 
ATOM     25  C   LIG    1      -10.546  -1.633   3.813  0.00  0.00    +0.330 A 
ATOM     26 CL   LIG    1      -12.422  -3.044   5.169  0.00  0.00    -0.050 Cl
ATOM     27  N   LIG    1      -10.133  -0.767   2.908  0.00  0.00    -0.510 NA
ENDBRANCH  20  21
ENDBRANCH   4  20
TORSDOF 4
