REMARK  Name = ZINCtj00000nPL8D.0
REMARK                            x       y       z     vdW  Elec       q    Type
REMARK                         _______ _______ _______ _____ _____    ______ ____
ROOT
ATOM      1  C   LIG    1       -0.033   5.865  -0.844  0.00  0.00    +0.570 C 
ATOM      2  N   LIG    1       -1.222   6.486  -0.708  0.00  0.00    -0.610 N 
ATOM      3  C   LIG    1       -1.292   7.947  -0.546  0.00  0.00    +0.290 C 
ATOM      4  C   LIG    1       -2.245   8.251   0.624  0.00  0.00    +0.240 C 
ATOM      5  C   LIG    1       -1.759   7.447   1.851  0.00  0.00    +0.040 C 
ATOM      6  C   LIG    1       -2.481   6.087   1.745  0.00  0.00    +0.040 C 
ATOM      7  C   LIG    1       -3.338   6.193   0.463  0.00  0.00    +0.210 C 
ATOM      8  N   LIG    1       -3.558   7.649   0.288  0.00  0.00    -0.610 N 
ATOM      9  C   LIG    1       -4.689   8.279  -0.090  0.00  0.00    +0.490 C 
ATOM     10  O   LIG    1       -4.678   9.475  -0.293  0.00  0.00    -0.510 OA
ATOM     11  C   LIG    1       -2.477   5.718  -0.726  0.00  0.00    +0.280 C 
ATOM     12  O   LIG    1        0.999   6.503  -0.757  0.00  0.00    -0.520 OA
ENDROOT
BRANCH   9  13
ATOM     13  C   LIG    1       -5.966   7.498  -0.258  0.00  0.00    +0.230 C 
ATOM     14  C   LIG    1       -6.460   7.035   1.122  0.00  0.00    +0.270 C 
ATOM     15  N   LIG    1       -6.823   8.224   1.878  0.00  0.00    -0.400 N 
ATOM     16  C   LIG    1       -7.289   8.018   3.248  0.00  0.00    +0.250 C 
ATOM     17  C   LIG    1       -8.274   9.179   3.536  0.00  0.00    +0.080 C 
ATOM     18  C   LIG    1       -8.389   9.951   2.191  0.00  0.00    +0.090 C 
ATOM     19  C   LIG    1       -7.961   8.879   1.175  0.00  0.00    +0.160 C 
ATOM     20  C   LIG    1       -7.414   9.439  -0.130  0.00  0.00    +0.290 C 
ATOM     21  H   LIG    1       -6.034   8.854   1.887  0.00  0.00    +0.420 HD
ATOM     22  O   LIG    1       -6.938   8.322  -0.900  0.00  0.00    -0.330 OA
ENDBRANCH   9  13
BRANCH   1  26
ATOM     23  C   LIG    1        0.108   1.681  -1.574  0.00  0.00    +0.050 A 
ATOM     24  C   LIG    1       -0.953   2.441  -2.071  0.00  0.00    +0.040 A 
ATOM     25  C   LIG    1       -1.002   3.795  -1.830  0.00  0.00    +0.040 A 
ATOM     26  C   LIG    1        0.016   4.411  -1.097  0.00  0.00    -0.130 A 
ATOM     27  C   LIG    1        1.081   3.652  -0.605  0.00  0.00    +0.080 A 
ATOM     28  C   LIG    1        1.126   2.297  -0.842  0.00  0.00    +0.040 A 
BRANCH  23  30
ATOM     29  C   LIG    1        0.196  -0.885  -2.023  0.00  0.00    +0.090 C 
ATOM     30  C   LIG    1        0.156   0.271  -1.821  0.00  0.00    -0.180 C 
ENDBRANCH  23  30
ENDBRANCH   1  26
TORSDOF 3
