REMARK  Name = ZINCtj00000nPL8D.1
REMARK                            x       y       z     vdW  Elec       q    Type
REMARK                         _______ _______ _______ _____ _____    ______ ____
ROOT
ATOM      1  C   LIG    1       -0.026   5.808   0.384  0.00  0.00    +0.570 C 
ATOM      2  N   LIG    1       -1.207   6.433   0.207  0.00  0.00    -0.610 N 
ATOM      3  C   LIG    1       -1.272   7.899   0.100  0.00  0.00    +0.270 C 
ATOM      4  C   LIG    1       -2.400   8.395   1.022  0.00  0.00    +0.210 C 
ATOM      5  C   LIG    1       -2.135   7.835   2.437  0.00  0.00    +0.050 C 
ATOM      6  C   LIG    1       -2.868   6.459   2.444  0.00  0.00    +0.040 C 
ATOM      7  C   LIG    1       -3.495   6.333   1.038  0.00  0.00    +0.240 C 
ATOM      8  N   LIG    1       -3.651   7.734   0.578  0.00  0.00    -0.620 N 
ATOM      9  C   LIG    1       -4.689   8.279  -0.088  0.00  0.00    +0.540 C 
ATOM     10  O   LIG    1       -5.688   7.624  -0.295  0.00  0.00    -0.480 OA
ATOM     11  C   LIG    1       -2.458   5.664   0.111  0.00  0.00    +0.280 C 
ATOM     12  O   LIG    1        0.986   6.458   0.561  0.00  0.00    -0.520 OA
ENDROOT
BRANCH   9  13
ATOM     13  C   LIG    1       -4.606   9.703  -0.575  0.00  0.00    +0.170 C 
ATOM     14  C   LIG    1       -3.514   9.822  -1.635  0.00  0.00    +0.250 C 
ATOM     15  N   LIG    1       -3.415  11.204  -2.127  0.00  0.00    -0.390 N 
ATOM     16  C   LIG    1       -2.566  11.160  -3.350  0.00  0.00    +0.260 C 
ATOM     17  C   LIG    1       -3.515  10.917  -4.540  0.00  0.00    +0.070 C 
ATOM     18  C   LIG    1       -4.938  10.910  -3.927  0.00  0.00    +0.080 C 
ATOM     19  C   LIG    1       -4.728  11.681  -2.608  0.00  0.00    +0.140 C 
ATOM     20  C   LIG    1       -5.850  11.438  -1.623  0.00  0.00    +0.280 C 
ATOM     21  H   LIG    1       -3.037  11.819  -1.423  0.00  0.00    +0.430 HD
ATOM     22  O   LIG    1       -5.854  10.084  -1.168  0.00  0.00    -0.320 OA
ENDBRANCH   9  13
BRANCH   1  26
ATOM     23  C   LIG    1        0.160   1.562   0.324  0.00  0.00    +0.050 A 
ATOM     24  C   LIG    1       -0.809   2.229  -0.430  0.00  0.00    +0.040 A 
ATOM     25  C   LIG    1       -0.873   3.604  -0.406  0.00  0.00    +0.040 A 
ATOM     26  C   LIG    1        0.038   4.332   0.363  0.00  0.00    -0.140 A 
ATOM     27  C   LIG    1        1.010   3.664   1.113  0.00  0.00    +0.090 A 
ATOM     28  C   LIG    1        1.071   2.290   1.093  0.00  0.00    +0.040 A 
BRANCH  23  30
ATOM     29  C   LIG    1        0.274  -1.041   0.285  0.00  0.00    +0.090 C 
ATOM     30  C   LIG    1        0.223   0.131   0.302  0.00  0.00    -0.180 C 
ENDBRANCH  23  30
ENDBRANCH   1  26
TORSDOF 3
