REMARK  Name = ZINCrD000000B5PV.0
REMARK                            x       y       z     vdW  Elec       q    Type
REMARK                         _______ _______ _______ _____ _____    ______ ____
ROOT
ATOM      1  C   LIG    1        1.648   9.374   2.165  0.00  0.00    +0.190 A 
ATOM      2  N   LIG    1        2.503  10.054   2.901  0.00  0.00    -0.230 NA
ATOM      3  N   LIG    1        2.299  11.414   2.617  0.00  0.00    -0.330 N 
ATOM      4  C   LIG    1        1.294  11.466   1.692  0.00  0.00    +0.370 A 
ATOM      5  N   LIG    1        0.923  10.229   1.431  0.00  0.00    -0.500 NA
ENDROOT
BRANCH   3   6
ATOM      6  C   LIG    1        2.987  12.500   3.171  0.00  0.00    +0.120 A 
ATOM      7  C   LIG    1        3.448  13.523   2.352  0.00  0.00    +0.020 A 
ATOM      8  C   LIG    1        4.121  14.596   2.902  0.00  0.00    +0.040 A 
ATOM      9  C   LIG    1        4.348  14.646   4.266  0.00  0.00    +0.040 A 
ATOM     10  C   LIG    1        3.896  13.626   5.083  0.00  0.00    +0.040 A 
ATOM     11  C   LIG    1        3.217  12.554   4.540  0.00  0.00    +0.050 A 
ENDBRANCH   3   6
BRANCH   4  12
ATOM     12  C   LIG    1        0.732  12.685   1.091  0.00  0.00    -0.170 A 
ATOM     13  C   LIG    1        0.018  12.732  -0.055  0.00  0.00    +0.110 A 
ATOM     14  C   LIG    1       -0.408  13.992  -0.416  0.00  0.00    +0.000 A 
ATOM     15  C   LIG    1       -0.043  14.974   0.415  0.00  0.00    -0.030 A 
ATOM     16  S   LIG    1        0.890  14.309   1.749  0.00  0.00    +0.170 S 
ENDBRANCH   4  12
BRANCH   1  18
ATOM     17  O   LIG    1        2.229   7.217   2.851  0.00  0.00    -0.510 OA
ATOM     18  C   LIG    1        1.514   7.902   2.146  0.00  0.00    +0.610 C 
ATOM     19  N   LIG    1        0.598   7.319   1.347  0.00  0.00    -0.710 N 
ATOM     20  H   LIG    1        0.027   7.865   0.785  0.00  0.00    +0.410 HD
BRANCH  19  21
ATOM     21  C   LIG    1        0.465   5.860   1.329  0.00  0.00    +0.290 C 
BRANCH  21  22
ATOM     22  C   LIG    1       -0.637   5.460   0.346  0.00  0.00    +0.100 C 
BRANCH  22  23
ATOM     23  C   LIG    1       -0.774   3.960   0.327  0.00  0.00    +0.130 A 
ATOM     24  C   LIG    1       -2.005   3.383   0.576  0.00  0.00    -0.030 A 
ATOM     25  C   LIG    1       -2.121   2.001   0.551  0.00  0.00    +0.070 A 
ATOM     26  C   LIG    1       -0.987   1.249   0.285  0.00  0.00    -0.040 A 
ATOM     27  C   LIG    1        0.210   1.896   0.045  0.00  0.00    +0.270 A 
ATOM     28  N   LIG    1        0.282   3.212   0.072  0.00  0.00    -0.480 NA
ENDBRANCH  22  23
ENDBRANCH  21  22
ENDBRANCH  19  21
ENDBRANCH   1  18
TORSDOF 6
