REMARK  Name = ZINCrD00000bGMNb.0
REMARK                            x       y       z     vdW  Elec       q    Type
REMARK                         _______ _______ _______ _____ _____    ______ ____
ROOT
ATOM      1  C   LIG    1       -3.529   2.950   9.309  0.00  0.00    +0.540 C 
ATOM      2  N   LIG    1       -3.726   3.254   8.010  0.00  0.00    -0.620 N 
ATOM      3  C   LIG    1       -5.025   3.274   7.322  0.00  0.00    +0.260 C 
ATOM      4  C   LIG    1       -4.764   3.700   5.862  0.00  0.00    +0.050 C 
ATOM      5  C   LIG    1       -3.405   4.444   5.955  0.00  0.00    +0.090 C 
ATOM      6  C   LIG    1       -2.674   3.621   7.045  0.00  0.00    +0.270 C 
ATOM      7  O   LIG    1       -2.408   2.966   9.772  0.00  0.00    -0.530 OA
ENDROOT
BRANCH   5   8
ATOM      8  C   LIG    1       -2.665   4.383   4.644  0.00  0.00    +0.070 A 
ATOM      9  N   LIG    1       -2.291   5.416   3.960  0.00  0.00    -0.470 NA
ATOM     10  C   LIG    1       -1.649   5.198   2.840  0.00  0.00    +0.170 A 
ATOM     11  C   LIG    1       -1.476   3.873   2.548  0.00  0.00    -0.300 A 
ATOM     12  C   LIG    1       -1.149   6.308   1.951  0.00  0.00    +0.170 C 
ATOM     13  S   LIG    1       -2.203   2.939   3.854  0.00  0.00    +0.220 S 
BRANCH  11  14
ATOM     14  C   LIG    1       -0.803   3.329   1.366  0.00  0.00    +0.550 C 
ATOM     15  O   LIG    1       -0.339   4.081   0.531  0.00  0.00    -0.490 OA
BRANCH  14  16
ATOM     16  O   LIG    1       -0.698   1.994   1.205  0.00  0.00    -0.360 OA
BRANCH  16  17
ATOM     17  C   LIG    1       -0.019   1.526   0.010  0.00  0.00    +0.200 C 
ATOM     18  C   LIG    1        0.002  -0.004   0.002  0.00  0.00    +0.070 C 
ENDBRANCH  16  17
ENDBRANCH  14  16
ENDBRANCH  11  14
ENDBRANCH   5   8
BRANCH   1  19
ATOM     19  C   LIG    1       -4.701   2.591  10.185  0.00  0.00    +0.050 C 
BRANCH  19  20
ATOM     20  C   LIG    1       -4.206   2.292  11.601  0.00  0.00    +0.130 C 
BRANCH  20  21
ATOM     21  C   LIG    1       -5.397   1.927  12.491  0.00  0.00    +0.040 C 
ATOM     22  N   LIG    1       -6.615   1.417  11.857  0.00  0.00    -0.120 NA
ATOM     23  N   LIG    1       -6.681   2.591  12.251  0.00  0.00    -0.120 NA
BRANCH  21  24
ATOM     24  C   LIG    1       -5.063   1.470  13.912  0.00  0.00    +0.120 C 
BRANCH  24  25
ATOM     25  C   LIG    1       -6.358   1.147  14.661  0.00  0.00    +0.160 C 
BRANCH  25  27
ATOM     26  C   LIG    1       -5.781   0.356  17.119  0.00  0.00    +0.030 C 
ATOM     27  C   LIG    1       -6.037   0.707  16.028  0.00  0.00    -0.190 C 
ENDBRANCH  25  27
ENDBRANCH  24  25
ENDBRANCH  21  24
ENDBRANCH  20  21
ENDBRANCH  19  20
ENDBRANCH   1  19
TORSDOF 10
