REMARK  Name = ZINCqH0000005JQ4.0
REMARK                            x       y       z     vdW  Elec       q    Type
REMARK                         _______ _______ _______ _____ _____    ______ ____
ROOT
ATOM      1  C   LIG    1        4.995  -2.743  -0.064  0.00  0.00    +0.340 C 
ENDROOT
BRANCH   1   2
ATOM      2  C   LIG    1        4.802  -4.109  -0.671  0.00  0.00    -0.100 A 
ATOM      3  C   LIG    1        3.670  -4.845  -0.371  0.00  0.00    +0.050 A 
ATOM      4  C   LIG    1        3.493  -6.098  -0.928  0.00  0.00    +0.030 A 
ATOM      5  C   LIG    1        4.447  -6.615  -1.784  0.00  0.00    +0.090 A 
ATOM      6  C   LIG    1        5.578  -5.878  -2.085  0.00  0.00    -0.180 A 
ATOM      7  C   LIG    1        5.753  -4.624  -1.532  0.00  0.00    +0.100 A 
BRANCH   6   8
ATOM      8  C   LIG    1        6.617  -6.442  -3.020  0.00  0.00    +0.510 C 
ATOM      9  F   LIG    1        7.842  -6.540  -2.351  0.00  0.00    -0.170 F 
ATOM     10  F   LIG    1        6.756  -5.597  -4.126  0.00  0.00    -0.170 F 
ATOM     11  F   LIG    1        6.218  -7.712  -3.450  0.00  0.00    -0.170 F 
ENDBRANCH   6   8
ENDBRANCH   1   2
BRANCH   1  12
ATOM     12  N   LIG    1        3.715  -2.031  -0.047  0.00  0.00    -0.710 N 
ATOM     13  H   LIG    1        2.883  -2.529  -0.042  0.00  0.00    +0.410 HD
ATOM     14  C   LIG    1        3.694  -0.683  -0.038  0.00  0.00    +0.570 C 
ATOM     15  O   LIG    1        4.737  -0.059  -0.045  0.00  0.00    -0.520 OA
BRANCH  14  16
ATOM     16  C   LIG    1        2.403   0.035  -0.021  0.00  0.00    -0.140 A 
ATOM     17  C   LIG    1        1.204  -0.679  -0.014  0.00  0.00    +0.070 A 
ATOM     18  C   LIG    1        0.002  -0.004   0.002  0.00  0.00    -0.010 A 
ATOM     19  C   LIG    1       -0.017   1.382   0.010  0.00  0.00    +0.130 A 
ATOM     20  C   LIG    1        1.172   2.097   0.002  0.00  0.00    -0.120 A 
ATOM     21  C   LIG    1        1.143   3.603   0.011  0.00  0.00    +0.110 C 
ATOM     22  F   LIG    1       -1.197   2.039   0.019  0.00  0.00    -0.130 F 
ATOM     23  C   LIG    1        2.379   1.431  -0.013  0.00  0.00    +0.120 A 
ENDBRANCH  14  16
ENDBRANCH   1  12
BRANCH   1  24
ATOM     24  C   LIG    1        5.508  -2.888   1.346  0.00  0.00    +0.450 C 
ATOM     25  O   LIG    1        4.870  -2.442   2.270  0.00  0.00    -0.490 OA
BRANCH  24  27
ATOM     26  C   LIG    1        7.107  -3.615   2.957  0.00  0.00    +0.280 C 
ATOM     27  O   LIG    1        6.674  -3.513   1.575  0.00  0.00    -0.350 OA
ENDBRANCH  24  27
ENDBRANCH   1  24
TORSDOF 6
