REMARK  Name = ZINCkj00000dD3XM.0
REMARK                            x       y       z     vdW  Elec       q    Type
REMARK                         _______ _______ _______ _____ _____    ______ ____
ROOT
ATOM      1  C   LIG    1        3.630   5.898  -0.002  0.00  0.00    +0.230 C 
ENDROOT
BRANCH   1   2
ATOM      2  O   LIG    1        4.281   5.571  -1.231  0.00  0.00    -0.540 OA
ATOM      3  H   LIG    1        3.823   5.897  -2.018  0.00  0.00    +0.380 HD
ENDBRANCH   1   2
BRANCH   1   4
ATOM      4  C   LIG    1        3.531   7.419   0.133  0.00  0.00    +0.180 C 
BRANCH   4   8
ATOM      5  N   LIG    1        6.980   9.639   1.154  0.00  0.00    -0.390 N 
ATOM      6  C   LIG    1        6.243  10.026  -0.056  0.00  0.00    +0.280 C 
ATOM      7  C   LIG    1        4.821   9.465   0.012  0.00  0.00    +0.210 C 
ATOM      8  N   LIG    1        4.879   8.001   0.123  0.00  0.00    -0.530 NA
ATOM      9  C   LIG    1        5.636   7.598   1.317  0.00  0.00    +0.210 C 
ATOM     10  C   LIG    1        7.051   8.175   1.239  0.00  0.00    +0.270 C 
ATOM     11  H   LIG    1        6.504  10.000   1.968  0.00  0.00    +0.420 HD
BRANCH   5  13
ATOM     12  C   LIG    1        9.146   9.688   2.295  0.00  0.00    +0.080 C 
ATOM     13  C   LIG    1        8.339  10.193   1.097  0.00  0.00    +0.250 C 
ENDBRANCH   5  13
ENDBRANCH   4   8
ENDBRANCH   1   4
BRANCH   1  14
ATOM     14  C   LIG    1        2.225   5.292   0.009  0.00  0.00    +0.170 C 
BRANCH  14  15
ATOM     15  O   LIG    1        2.322   3.866   0.000  0.00  0.00    -0.300 OA
BRANCH  15  16
ATOM     16  C   LIG    1        1.155   3.169   0.008  0.00  0.00    +0.120 A 
ATOM     17  C   LIG    1        1.175   1.782   0.000  0.00  0.00    -0.010 A 
ATOM     18  C   LIG    1       -0.013   1.076   0.008  0.00  0.00    +0.050 A 
ATOM     19  C   LIG    1       -1.220   1.750   0.017  0.00  0.00    -0.120 A 
ATOM     20  C   LIG    1       -1.242   3.133   0.031  0.00  0.00    +0.050 A 
ATOM     21  C   LIG    1       -2.513   0.977   0.019  0.00  0.00    +0.100 C 
ATOM     22  C   LIG    1       -0.057   3.844   0.023  0.00  0.00    -0.090 A 
ENDBRANCH  15  16
ENDBRANCH  14  15
ENDBRANCH   1  14
TORSDOF 7
