REMARK  Name = ZINCkj00000dD3XM.1
REMARK                            x       y       z     vdW  Elec       q    Type
REMARK                         _______ _______ _______ _____ _____    ______ ____
ROOT
ATOM      1  C   LIG    1        3.630   5.898  -0.001  0.00  0.00    +0.220 C 
ENDROOT
BRANCH   1   2
ATOM      2  O   LIG    1        4.282   5.570  -1.230  0.00  0.00    -0.540 OA
ATOM      3  H   LIG    1        3.825   5.897  -2.017  0.00  0.00    +0.390 HD
ENDBRANCH   1   2
BRANCH   1   4
ATOM      4  C   LIG    1        3.530   7.419   0.134  0.00  0.00    +0.250 C 
BRANCH   4   8
ATOM      5  N   LIG    1        6.939   9.610   1.276  0.00  0.00    -0.540 NA
ATOM      6  C   LIG    1        6.185  10.073   0.103  0.00  0.00    +0.210 C 
ATOM      7  C   LIG    1        4.780   9.466   0.132  0.00  0.00    +0.280 C 
ATOM      8  N   LIG    1        4.879   8.001   0.124  0.00  0.00    -0.380 N 
ATOM      9  C   LIG    1        5.614   7.552   1.315  0.00  0.00    +0.270 C 
ATOM     10  H   LIG    1        5.369   7.702  -0.706  0.00  0.00    +0.430 HD
ATOM     11  C   LIG    1        7.026   8.143   1.296  0.00  0.00    +0.210 C 
BRANCH   5  13
ATOM     12  C   LIG    1        8.935   9.914   2.663  0.00  0.00    +0.040 C 
ATOM     13  C   LIG    1        8.277  10.216   1.315  0.00  0.00    +0.190 C 
ENDBRANCH   5  13
ENDBRANCH   4   8
ENDBRANCH   1   4
BRANCH   1  14
ATOM     14  C   LIG    1        2.225   5.292   0.009  0.00  0.00    +0.190 C 
BRANCH  14  15
ATOM     15  O   LIG    1        2.322   3.866   0.001  0.00  0.00    -0.300 OA
BRANCH  15  16
ATOM     16  C   LIG    1        1.155   3.169   0.008  0.00  0.00    +0.110 A 
ATOM     17  C   LIG    1        1.175   1.782   0.000  0.00  0.00    -0.010 A 
ATOM     18  C   LIG    1       -0.013   1.076   0.008  0.00  0.00    +0.050 A 
ATOM     19  C   LIG    1       -1.220   1.750   0.017  0.00  0.00    -0.110 A 
ATOM     20  C   LIG    1       -1.242   3.133   0.030  0.00  0.00    +0.050 A 
ATOM     21  C   LIG    1       -2.513   0.977   0.019  0.00  0.00    +0.090 C 
ATOM     22  C   LIG    1       -0.057   3.844   0.022  0.00  0.00    -0.080 A 
ENDBRANCH  15  16
ENDBRANCH  14  15
ENDBRANCH   1  14
TORSDOF 7
