REMARK  Name = ZINCpk000000n6s2.0
REMARK                            x       y       z     vdW  Elec       q    Type
REMARK                         _______ _______ _______ _____ _____    ______ ____
ROOT
ATOM      1  N   LIG    1        2.627   4.014  -0.002  0.00  0.00    -0.600 N 
ATOM      2  C   LIG    1        3.407   4.266  -1.219  0.00  0.00    +0.290 C 
ATOM      3  C   LIG    1        4.885   4.265  -0.770  0.00  0.00    +0.090 C 
ATOM      4  C   LIG    1        4.762   4.660   0.720  0.00  0.00    +0.270 C 
ATOM      5  C   LIG    1        3.361   4.238   1.103  0.00  0.00    +0.520 C 
ATOM      6  O   LIG    1        2.958   4.118   2.240  0.00  0.00    -0.490 OA
ENDROOT
BRANCH   4   7
ATOM      7  N   LIG    1        4.918   6.107   0.881  0.00  0.00    -0.280 N 
ATOM      8  C   LIG    1        3.937   7.027   0.750  0.00  0.00    +0.170 A 
ATOM      9  C   LIG    1        4.521   8.239   0.983  0.00  0.00    +0.020 A 
ATOM     10  N   LIG    1        5.817   7.987   1.241  0.00  0.00    -0.240 NA
ATOM     11  N   LIG    1        6.012   6.717   1.176  0.00  0.00    -0.060 NA
BRANCH   9  12
ATOM     12  C   LIG    1        3.860   9.566   0.957  0.00  0.00    +0.040 A 
ATOM     13  C   LIG    1        2.498   9.684   0.667  0.00  0.00    -0.030 A 
ATOM     14  C   LIG    1        1.921  10.938   0.659  0.00  0.00    +0.260 A 
ATOM     15  N   LIG    1        2.640  12.015   0.910  0.00  0.00    -0.480 NA
ATOM     16  C   LIG    1        3.929  11.948   1.183  0.00  0.00    +0.260 A 
ATOM     17  C   LIG    1        4.583  10.734   1.217  0.00  0.00    -0.010 A 
ENDBRANCH   9  12
ENDBRANCH   4   7
BRANCH   1  18
ATOM     18  C   LIG    1        1.228   3.579   0.010  0.00  0.00    +0.390 C 
BRANCH  18  19
ATOM     19  C   LIG    1        1.170   2.073   0.002  0.00  0.00    +0.450 C 
ATOM     20  O   LIG    1        2.192   1.429  -0.011  0.00  0.00    -0.490 OA
BRANCH  19  21
ATOM     21  O   LIG    1       -0.018   1.448   0.010  0.00  0.00    -0.350 OA
BRANCH  21  23
ATOM     22  C   LIG    1        0.742  -0.511   1.242  0.00  0.00    +0.030 C 
ATOM     23  C   LIG    1        0.002  -0.004   0.002  0.00  0.00    +0.120 C 
ATOM     24  C   LIG    1        0.718  -0.497  -1.257  0.00  0.00    +0.030 C 
ATOM     25  C   LIG    1       -1.433  -0.534   0.013  0.00  0.00    +0.080 C 
ENDBRANCH  21  23
ENDBRANCH  19  21
ENDBRANCH  18  19
ENDBRANCH   1  18
TORSDOF 6
