REMARK  Name = ZINCvU0000000BHB.0
REMARK                            x       y       z     vdW  Elec       q    Type
REMARK                         _______ _______ _______ _____ _____    ______ ____
ROOT
ATOM      1  O   LIG    1       -0.780  -2.897  -0.112  0.00  0.00    -0.500 OA
ATOM      2  C   LIG    1       -1.611  -3.774  -0.002  0.00  0.00    +0.550 C 
ATOM      3  N   LIG    1       -1.223  -5.062   0.089  0.00  0.00    -0.540 N 
ATOM      4  C   LIG    1        0.136  -5.407   0.180  0.00  0.00    +0.080 A 
ATOM      5  C   LIG    1        1.082  -4.436   0.465  0.00  0.00    +0.050 A 
ATOM      6  C   LIG    1        2.419  -4.780   0.551  0.00  0.00    +0.000 A 
ATOM      7  C   LIG    1        2.810  -6.091   0.353  0.00  0.00    +0.030 A 
ATOM      8  C   LIG    1        1.870  -7.065   0.071  0.00  0.00    +0.010 A 
ATOM      9  C   LIG    1        0.527  -6.729  -0.016  0.00  0.00    +0.100 A 
ATOM     10  O   LIG    1       -0.391  -7.694  -0.287  0.00  0.00    -0.300 OA
ATOM     11  C   LIG    1       -1.661  -7.280  -0.796  0.00  0.00    +0.270 C 
ATOM     12  C   LIG    1       -2.209  -6.156   0.102  0.00  0.00    +0.250 C 
ENDROOT
BRANCH  12  13
ATOM     13  C   LIG    1       -2.393  -6.662   1.509  0.00  0.00    -0.110 A 
ATOM     14  C   LIG    1       -1.299  -6.798   2.343  0.00  0.00    +0.030 A 
ATOM     15  C   LIG    1       -1.468  -7.258   3.635  0.00  0.00    +0.000 A 
ATOM     16  C   LIG    1       -2.730  -7.592   4.091  0.00  0.00    +0.010 A 
ATOM     17  C   LIG    1       -3.823  -7.462   3.255  0.00  0.00    +0.010 A 
ATOM     18  C   LIG    1       -3.655  -6.997   1.964  0.00  0.00    +0.030 A 
ENDBRANCH  12  13
BRANCH   2  19
ATOM     19  C   LIG    1       -3.076  -3.424   0.032  0.00  0.00    +0.110 C 
BRANCH  19  20
ATOM     20  S   LIG    1       -3.268  -1.625   0.011  0.00  0.00    +0.160 S 
BRANCH  20  21
ATOM     21  C   LIG    1       -5.025  -1.503   0.056  0.00  0.00    +0.110 A 
ATOM     22  N   LIG    1       -5.873  -2.503   0.094  0.00  0.00    -0.290 NA
ATOM     23  N   LIG    1       -7.074  -2.041   0.119  0.00  0.00    -0.270 NA
ATOM     24  C   LIG    1       -7.041  -0.741   0.099  0.00  0.00    +0.180 A 
ATOM     25  O   LIG    1       -5.747  -0.367   0.059  0.00  0.00    -0.200 OA
BRANCH  24  26
ATOM     26  C   LIG    1       -8.234   0.180   0.118  0.00  0.00    +0.110 C 
ATOM     27  C   LIG    1       -9.044  -0.061   1.393  0.00  0.00    +0.040 C 
ATOM     28  C   LIG    1      -10.255   0.874   1.411  0.00  0.00    +0.020 C 
ATOM     29  C   LIG    1      -11.133   0.596   0.189  0.00  0.00    +0.020 C 
ATOM     30  C   LIG    1      -10.322   0.837  -1.086  0.00  0.00    +0.020 C 
ATOM     31  C   LIG    1       -9.111  -0.098  -1.105  0.00  0.00    +0.040 C 
ENDBRANCH  24  26
ENDBRANCH  20  21
ENDBRANCH  19  20
ENDBRANCH   2  19
TORSDOF 5
