REMARK  Name = ZINCrD000006TTYl.0
REMARK                            x       y       z     vdW  Elec       q    Type
REMARK                         _______ _______ _______ _____ _____    ______ ____
ROOT
ATOM      1  N   LIG    1       -0.906   9.944  -1.967  0.00  0.00    -1.000 NA
ATOM      2  C   LIG    1        0.260   9.392  -2.674  0.00  0.00    +0.310 C 
ATOM      3  C   LIG    1        0.107   7.870  -2.752  0.00  0.00    +0.170 C 
ATOM      4  N   LIG    1       -0.111   7.333  -1.402  0.00  0.00    -0.530 NA
ATOM      5  C   LIG    1       -1.363   7.840  -0.823  0.00  0.00    +0.170 C 
ATOM      6  C   LIG    1       -1.270   9.361  -0.666  0.00  0.00    +0.310 C 
ENDROOT
BRANCH   1   8
ATOM      7  O   LIG    1       -2.433  11.832  -1.531  0.00  0.00    -0.950 OA
ATOM      8  S   LIG    1       -1.785  11.186  -2.618  0.00  0.00    +2.690 S 
ATOM      9  O   LIG    1       -0.919  11.863  -3.519  0.00  0.00    -0.950 OA
BRANCH   8  10
ATOM     10  C   LIG    1       -3.059  10.466  -3.600  0.00  0.00    -0.670 A 
ATOM     11  C   LIG    1       -2.828  10.211  -4.916  0.00  0.00    +0.160 A 
ATOM     12  C   LIG    1       -3.839   9.631  -5.701  0.00  0.00    -0.080 A 
ATOM     13  C   LIG    1       -3.636   9.349  -7.062  0.00  0.00    +0.040 A 
ATOM     14  C   LIG    1       -4.641   8.793  -7.792  0.00  0.00    +0.010 A 
ATOM     15  C   LIG    1       -5.872   8.497  -7.210  0.00  0.00    +0.040 A 
ATOM     16  C   LIG    1       -6.105   8.757  -5.894  0.00  0.00    +0.010 A 
ATOM     17  C   LIG    1       -5.092   9.331  -5.108  0.00  0.00    -0.010 A 
ATOM     18  C   LIG    1       -5.295   9.613  -3.747  0.00  0.00    +0.020 A 
ATOM     19  C   LIG    1       -4.290  10.170  -3.017  0.00  0.00    +0.100 A 
ENDBRANCH   8  10
ENDBRANCH   1   8
BRANCH   4  20
ATOM     20  C   LIG    1       -0.091   5.864  -1.410  0.00  0.00    +0.180 C 
BRANCH  20  21
ATOM     21  C   LIG    1       -0.070   5.347   0.030  0.00  0.00    +0.070 C 
BRANCH  21  22
ATOM     22  C   LIG    1       -0.050   3.840   0.022  0.00  0.00    -0.080 A 
ATOM     23  C   LIG    1        1.156   3.165   0.008  0.00  0.00    +0.000 A 
ATOM     24  C   LIG    1        1.175   1.783   0.000  0.00  0.00    +0.000 A 
ATOM     25  C   LIG    1       -0.013   1.076   0.008  0.00  0.00    +0.000 A 
ATOM     26  C   LIG    1       -1.219   1.751   0.017  0.00  0.00    +0.000 A 
ATOM     27  C   LIG    1       -1.238   3.133   0.030  0.00  0.00    +0.000 A 
ENDBRANCH  21  22
ENDBRANCH  20  21
ENDBRANCH   4  20
TORSDOF 5
