REMARK  Name = ZINCtV000002JMpx.0
REMARK                            x       y       z     vdW  Elec       q    Type
REMARK                         _______ _______ _______ _____ _____    ______ ____
ROOT
ATOM      1  C   LIG    1        5.205   6.714  -0.140  0.00  0.00    +0.610 C 
ATOM      2  N   LIG    1        4.776   7.990  -0.197  0.00  0.00    -0.620 N 
ATOM      3  C   LIG    1        3.340   8.295  -0.265  0.00  0.00    +0.270 C 
ATOM      4  C   LIG    1        2.995   9.277   0.865  0.00  0.00    +0.020 C 
ATOM      5  C   LIG    1        3.904  10.504   0.763  0.00  0.00    +0.170 C 
ATOM      6  C   LIG    1        5.364  10.075   0.927  0.00  0.00    +0.040 C 
ATOM      7  C   LIG    1        5.736   9.103  -0.197  0.00  0.00    +0.310 C 
ATOM      8  O   LIG    1        6.343   6.469   0.214  0.00  0.00    -0.510 OA
ENDROOT
BRANCH   1  11
ATOM      9  C   LIG    1        5.830   3.747   0.232  0.00  0.00    +0.180 C 
ATOM     10  C   LIG    1        4.548   4.282  -0.354  0.00  0.00    +0.170 A 
ATOM     11  C   LIG    1        4.300   5.620  -0.506  0.00  0.00    -0.320 A 
ATOM     12  S   LIG    1        2.703   5.791  -1.229  0.00  0.00    +0.210 S 
ATOM     13  C   LIG    1        2.516   4.092  -1.249  0.00  0.00    +0.080 A 
ATOM     14  N   LIG    1        3.576   3.511  -0.761  0.00  0.00    -0.470 NA
BRANCH  13  15
ATOM     15  C   LIG    1        1.324   3.381  -1.756  0.00  0.00    -0.040 A 
ATOM     16  C   LIG    1        1.277   1.986  -1.732  0.00  0.00    +0.100 A 
ATOM     17  C   LIG    1        0.161   1.329  -2.207  0.00  0.00    +0.030 A 
ATOM     18  C   LIG    1       -0.908   2.049  -2.712  0.00  0.00    -0.020 A 
ATOM     19  C   LIG    1       -0.870   3.433  -2.733  0.00  0.00    +0.030 A 
ATOM     20 CL   LIG    1       -2.306   1.214  -3.314  0.00  0.00    -0.060 Cl
ATOM     21  C   LIG    1        0.240   4.102  -2.261  0.00  0.00    +0.050 A 
ENDBRANCH  13  15
ENDBRANCH   1  11
BRANCH   5  22
ATOM     22  O   LIG    1        3.563  11.436   1.791  0.00  0.00    -0.300 OA
BRANCH  22  23
ATOM     23  C   LIG    1        2.505  12.256   1.555  0.00  0.00    +0.140 A 
ATOM     24  C   LIG    1        1.843  12.202   0.337  0.00  0.00    -0.060 A 
ATOM     25  C   LIG    1        0.766  13.034   0.100  0.00  0.00    +0.070 A 
ATOM     26  C   LIG    1        0.353  13.927   1.073  0.00  0.00    -0.070 A 
ATOM     27  C   LIG    1        1.015  13.986   2.286  0.00  0.00    +0.070 A 
ATOM     28 CL   LIG    1       -0.998  14.975   0.771  0.00  0.00    -0.070 Cl
ATOM     29  C   LIG    1        2.090  13.152   2.529  0.00  0.00    +0.000 A 
ENDBRANCH  22  23
ENDBRANCH   5  22
TORSDOF 4
