REMARK  Name = ZINCpe000000ZxCg.0
REMARK                            x       y       z     vdW  Elec       q    Type
REMARK                         _______ _______ _______ _____ _____    ______ ____
ROOT
ATOM      1  C   LIG    1        0.111   1.054   2.433  0.00  0.00    +0.060 C 
ATOM      2  C   LIG    1       -0.475   1.528   3.772  0.00  0.00    +0.290 C 
ATOM      3  N   LIG    1       -0.833   0.302   4.491  0.00  0.00    -0.550 N 
ATOM      4  C   LIG    1       -0.518  -0.818   3.714  0.00  0.00    +0.130 A 
ATOM      5  C   LIG    1       -0.688  -2.172   4.005  0.00  0.00    -0.040 A 
ATOM      6  C   LIG    1       -0.308  -3.133   3.092  0.00  0.00    +0.050 A 
ATOM      7  C   LIG    1        0.245  -2.761   1.881  0.00  0.00    +0.000 A 
ATOM      8  C   LIG    1        0.417  -1.421   1.585  0.00  0.00    +0.070 A 
ATOM      9  C   LIG    1       -1.384   0.260   5.720  0.00  0.00    +0.510 C 
ATOM     10  O   LIG    1       -1.621   1.290   6.314  0.00  0.00    -0.480 OA
ATOM     11  C   LIG    1        0.038  -0.455   2.498  0.00  0.00    -0.120 A 
ENDROOT
BRANCH   1  12
ATOM     12  C   LIG    1       -0.729   1.579   1.267  0.00  0.00    +0.030 C 
BRANCH  12  13
ATOM     13  C   LIG    1       -0.622   3.104   1.208  0.00  0.00    +0.290 C 
BRANCH  13  19
ATOM     14  O   LIG    1        0.413   3.547  -1.436  0.00  0.00    -0.530 OA
ATOM     15  C   LIG    1       -0.752   3.770  -1.183  0.00  0.00    +0.520 C 
ATOM     16  C   LIG    1       -1.774   4.279  -2.176  0.00  0.00    +0.050 C 
ATOM     17  C   LIG    1       -3.135   4.002  -1.498  0.00  0.00    +0.040 C 
ATOM     18  C   LIG    1       -2.743   3.974  -0.004  0.00  0.00    +0.250 C 
ATOM     19  N   LIG    1       -1.325   3.598   0.021  0.00  0.00    -0.620 N 
ENDBRANCH  13  19
ENDBRANCH  12  13
ENDBRANCH   1  12
BRANCH   9  20
ATOM     20  C   LIG    1       -1.708  -1.068   6.355  0.00  0.00    +0.390 C 
BRANCH  20  21
ATOM     21  N   LIG    1       -2.295  -0.846   7.679  0.00  0.00    -0.310 N 
ATOM     22  C   LIG    1       -3.478  -1.314   8.118  0.00  0.00    +0.400 A 
ATOM     23  N   LIG    1       -3.619  -0.886   9.349  0.00  0.00    -0.300 NA
ATOM     24  N   LIG    1       -2.576  -0.190   9.650  0.00  0.00    -0.070 NA
ATOM     25  N   LIG    1       -1.772  -0.169   8.645  0.00  0.00    -0.070 NA
ENDBRANCH  20  21
ENDBRANCH   9  20
TORSDOF 5
