REMARK  Name = ZINCpk00000KcF13.0
REMARK                            x       y       z     vdW  Elec       q    Type
REMARK                         _______ _______ _______ _____ _____    ______ ____
ROOT
ATOM      1  C   LIG    1        3.876   6.441   1.423  0.00  0.00    +0.500 C 
ATOM      2  N   LIG    1        4.961   7.204   1.663  0.00  0.00    -0.610 N 
ATOM      3  C   LIG    1        5.741   7.767   0.553  0.00  0.00    +0.270 C 
ATOM      4  C   LIG    1        5.863   9.281   0.755  0.00  0.00    +0.030 C 
ATOM      5  C   LIG    1        6.449   9.561   2.140  0.00  0.00    +0.030 C 
ATOM      6  C   LIG    1        5.512   9.005   3.215  0.00  0.00    +0.220 C 
ATOM      7  C   LIG    1        5.382   7.492   3.041  0.00  0.00    +0.290 C 
ATOM      8  O   LIG    1        3.240   5.981   2.348  0.00  0.00    -0.520 OA
ENDROOT
BRANCH   6   9
ATOM      9  N   LIG    1        6.059   9.301   4.541  0.00  0.00    -0.460 N 
ATOM     10  C   LIG    1        5.457  10.044   5.520  0.00  0.00    +0.120 A 
ATOM     11  C   LIG    1        6.299  10.060   6.571  0.00  0.00    +0.140 A 
ATOM     12  N   LIG    1        7.390   9.354   6.239  0.00  0.00    -0.490 NA
ATOM     13  C   LIG    1        7.253   8.896   5.024  0.00  0.00    +0.380 A 
ENDBRANCH   6   9
BRANCH   1  14
ATOM     14  C   LIG    1        3.452   6.159   0.004  0.00  0.00    +0.340 C 
BRANCH  14  25
ATOM     15  O   LIG    1        3.482   3.438  -0.012  0.00  0.00    -0.510 OA
ATOM     16  C   LIG    1        2.385   3.967   0.001  0.00  0.00    +0.560 A 
ATOM     17  C   LIG    1        1.151   3.168   0.008  0.00  0.00    -0.190 A 
ATOM     18  C   LIG    1        1.175   1.775   0.000  0.00  0.00    +0.100 A 
ATOM     19  C   LIG    1       -0.013   1.076   0.008  0.00  0.00    +0.000 A 
ATOM     20  C   LIG    1       -1.228   1.748   0.017  0.00  0.00    +0.070 A 
ATOM     21  C   LIG    1       -1.273   3.124   0.031  0.00  0.00    +0.030 A 
ATOM     22  C   LIG    1       -0.083   3.855   0.024  0.00  0.00    +0.150 A 
ATOM     23  N   LIG    1       -0.081   5.211   0.031  0.00  0.00    -0.520 NA
ATOM     24  C   LIG    1        1.025   5.890   0.025  0.00  0.00    +0.580 A 
ATOM     25  N   LIG    1        2.256   5.314   0.011  0.00  0.00    -0.540 N 
ENDBRANCH  14  25
ENDBRANCH   1  14
TORSDOF 3
