REMARK  Name = ZINCvU0000000Cun.0
REMARK                            x       y       z     vdW  Elec       q    Type
REMARK                         _______ _______ _______ _____ _____    ______ ____
ROOT
ATOM      1  C   LIG    1        5.355   4.470  -2.194  0.00  0.00    +0.190 C 
ATOM      2  C   LIG    1        5.540   3.875  -3.567  0.00  0.00    +0.150 A 
ATOM      3  N   LIG    1        6.224   4.391  -4.542  0.00  0.00    -0.270 NA
ATOM      4  O   LIG    1        6.163   3.541  -5.669  0.00  0.00    -0.080 OA
ATOM      5  C   LIG    1        5.412   2.460  -5.375  0.00  0.00    +0.310 A 
ATOM      6  N   LIG    1        5.056   1.393  -6.072  0.00  0.00    -0.470 NA
ATOM      7  C   LIG    1        4.293   0.442  -5.555  0.00  0.00    +0.250 A 
ATOM      8  C   LIG    1        3.830   0.514  -4.239  0.00  0.00    -0.010 A 
ATOM      9  C   LIG    1        4.170   1.618  -3.462  0.00  0.00    +0.010 A 
ATOM     10  C   LIG    1        4.982   2.611  -4.045  0.00  0.00    -0.220 A 
ENDROOT
BRANCH   7  11
ATOM     11  C   LIG    1        3.929  -0.729  -6.388  0.00  0.00    -0.070 A 
ATOM     12  C   LIG    1        3.132  -1.743  -5.860  0.00  0.00    +0.040 A 
ATOM     13  C   LIG    1        2.792  -2.828  -6.642  0.00  0.00    +0.010 A 
ATOM     14  C   LIG    1        3.248  -2.915  -7.945  0.00  0.00    +0.040 A 
ATOM     15  C   LIG    1        4.044  -1.915  -8.473  0.00  0.00    +0.000 A 
ATOM     16  C   LIG    1        4.386  -0.822  -7.702  0.00  0.00    +0.070 A 
ENDBRANCH   7  11
BRANCH   9  17
ATOM     17  C   LIG    1        3.697   1.742  -2.064  0.00  0.00    +0.560 C 
ATOM     18  N   LIG    1        3.939   0.753  -1.181  0.00  0.00    -0.600 N 
ATOM     19  C   LIG    1        4.581  -0.486  -1.626  0.00  0.00    +0.290 C 
ATOM     20  O   LIG    1        3.091   2.736  -1.714  0.00  0.00    -0.510 OA
BRANCH  18  21
ATOM     21  C   LIG    1        3.559   0.918   0.224  0.00  0.00    +0.350 C 
BRANCH  21  22
ATOM     22  C   LIG    1        2.154   0.413   0.427  0.00  0.00    -0.080 A 
ATOM     23  C   LIG    1        1.936  -0.910   0.763  0.00  0.00    +0.030 A 
ATOM     24  C   LIG    1        0.647  -1.375   0.944  0.00  0.00    +0.070 A 
ATOM     25  C   LIG    1       -0.425  -0.513   0.798  0.00  0.00    -0.180 A 
ATOM     26  C   LIG    1       -0.207   0.810   0.462  0.00  0.00    +0.070 A 
ATOM     27  C   LIG    1        1.082   1.273   0.277  0.00  0.00    +0.050 A 
BRANCH  25  28
ATOM     28  C   LIG    1       -1.830  -1.018   1.000  0.00  0.00    +0.510 C 
ATOM     29  F   LIG    1       -2.637   0.023   1.470  0.00  0.00    -0.180 F 
ATOM     30  F   LIG    1       -1.822  -2.060   1.935  0.00  0.00    -0.180 F 
ATOM     31  F   LIG    1       -2.336  -1.488  -0.217  0.00  0.00    -0.180 F 
ENDBRANCH  25  28
ENDBRANCH  21  22
ENDBRANCH  18  21
ENDBRANCH   9  17
TORSDOF 5
