REMARK  Name = ZINCkj000005jeYp.0
REMARK                            x       y       z     vdW  Elec       q    Type
REMARK                         _______ _______ _______ _____ _____    ______ ____
ROOT
ATOM      1  N   LIG    1       -2.543   1.437   3.382  0.00  0.00    -0.380 N 
ATOM      2  C   LIG    1       -3.177   1.959   4.599  0.00  0.00    +0.270 C 
ATOM      3  C   LIG    1       -4.675   2.152   4.355  0.00  0.00    +0.090 C 
ATOM      4  C   LIG    1       -4.875   3.147   3.208  0.00  0.00    -0.460 C 
ATOM      5  C   LIG    1       -4.147   2.630   1.964  0.00  0.00    +0.110 C 
ATOM      6  C   LIG    1       -2.668   2.417   2.297  0.00  0.00    +0.280 C 
ATOM      7  H   LIG    1       -2.996   0.577   3.111  0.00  0.00    +0.430 HD
ENDROOT
BRANCH   4   8
ATOM      8  S   LIG    1       -6.645   3.314   2.849  0.00  0.00    +2.620 S 
ATOM      9  O   LIG    1       -7.240   2.036   2.668  0.00  0.00    -0.940 OA
ATOM     10  O   LIG    1       -6.868   4.364   1.918  0.00  0.00    -0.940 OA
BRANCH   8  11
ATOM     11  N   LIG    1       -7.303   3.874   4.262  0.00  0.00    -1.250 NA
ATOM     12  H   LIG    1       -6.899   3.638   5.112  0.00  0.00    +0.410 HD
ATOM     13  H   LIG    1       -8.091   4.440   4.239  0.00  0.00    +0.430 HD
ENDBRANCH   8  11
ENDBRANCH   4   8
BRANCH   1  14
ATOM     14  C   LIG    1       -1.121   1.179   3.645  0.00  0.00    +0.280 C 
BRANCH  14  15
ATOM     15  C   LIG    1       -0.494   0.495   2.429  0.00  0.00    +0.200 C 
BRANCH  15  16
ATOM     16  O   LIG    1       -1.119  -0.773   2.220  0.00  0.00    -0.390 OA
BRANCH  16  23
ATOM     17  C   LIG    1       -0.075  -3.398   2.774  0.00  0.00    +0.020 C 
ATOM     18  C   LIG    1       -0.742  -3.032   1.447  0.00  0.00    -0.010 C 
ATOM     19  C   LIG    1       -0.118  -3.855   0.318  0.00  0.00    +0.020 C 
ATOM     20  C   LIG    1       -0.786  -3.489  -1.009  0.00  0.00    +0.010 C 
ATOM     21  C   LIG    1       -0.580  -1.999  -1.290  0.00  0.00    +0.020 C 
ATOM     22  C   LIG    1       -1.204  -1.176  -0.161  0.00  0.00    -0.010 C 
ATOM     23  C   LIG    1       -0.536  -1.542   1.166  0.00  0.00    +0.170 C 
ENDBRANCH  16  23
ENDBRANCH  15  16
ENDBRANCH  14  15
ENDBRANCH   1  14
TORSDOF 6
