REMARK  Name = ZINCpk00000y6wn5.0
REMARK                            x       y       z     vdW  Elec       q    Type
REMARK                         _______ _______ _______ _____ _____    ______ ____
ROOT
ATOM      1  C   LIG    1        4.214  -5.918   0.233  0.00  0.00    +0.530 C 
ATOM      2  N   LIG    1        3.558  -4.840  -0.239  0.00  0.00    -0.620 N 
ATOM      3  C   LIG    1        3.794  -4.195  -1.539  0.00  0.00    +0.260 C 
ATOM      4  C   LIG    1        2.833  -2.991  -1.634  0.00  0.00    +0.020 C 
ATOM      5  C   LIG    1        2.507  -2.688  -0.148  0.00  0.00    +0.160 C 
ATOM      6  C   LIG    1        2.485  -4.112   0.462  0.00  0.00    +0.290 C 
ATOM      7  O   LIG    1        3.935  -6.368   1.324  0.00  0.00    -0.530 OA
ENDROOT
BRANCH   1   8
ATOM      8  C   LIG    1        5.295  -6.565  -0.595  0.00  0.00    +0.050 C 
BRANCH   8   9
ATOM      9  C   LIG    1        5.874  -7.759   0.166  0.00  0.00    +0.140 C 
BRANCH   9  13
ATOM     10  C   LIG    1        8.259 -10.722  -3.098  0.00  0.00    +0.360 C 
ATOM     11  N   LIG    1        7.987  -9.700  -2.085  0.00  0.00    -0.380 N 
ATOM     12  C   LIG    1        6.781  -9.407  -1.556  0.00  0.00    +0.230 A 
ATOM     13  C   LIG    1        6.955  -8.406  -0.662  0.00  0.00    -0.240 A 
ATOM     14  C   LIG    1        8.315  -8.082  -0.637  0.00  0.00    +0.230 A 
ATOM     15  N   LIG    1        8.935  -8.857  -1.490  0.00  0.00    -0.300 NA
ENDBRANCH   9  13
ENDBRANCH   8   9
ENDBRANCH   1   8
BRANCH   5  16
ATOM     16  O   LIG    1        1.232  -2.057  -0.021  0.00  0.00    -0.280 OA
BRANCH  16  17
ATOM     17  C   LIG    1        1.211  -0.697  -0.039  0.00  0.00    +0.070 A 
ATOM     18  C   LIG    1        2.370   0.021  -0.291  0.00  0.00    -0.010 A 
ATOM     19  C   LIG    1        2.301   1.408  -0.300  0.00  0.00    -0.020 A 
ATOM     20  C   LIG    1        1.092   2.027  -0.058  0.00  0.00    +0.250 A 
ATOM     21  N   LIG    1        0.003   1.319   0.180  0.00  0.00    -0.490 NA
ATOM     22  C   LIG    1        0.023  -0.003   0.197  0.00  0.00    +0.290 A 
BRANCH  22  23
ATOM     23  N   LIG    1       -1.149  -0.709   0.453  0.00  0.00    -0.480 N 
ATOM     24  C   LIG    1       -1.443  -1.654  -0.633  0.00  0.00    +0.220 C 
ATOM     25  C   LIG    1       -2.277   0.207   0.673  0.00  0.00    +0.220 C 
ENDBRANCH  22  23
ENDBRANCH  16  17
ENDBRANCH   5  16
TORSDOF 6
