REMARK  Name = ZINCpk000000nU7w.0
REMARK                            x       y       z     vdW  Elec       q    Type
REMARK                         _______ _______ _______ _____ _____    ______ ____
ROOT
ATOM      1  N   LIG    1       -1.127   3.976  -2.688  0.00  0.00    -0.560 N 
ATOM      2  C   LIG    1       -0.878   3.680  -3.974  0.00  0.00    +0.700 A 
ATOM      3  N   LIG    1       -1.624   4.152  -4.987  0.00  0.00    -0.640 N 
ATOM      4  H   LIG    1       -1.406   3.906  -5.900  0.00  0.00    +0.440 HD
ATOM      5  C   LIG    1       -2.699   4.994  -4.742  0.00  0.00    +0.190 A 
ATOM      6  C   LIG    1       -3.479   5.499  -5.766  0.00  0.00    -0.030 A 
ATOM      7  C   LIG    1       -4.548   6.340  -5.486  0.00  0.00    -0.000 A 
ATOM      8  C   LIG    1       -4.845   6.676  -4.179  0.00  0.00    -0.110 A 
ATOM      9  C   LIG    1       -5.998   7.575  -3.815  0.00  0.00    +0.080 C 
ATOM     10  C   LIG    1       -6.466   8.368  -5.034  0.00  0.00    +0.020 C 
ATOM     11  C   LIG    1       -6.701   7.387  -6.188  0.00  0.00    +0.020 C 
ATOM     12  C   LIG    1       -4.073   6.177  -3.141  0.00  0.00    +0.130 A 
ATOM     13  C   LIG    1       -5.346   6.859  -6.654  0.00  0.00    +0.080 C 
ATOM     14  C   LIG    1       -2.999   5.338  -3.411  0.00  0.00    -0.200 A 
ATOM     15  O   LIG    1        0.058   2.949  -4.232  0.00  0.00    -0.540 OA
ATOM     16  C   LIG    1       -2.150   4.786  -2.341  0.00  0.00    +0.560 A 
ATOM     17  O   LIG    1       -2.366   5.052  -1.174  0.00  0.00    -0.480 OA
ENDROOT
BRANCH   1  18
ATOM     18  C   LIG    1       -0.267   3.414  -1.643  0.00  0.00    +0.330 C 
BRANCH  18  27
ATOM     19  C   LIG    1        0.002  -0.004   0.002  0.00  0.00    +0.060 C 
ATOM     20  C   LIG    1       -0.019   1.526   0.010  0.00  0.00    -0.060 C 
ATOM     21  C   LIG    1       -0.818   2.062   1.221  0.00  0.00    +0.070 C 
ATOM     22  C   LIG    1       -2.219   2.258   0.682  0.00  0.00    +0.530 C 
ATOM     23  N   LIG    1       -2.202   2.255  -0.662  0.00  0.00    -0.720 N 
ATOM     24  H   LIG    1       -2.989   2.359  -1.219  0.00  0.00    +0.400 HD
ATOM     25  O   LIG    1       -3.212   2.396   1.364  0.00  0.00    -0.530 OA
ATOM     26  C   LIG    1        1.403   2.090  -0.000  0.00  0.00    +0.050 C 
ATOM     27  C   LIG    1       -0.840   2.074  -1.178  0.00  0.00    +0.230 C 
ENDBRANCH  18  27
ENDBRANCH   1  18
TORSDOF 2
