REMARK  Name = ZINCqH0000050fib.0
REMARK                            x       y       z     vdW  Elec       q    Type
REMARK                         _______ _______ _______ _____ _____    ______ ____
ROOT
ATOM      1  N   LIG    1        2.936   7.301   1.369  0.00  0.00    -0.730 N 
ATOM      2  H   LIG    1        2.945   8.053   0.756  0.00  0.00    +0.410 HD
ENDROOT
BRANCH   1   6
ATOM      3  C   LIG    1        1.006   4.502  -2.181  0.00  0.00    +0.090 C 
ATOM      4  C   LIG    1        1.511   4.674  -0.771  0.00  0.00    -0.020 A 
ATOM      5  C   LIG    1        1.987   5.900  -0.354  0.00  0.00    -0.050 A 
ATOM      6  C   LIG    1        2.453   6.058   0.946  0.00  0.00    +0.230 A 
ATOM      7  C   LIG    1        2.439   4.983   1.824  0.00  0.00    -0.070 A 
ATOM      8  C   LIG    1        1.958   3.757   1.407  0.00  0.00    +0.060 A 
ATOM      9  C   LIG    1        1.498   3.598   0.107  0.00  0.00    +0.080 A 
BRANCH   9  10
ATOM     10  N   LIG    1        1.014   2.353  -0.318  0.00  0.00    -0.570 N 
ATOM     11  C   LIG    1       -0.386   1.927  -0.206  0.00  0.00    +0.250 C 
ATOM     12  C   LIG    1       -0.364   0.392  -0.377  0.00  0.00    +0.040 C 
ATOM     13  C   LIG    1        0.927   0.184  -1.203  0.00  0.00    +0.050 C 
ATOM     14  C   LIG    1        1.773   1.396  -0.879  0.00  0.00    +0.520 C 
ATOM     15  O   LIG    1        2.963   1.490  -1.094  0.00  0.00    -0.520 OA
ENDBRANCH   9  10
ENDBRANCH   1   6
BRANCH   1  16
ATOM     16  C   LIG    1        3.427   7.468   2.739  0.00  0.00    +0.250 C 
ATOM     17  C   LIG    1        2.250   7.772   3.669  0.00  0.00    +0.050 C 
BRANCH  16  18
ATOM     18  C   LIG    1        4.411   8.608   2.785  0.00  0.00    +0.510 C 
ATOM     19  N   LIG    1        4.997   8.947   3.950  0.00  0.00    -0.670 N 
ATOM     20  H   LIG    1        4.729   8.508   4.773  0.00  0.00    +0.420 HD
ATOM     21  O   LIG    1        4.677   9.221   1.772  0.00  0.00    -0.510 OA
BRANCH  19  22
ATOM     22  C   LIG    1        5.991   9.930   3.974  0.00  0.00    +0.170 A 
ATOM     23  C   LIG    1        6.857  10.071   2.897  0.00  0.00    +0.010 A 
ATOM     24  C   LIG    1        7.834  11.047   2.919  0.00  0.00    +0.070 A 
ATOM     25  C   LIG    1        7.960  11.877   4.017  0.00  0.00    -0.030 A 
ATOM     26  C   LIG    1        7.103  11.736   5.097  0.00  0.00    +0.120 A 
ATOM     27  F   LIG    1        7.228  12.548   6.169  0.00  0.00    -0.140 F 
ATOM     28  C   LIG    1        6.119  10.764   5.077  0.00  0.00    -0.040 A 
ENDBRANCH  19  22
ENDBRANCH  16  18
ENDBRANCH   1  16
TORSDOF 5
