REMARK  Name = ZINCrg00000OMBm5.0
REMARK                            x       y       z     vdW  Elec       q    Type
REMARK                         _______ _______ _______ _____ _____    ______ ____
ROOT
ATOM      1  C   LIG    1        0.074  -2.571  -2.647  0.00  0.00    +0.140 C 
ATOM      2  C   LIG    1       -0.083  -4.089  -2.771  0.00  0.00    +0.060 C 
ATOM      3  C   LIG    1        0.022  -4.495  -4.243  0.00  0.00    +0.030 C 
ATOM      4  C   LIG    1       -1.105  -3.825  -5.035  0.00  0.00    +0.250 C 
ATOM      5  N   LIG    1       -1.050  -2.376  -4.804  0.00  0.00    -0.620 N 
ATOM      6  C   LIG    1       -0.998  -1.516  -5.840  0.00  0.00    +0.720 C 
ATOM      7  N   LIG    1       -1.106  -1.976  -7.103  0.00  0.00    -0.750 N 
ATOM      8  H   LIG    1       -1.150  -2.930  -7.269  0.00  0.00    +0.400 HD
ATOM      9  O   LIG    1       -0.852  -0.326  -5.637  0.00  0.00    -0.590 OA
ATOM     10  C   LIG    1       -1.053  -1.881  -3.420  0.00  0.00    +0.280 C 
ENDROOT
BRANCH   1  11
ATOM     11  O   LIG    1        1.336  -2.175  -3.187  0.00  0.00    -0.530 OA
ATOM     12  H   LIG    1        1.502  -1.224  -3.142  0.00  0.00    +0.370 HD
ENDBRANCH   1  11
BRANCH   1  13
ATOM     13  C   LIG    1        0.002  -2.170  -1.172  0.00  0.00    +0.030 C 
BRANCH  13  16
ATOM     14  C   LIG    1        2.503  -3.050   1.589  0.00  0.00    +0.280 C 
ATOM     15  N   LIG    1        1.366  -2.471   0.870  0.00  0.00    -0.630 N 
ATOM     16  C   LIG    1        1.171  -2.765  -0.431  0.00  0.00    +0.510 C 
ATOM     17  O   LIG    1        1.938  -3.509  -1.006  0.00  0.00    -0.510 OA
ATOM     18  C   LIG    1        0.440  -1.573   1.564  0.00  0.00    +0.280 C 
ENDBRANCH  13  16
ENDBRANCH   1  13
BRANCH   7  19
ATOM     19  C   LIG    1       -1.159  -1.034  -8.223  0.00  0.00    +0.370 C 
BRANCH  19  20
ATOM     20  C   LIG    1       -1.280  -1.798  -9.517  0.00  0.00    -0.190 A 
ATOM     21  C   LIG    1       -0.150  -2.191 -10.217  0.00  0.00    +0.370 A 
ATOM     22  N   LIG    1       -0.295  -2.865 -11.346  0.00  0.00    -0.480 NA
ATOM     23  C   LIG    1       -1.494  -3.153 -11.812  0.00  0.00    +0.240 A 
ATOM     24  N   LIG    1       -2.590  -2.790 -11.176  0.00  0.00    -0.480 NA
ATOM     25  C   LIG    1       -2.523  -2.119 -10.038  0.00  0.00    +0.360 A 
BRANCH  23  26
ATOM     26  C   LIG    1       -1.615  -3.917 -13.105  0.00  0.00    +0.550 C 
ATOM     27  F   LIG    1       -2.919  -4.405 -13.238  0.00  0.00    -0.150 F 
ATOM     28  F   LIG    1       -0.714  -4.987 -13.101  0.00  0.00    -0.160 F 
ATOM     29  F   LIG    1       -1.324  -3.066 -14.177  0.00  0.00    -0.160 F 
ENDBRANCH  23  26
ENDBRANCH  19  20
ENDBRANCH   7  19
TORSDOF 6
