REMARK  Name = ZINC9l0000002K0s.0
REMARK                            x       y       z     vdW  Elec       q    Type
REMARK                         _______ _______ _______ _____ _____    ______ ____
ROOT
ATOM      1  C   LIG    1        0.405   3.524   0.017  0.00  0.00    -0.190 A 
ATOM      2  C   LIG    1       -0.921   3.178   0.028  0.00  0.00    +0.000 A 
ATOM      3  C   LIG    1       -1.128   1.820   0.017  0.00  0.00    +0.080 A 
ATOM      4  C   LIG    1       -0.013   1.076   0.008  0.00  0.00    -0.170 A 
ATOM      5  F   LIG    1       -2.364   1.275   0.019  0.00  0.00    -0.140 F 
ATOM      6  S   LIG    1        1.380   2.061   0.000  0.00  0.00    +0.240 S 
ENDROOT
BRANCH   1   8
ATOM      7  O   LIG    1        0.135   5.799   0.032  0.00  0.00    -0.670 OA
ATOM      8  C   LIG    1        0.909   4.849   0.019  0.00  0.00    +0.540 C 
ATOM      9  O   LIG    1        2.118   5.044   0.009  0.00  0.00    -0.680 OA
ENDBRANCH   1   8
TORSDOF 1
