REMARK  Name = ZINCvU0000000Doe.0
REMARK                            x       y       z     vdW  Elec       q    Type
REMARK                         _______ _______ _______ _____ _____    ______ ____
ROOT
ATOM      1  C   LIG    1       -0.016   1.297   0.009  0.00  0.00    +0.290 A 
ATOM      2  N   LIG    1        0.002  -0.004   0.002  0.00  0.00    -0.480 NA
ATOM      3  C   LIG    1        1.287  -0.443  -0.013  0.00  0.00    +0.050 A 
ATOM      4  C   LIG    1        1.871  -1.712  -0.025  0.00  0.00    +0.070 A 
ATOM      5  C   LIG    1        3.232  -1.834  -0.038  0.00  0.00    +0.000 A 
ATOM      6  C   LIG    1        4.044  -0.709  -0.040  0.00  0.00    +0.030 A 
ATOM      7  C   LIG    1        3.489   0.553  -0.028  0.00  0.00    +0.010 A 
ATOM      8  C   LIG    1        2.109   0.697  -0.014  0.00  0.00    +0.060 A 
ATOM      9  N   LIG    1        1.255   1.782  -0.000  0.00  0.00    -0.480 N 
ENDROOT
BRANCH   1  13
ATOM     10  O   LIG    1       -4.635   1.916  -1.148  0.00  0.00    -0.520 OA
ATOM     11  C   LIG    1       -3.600   1.873  -0.516  0.00  0.00    +0.530 C 
ATOM     12  C   LIG    1       -2.221   1.730  -1.121  0.00  0.00    +0.090 C 
ATOM     13  C   LIG    1       -1.262   2.143   0.020  0.00  0.00    +0.090 C 
ATOM     14  C   LIG    1       -2.119   1.851   1.272  0.00  0.00    +0.290 C 
ATOM     15  N   LIG    1       -3.513   1.943   0.823  0.00  0.00    -0.610 N 
BRANCH  15  16
ATOM     16  C   LIG    1       -4.662   2.093   1.720  0.00  0.00    +0.360 C 
BRANCH  16  17
ATOM     17  C   LIG    1       -4.935   3.558   1.945  0.00  0.00    -0.120 A 
ATOM     18  C   LIG    1       -4.329   4.220   2.996  0.00  0.00    +0.050 A 
ATOM     19  C   LIG    1       -4.575   5.565   3.200  0.00  0.00    -0.020 A 
ATOM     20  C   LIG    1       -5.438   6.245   2.358  0.00  0.00    +0.100 A 
ATOM     21  C   LIG    1       -6.049   5.580   1.310  0.00  0.00    -0.010 A 
ATOM     22  F   LIG    1       -5.684   7.559   2.560  0.00  0.00    -0.140 F 
ATOM     23  C   LIG    1       -5.797   4.237   1.104  0.00  0.00    +0.070 A 
ENDBRANCH  16  17
ENDBRANCH  15  16
ENDBRANCH   1  13
BRANCH   9  24
ATOM     24  C   LIG    1        1.646   3.194   0.003  0.00  0.00    +0.370 C 
BRANCH  24  25
ATOM     25  C   LIG    1        1.793   3.671   1.425  0.00  0.00    -0.110 A 
ATOM     26  C   LIG    1        0.708   4.214   2.087  0.00  0.00    +0.030 A 
ATOM     27  C   LIG    1        0.841   4.647   3.393  0.00  0.00    +0.040 A 
ATOM     28  C   LIG    1        2.062   4.548   4.034  0.00  0.00    +0.040 A 
ATOM     29  C   LIG    1        3.149   4.009   3.369  0.00  0.00    -0.030 A 
ATOM     30 CL   LIG    1        4.683   3.883   4.173  0.00  0.00    -0.060 Cl
ATOM     31  C   LIG    1        3.014   3.571   2.064  0.00  0.00    +0.040 A 
ENDBRANCH  24  25
ENDBRANCH   9  24
TORSDOF 5
