REMARK  Name = ZINCvU0000000ITG.0
REMARK                            x       y       z     vdW  Elec       q    Type
REMARK                         _______ _______ _______ _____ _____    ______ ____
ROOT
ATOM      1  C   LIG    1        2.267  -8.301  -0.067  0.00  0.00    +0.450 C 
ATOM      2  O   LIG    1        3.476  -8.402  -0.078  0.00  0.00    -0.460 OA
ENDROOT
BRANCH   1   3
ATOM      3  C   LIG    1        1.432  -9.504  -0.066  0.00  0.00    -0.270 A 
ATOM      4  C   LIG    1        1.862 -10.817  -0.083  0.00  0.00    +0.120 A 
ATOM      5  N   LIG    1        0.778 -11.613  -0.071  0.00  0.00    -0.430 N 
ATOM      6  C   LIG    1       -0.363 -10.865  -0.057  0.00  0.00    +0.010 A 
ATOM      7  C   LIG    1       -1.767 -11.413  -0.046  0.00  0.00    +0.120 C 
ATOM      8  C   LIG    1        3.297 -11.277  -0.107  0.00  0.00    +0.150 C 
ATOM      9  C   LIG    1       -0.036  -9.562  -0.053  0.00  0.00    +0.000 A 
BRANCH   5  10
ATOM     10  C   LIG    1        0.818 -13.078  -0.080  0.00  0.00    +0.300 C 
BRANCH  10  11
ATOM     11  C   LIG    1        0.818 -13.580  -1.525  0.00  0.00    +0.110 C 
BRANCH  11  12
ATOM     12  C   LIG    1        0.858 -15.086  -1.533  0.00  0.00    -0.190 A 
ATOM     13  C   LIG    1       -0.211 -15.884  -1.528  0.00  0.00    +0.010 A 
ATOM     14  C   LIG    1        0.072 -17.239  -1.538  0.00  0.00    +0.000 A 
ATOM     15  C   LIG    1        1.371 -17.541  -1.552  0.00  0.00    -0.040 A 
ATOM     16  S   LIG    1        2.321 -16.061  -1.560  0.00  0.00    +0.100 S 
ENDBRANCH  11  12
ENDBRANCH  10  11
ENDBRANCH   5  10
ENDBRANCH   1   3
BRANCH   1  17
ATOM     17  C   LIG    1        1.625  -6.937  -0.053  0.00  0.00    +0.090 C 
BRANCH  17  18
ATOM     18  S   LIG    1        2.912  -5.665  -0.058  0.00  0.00    +0.120 S 
BRANCH  18  22
ATOM     19  C   LIG    1        1.247  -2.161  -0.022  0.00  0.00    +0.220 A 
ATOM     20  N   LIG    1        0.204  -2.954  -0.011  0.00  0.00    -0.270 NA
ATOM     21  N   LIG    1        0.598  -4.179  -0.027  0.00  0.00    -0.280 NA
ATOM     22  C   LIG    1        1.910  -4.216  -0.040  0.00  0.00    +0.120 A 
ATOM     23  O   LIG    1        2.349  -2.942  -0.037  0.00  0.00    -0.200 OA
BRANCH  19  27
ATOM     24  C   LIG    1        1.175   2.087   0.002  0.00  0.00    +0.160 A 
ATOM     25  C   LIG    1       -0.017   1.374   0.010  0.00  0.00    +0.000 A 
ATOM     26  C   LIG    1        0.002  -0.004   0.002  0.00  0.00    +0.130 A 
ATOM     27  C   LIG    1        1.222  -0.684  -0.013  0.00  0.00    -0.070 A 
ATOM     28  C   LIG    1        2.418   0.037  -0.021  0.00  0.00    +0.100 A 
ATOM     29  C   LIG    1        2.391   1.415  -0.013  0.00  0.00    -0.070 A 
BRANCH  24  31
ATOM     30  C   LIG    1        2.415   4.115   0.001  0.00  0.00    +0.240 C 
ATOM     31  O   LIG    1        1.153   3.445   0.009  0.00  0.00    -0.310 OA
ENDBRANCH  24  31
ENDBRANCH  19  27
ENDBRANCH  18  22
ENDBRANCH  17  18
ENDBRANCH   1  17
TORSDOF 9
