REMARK  Name = ZINCrH000004sFpB.0
REMARK                            x       y       z     vdW  Elec       q    Type
REMARK                         _______ _______ _______ _____ _____    ______ ____
ROOT
ATOM      1  C   LIG    1        3.551   0.736  -0.028  0.00  0.00    +0.600 C 
ATOM      2  N   LIG    1        4.236   0.732   1.133  0.00  0.00    -0.720 N 
ATOM      3  H   LIG    1        3.759   0.726   1.977  0.00  0.00    +0.400 HD
ATOM      4  O   LIG    1        4.149   0.743  -1.087  0.00  0.00    -0.530 OA
ENDROOT
BRANCH   1  11
ATOM      5  C   LIG    1        1.703  -1.845  -0.024  0.00  0.00    +0.170 C 
ATOM      6  C   LIG    1        1.242  -0.410  -0.012  0.00  0.00    +0.120 A 
ATOM      7  N   LIG    1        0.002  -0.004   0.002  0.00  0.00    -0.290 NA
ATOM      8  N   LIG    1       -0.017   1.395   0.010  0.00  0.00    -0.310 N 
ATOM      9  C   LIG    1        1.253   1.838   0.000  0.00  0.00    +0.130 A 
ATOM     10  C   LIG    1        1.696   3.279   0.003  0.00  0.00    +0.160 C 
ATOM     11  C   LIG    1        2.077   0.730  -0.014  0.00  0.00    -0.280 A 
BRANCH   8  12
ATOM     12  C   LIG    1       -1.165   2.199   0.020  0.00  0.00    +0.140 A 
ATOM     13  C   LIG    1       -1.169   3.398   0.720  0.00  0.00    +0.000 A 
ATOM     14  C   LIG    1       -2.300   4.190   0.724  0.00  0.00    +0.040 A 
ATOM     15  C   LIG    1       -3.432   3.785   0.040  0.00  0.00    +0.010 A 
ATOM     16  C   LIG    1       -3.433   2.589  -0.654  0.00  0.00    +0.030 A 
ATOM     17  C   LIG    1       -2.303   1.795  -0.666  0.00  0.00    +0.020 A 
ENDBRANCH   8  12
ENDBRANCH   1  11
BRANCH   2  18
ATOM     18  C   LIG    1        5.701   0.738   1.119  0.00  0.00    +0.260 C 
BRANCH  18  19
ATOM     19  C   LIG    1        6.224   0.732   2.556  0.00  0.00    -0.010 C 
BRANCH  19  20
ATOM     20  C   LIG    1        7.754   0.738   2.542  0.00  0.00    +0.290 C 
BRANCH  20  21
ATOM     21  N   LIG    1        8.256   0.733   3.918  0.00  0.00    -0.630 N 
ATOM     22  C   LIG    1        8.502   1.999   4.613  0.00  0.00    +0.280 C 
BRANCH  21  23
ATOM     23  C   LIG    1        8.499  -0.479   4.569  0.00  0.00    +0.210 A 
ATOM     24  C   LIG    1        8.261  -1.681   3.913  0.00  0.00    -0.080 A 
ATOM     25  C   LIG    1        8.507  -2.877   4.558  0.00  0.00    +0.050 A 
ATOM     26  C   LIG    1        8.980  -2.880   5.857  0.00  0.00    -0.060 A 
ATOM     27  C   LIG    1        9.214  -1.686   6.514  0.00  0.00    +0.050 A 
ATOM     28  C   LIG    1        8.975  -0.486   5.874  0.00  0.00    -0.080 A 
ENDBRANCH  21  23
ENDBRANCH  20  21
ENDBRANCH  19  20
ENDBRANCH  18  19
ENDBRANCH   2  18
TORSDOF 7
