REMARK  Name = ZINCpe000000UyB3.1
REMARK                            x       y       z     vdW  Elec       q    Type
REMARK                         _______ _______ _______ _____ _____    ______ ____
ROOT
ATOM      1  C   LIG    1       -2.571   1.276   0.318  0.00  0.00    +0.520 C 
ATOM      2  N   LIG    1       -2.447   0.077  -0.284  0.00  0.00    -0.710 N 
ATOM      3  H   LIG    1       -3.122  -0.222  -0.914  0.00  0.00    +0.410 HD
ATOM      4  O   LIG    1       -1.684   1.690   1.034  0.00  0.00    -0.500 OA
ENDROOT
BRANCH   2   5
ATOM      5  C   LIG    1       -1.294  -0.776   0.012  0.00  0.00    +0.150 C 
ATOM      6  C   LIG    1       -1.259  -1.298   1.461  0.00  0.00    +0.240 C 
ATOM      7  O   LIG    1       -1.979  -2.437   0.949  0.00  0.00    -0.370 OA
ATOM      8  C   LIG    1       -1.488  -2.249  -0.394  0.00  0.00    +0.250 C 
BRANCH   5   9
ATOM      9  C   LIG    1        0.012  -0.184  -0.453  0.00  0.00    -0.080 A 
ATOM     10  C   LIG    1        1.204  -0.632   0.084  0.00  0.00    +0.010 A 
ATOM     11  C   LIG    1        2.401  -0.089  -0.343  0.00  0.00    +0.000 A 
ATOM     12  C   LIG    1        2.406   0.903  -1.306  0.00  0.00    +0.000 A 
ATOM     13  C   LIG    1        1.214   1.350  -1.844  0.00  0.00    +0.000 A 
ATOM     14  C   LIG    1        0.017   0.807  -1.417  0.00  0.00    +0.010 A 
ENDBRANCH   5   9
ENDBRANCH   2   5
BRANCH   1  15
ATOM     15  C   LIG    1       -3.812   2.103   0.102  0.00  0.00    +0.250 C 
BRANCH  15  17
ATOM     16  C   LIG    1       -2.625   4.201   0.332  0.00  0.00    +0.260 C 
ATOM     17  N   LIG    1       -3.704   3.356   0.862  0.00  0.00    -0.440 N 
BRANCH  17  18
ATOM     18  C   LIG    1       -4.909   4.037   0.869  0.00  0.00    +0.430 A 
ATOM     19  C   LIG    1       -5.037   5.263   1.543  0.00  0.00    -0.060 A 
ATOM     20  N   LIG    1       -4.198   6.049   2.260  0.00  0.00    -0.460 NA
ATOM     21  C   LIG    1       -4.837   7.107   2.666  0.00  0.00    +0.500 A 
ATOM     22  N   LIG    1       -6.128   7.069   2.229  0.00  0.00    -0.580 N 
ATOM     23  H   LIG    1       -6.810   7.737   2.396  0.00  0.00    +0.430 HD
ATOM     24  C   LIG    1       -6.284   5.911   1.510  0.00  0.00    +0.290 A 
ATOM     25  N   LIG    1       -7.291   5.340   0.857  0.00  0.00    -0.540 NA
ATOM     26  C   LIG    1       -7.126   4.187   0.244  0.00  0.00    +0.560 A 
ATOM     27  N   LIG    1       -5.972   3.544   0.242  0.00  0.00    -0.570 NA
ENDBRANCH  17  18
ENDBRANCH  15  17
ENDBRANCH   1  15
TORSDOF 5
