REMARK  Name = ZINCpe000000UyB3.2
REMARK                            x       y       z     vdW  Elec       q    Type
REMARK                         _______ _______ _______ _____ _____    ______ ____
ROOT
ATOM      1  C   LIG    1       -0.150  -3.184  -1.982  0.00  0.00    +0.500 C 
ATOM      2  N   LIG    1       -1.409  -3.647  -1.856  0.00  0.00    -0.710 N 
ATOM      3  H   LIG    1       -1.756  -3.878  -0.980  0.00  0.00    +0.410 HD
ATOM      4  O   LIG    1        0.313  -2.978  -3.083  0.00  0.00    -0.510 OA
ENDROOT
BRANCH   2   5
ATOM      5  C   LIG    1       -2.255  -3.802  -3.042  0.00  0.00    +0.150 C 
ATOM      6  C   LIG    1       -3.427  -4.782  -2.847  0.00  0.00    +0.250 C 
ATOM      7  O   LIG    1       -2.523  -5.786  -3.351  0.00  0.00    -0.370 OA
ATOM      8  C   LIG    1       -1.716  -4.825  -4.061  0.00  0.00    +0.230 C 
BRANCH   5   9
ATOM      9  C   LIG    1       -2.655  -2.485  -3.656  0.00  0.00    -0.090 A 
ATOM     10  C   LIG    1       -2.445  -1.308  -2.963  0.00  0.00    +0.030 A 
ATOM     11  C   LIG    1       -2.808  -0.099  -3.528  0.00  0.00    +0.000 A 
ATOM     12  C   LIG    1       -3.390  -0.069  -4.781  0.00  0.00    +0.000 A 
ATOM     13  C   LIG    1       -3.605  -1.247  -5.472  0.00  0.00    +0.000 A 
ATOM     14  C   LIG    1       -3.238  -2.455  -4.909  0.00  0.00    +0.010 A 
ENDBRANCH   5   9
ENDBRANCH   2   5
BRANCH   1  15
ATOM     15  C   LIG    1        0.683  -2.923  -0.753  0.00  0.00    +0.340 C 
BRANCH  15  17
ATOM     16  C   LIG    1        3.096  -3.373  -1.395  0.00  0.00    +0.340 C 
ATOM     17  N   LIG    1        2.002  -2.429  -1.154  0.00  0.00    -0.540 N 
BRANCH  17  18
ATOM     18  C   LIG    1        2.214  -1.081  -1.304  0.00  0.00    +0.540 A 
ATOM     19  C   LIG    1        3.476  -0.597  -1.688  0.00  0.00    -0.110 A 
ATOM     20  N   LIG    1        4.663  -1.155  -1.981  0.00  0.00    -0.500 NA
ATOM     21  C   LIG    1        5.507  -0.191  -2.281  0.00  0.00    +0.400 A 
ATOM     22  N   LIG    1        4.905   0.990  -2.193  0.00  0.00    -0.540 NA
ATOM     23  C   LIG    1        3.645   0.798  -1.830  0.00  0.00    +0.220 A 
ATOM     24  N   LIG    1        2.567   1.616  -1.585  0.00  0.00    -0.540 N 
ATOM     25  H   LIG    1        2.655   2.578  -1.674  0.00  0.00    +0.430 HD
ATOM     26  C   LIG    1        1.391   1.078  -1.221  0.00  0.00    +0.630 A 
ATOM     27  N   LIG    1        1.223  -0.212  -1.086  0.00  0.00    -0.580 NA
ENDBRANCH  17  18
ENDBRANCH  15  17
ENDBRANCH   1  15
TORSDOF 5
