REMARK  Name = ZINCpe000000UyB3.0
REMARK                            x       y       z     vdW  Elec       q    Type
REMARK                         _______ _______ _______ _____ _____    ______ ____
ROOT
ATOM      1  C   LIG    1       -0.514   1.921   0.409  0.00  0.00    +0.520 C 
ATOM      2  N   LIG    1        0.768   2.257   0.169  0.00  0.00    -0.710 N 
ATOM      3  H   LIG    1        1.458   1.575   0.173  0.00  0.00    +0.410 HD
ATOM      4  O   LIG    1       -1.363   2.783   0.488  0.00  0.00    -0.510 OA
ENDROOT
BRANCH   2   5
ATOM      5  C   LIG    1        1.121   3.654  -0.100  0.00  0.00    +0.150 C 
ATOM      6  C   LIG    1        2.603   3.982   0.163  0.00  0.00    +0.250 C 
ATOM      7  O   LIG    1        2.171   4.339   1.492  0.00  0.00    -0.370 OA
ATOM      8  C   LIG    1        0.819   4.608   1.071  0.00  0.00    +0.230 C 
BRANCH   5   9
ATOM      9  C   LIG    1        0.613   4.144  -1.431  0.00  0.00    -0.090 A 
ATOM     10  C   LIG    1        0.133   3.243  -2.362  0.00  0.00    +0.020 A 
ATOM     11  C   LIG    1       -0.336   3.693  -3.582  0.00  0.00    +0.000 A 
ATOM     12  C   LIG    1       -0.319   5.044  -3.873  0.00  0.00    +0.000 A 
ATOM     13  C   LIG    1        0.165   5.945  -2.944  0.00  0.00    +0.010 A 
ATOM     14  C   LIG    1        0.631   5.495  -1.723  0.00  0.00    +0.010 A 
ENDBRANCH   5   9
ENDBRANCH   2   5
BRANCH   1  15
ATOM     15  C   LIG    1       -0.895   0.472   0.574  0.00  0.00    +0.270 C 
BRANCH  15  17
ATOM     16  C   LIG    1       -2.691   0.973   2.118  0.00  0.00    +0.250 C 
ATOM     17  N   LIG    1       -2.338   0.370   0.825  0.00  0.00    -0.460 N 
BRANCH  17  18
ATOM     18  C   LIG    1       -2.762  -0.948   0.760  0.00  0.00    +0.400 A 
ATOM     19  C   LIG    1       -4.103  -1.277   0.968  0.00  0.00    -0.080 A 
ATOM     20  N   LIG    1       -5.252  -0.571   1.254  0.00  0.00    -0.570 N 
ATOM     21  H   LIG    1       -5.324   0.389   1.371  0.00  0.00    +0.430 HD
ATOM     22  C   LIG    1       -6.260  -1.468   1.340  0.00  0.00    +0.540 A 
ATOM     23  N   LIG    1       -5.809  -2.672   1.127  0.00  0.00    -0.490 NA
ATOM     24  C   LIG    1       -4.484  -2.627   0.891  0.00  0.00    +0.310 A 
ATOM     25  N   LIG    1       -3.548  -3.542   0.620  0.00  0.00    -0.500 NA
ATOM     26  C   LIG    1       -2.297  -3.185   0.431  0.00  0.00    +0.540 A 
ATOM     27  N   LIG    1       -1.902  -1.926   0.492  0.00  0.00    -0.560 NA
ENDBRANCH  17  18
ENDBRANCH  15  17
ENDBRANCH   1  15
TORSDOF 5
