REMARK  Name = ZINCrH000004sCt0.0
REMARK                            x       y       z     vdW  Elec       q    Type
REMARK                         _______ _______ _______ _____ _____    ______ ____
ROOT
ATOM      1  C   LIG    1        3.691 -10.521  -1.105  0.00  0.00    +0.570 C 
ATOM      2  N   LIG    1        2.917  -9.422  -1.007  0.00  0.00    -0.590 N 
ATOM      3  C   LIG    1        1.785  -9.384  -0.071  0.00  0.00    +0.290 C 
ATOM      4  C   LIG    1        0.522  -8.988  -0.842  0.00  0.00    +0.040 C 
ATOM      5  C   LIG    1        0.771  -7.671  -1.580  0.00  0.00    -0.030 C 
ATOM      6  C   LIG    1        1.911  -7.855  -2.584  0.00  0.00    +0.030 C 
ATOM      7  C   LIG    1        3.191  -8.238  -1.833  0.00  0.00    +0.290 C 
ATOM      8  O   LIG    1        3.469 -11.485  -0.401  0.00  0.00    -0.520 OA
ENDROOT
BRANCH   1  14
ATOM      9  C   LIG    1        6.948  -8.144  -3.847  0.00  0.00    +0.180 C 
ATOM     10  C   LIG    1        6.358  -9.447  -3.374  0.00  0.00    +0.320 A 
ATOM     11  N   LIG    1        6.855 -10.579  -3.833  0.00  0.00    -0.500 NA
ATOM     12  C   LIG    1        6.367 -11.745  -3.445  0.00  0.00    +0.340 A 
ATOM     13  C   LIG    1        5.316 -11.770  -2.540  0.00  0.00    -0.020 A 
ATOM     14  C   LIG    1        4.815 -10.554  -2.075  0.00  0.00    +0.140 A 
ATOM     15  N   LIG    1        5.358  -9.423  -2.519  0.00  0.00    -0.490 NA
ENDBRANCH   1  14
BRANCH   5  16
ATOM     16  C   LIG    1       -0.481  -7.261  -2.312  0.00  0.00    +0.400 C 
ATOM     17  O   LIG    1       -1.293  -8.099  -2.640  0.00  0.00    -0.450 OA
BRANCH  16  18
ATOM     18  C   LIG    1       -0.718  -5.843  -2.627  0.00  0.00    -0.180 A 
ATOM     19  C   LIG    1       -1.878  -5.458  -3.306  0.00  0.00    +0.070 A 
ATOM     20  C   LIG    1       -2.093  -4.128  -3.598  0.00  0.00    +0.000 A 
ATOM     21  C   LIG    1       -1.163  -3.174  -3.222  0.00  0.00    -0.040 A 
ATOM     22  C   LIG    1       -0.009  -3.548  -2.555  0.00  0.00    +0.000 A 
ATOM     23  C   LIG    1        0.217  -4.873  -2.250  0.00  0.00    +0.060 A 
BRANCH  21  24
ATOM     24  C   LIG    1       -1.404  -1.723  -3.546  0.00  0.00    +0.080 C 
BRANCH  24  25
ATOM     25  C   LIG    1       -2.168  -1.063  -2.396  0.00  0.00    -0.020 C 
ATOM     26  C   LIG    1       -1.294  -1.057  -1.141  0.00  0.00    +0.020 C 
ATOM     27  C   LIG    1       -2.522   0.375  -2.778  0.00  0.00    +0.030 C 
ENDBRANCH  24  25
ENDBRANCH  21  24
ENDBRANCH  16  18
ENDBRANCH   5  16
TORSDOF 5
