REMARK  Name = ZINCpe00000MJKW1.0
REMARK                            x       y       z     vdW  Elec       q    Type
REMARK                         _______ _______ _______ _____ _____    ______ ____
ROOT
ATOM      1  C   LIG    1        2.841   2.905   0.689  0.00  0.00    +0.250 C 
ATOM      2  C   LIG    1        2.575   1.566  -0.014  0.00  0.00    +0.270 C 
ATOM      3  N   LIG    1        1.143   1.901   0.001  0.00  0.00    -0.640 N 
ATOM      4  C   LIG    1       -0.014   1.212   0.009  0.00  0.00    +0.610 C 
ATOM      5  O   LIG    1        0.002  -0.004   0.002  0.00  0.00    -0.520 OA
ATOM      6  C   LIG    1        1.531   3.320  -0.001  0.00  0.00    +0.280 C 
ENDROOT
BRANCH   4   7
ATOM      7  C   LIG    1       -1.304   1.933   0.019  0.00  0.00    -0.140 A 
ATOM      8  C   LIG    1       -1.918   2.286  -1.184  0.00  0.00    -0.010 A 
ATOM      9  C   LIG    1       -3.124   2.954  -1.169  0.00  0.00    -0.020 A 
ATOM     10  C   LIG    1       -3.721   3.284   0.038  0.00  0.00    +0.130 A 
ATOM     11  C   LIG    1       -3.112   2.941   1.235  0.00  0.00    -0.020 A 
ATOM     12  F   LIG    1       -4.900   3.944   0.047  0.00  0.00    -0.130 F 
ATOM     13  C   LIG    1       -1.267   1.933  -2.497  0.00  0.00    +0.110 C 
ATOM     14  C   LIG    1       -1.909   2.268   1.231  0.00  0.00    -0.020 A 
ATOM     15  C   LIG    1       -1.249   1.895   2.534  0.00  0.00    +0.110 C 
ENDBRANCH   4   7
BRANCH   1  19
ATOM     16  C   LIG    1        5.944   5.053   0.239  0.00  0.00    +0.000 C 
ATOM     17  C   LIG    1        5.525   4.731  -1.214  0.00  0.00    +0.090 C 
ATOM     18  C   LIG    1        4.197   4.020  -1.069  0.00  0.00    +0.520 C 
ATOM     19  N   LIG    1        4.025   3.615   0.201  0.00  0.00    -0.600 N 
ATOM     20  O   LIG    1        3.403   3.842  -1.968  0.00  0.00    -0.520 OA
ATOM     21  C   LIG    1        5.179   3.972   1.035  0.00  0.00    +0.310 C 
BRANCH  16  25
ATOM     22  C   LIG    1        5.608   8.861   0.440  0.00  0.00    +0.290 C 
ATOM     23  N   LIG    1        6.046   7.517   0.053  0.00  0.00    -0.730 N 
ATOM     24  H   LIG    1        6.732   7.407  -0.623  0.00  0.00    +0.400 HD
ATOM     25  C   LIG    1        5.494   6.435   0.637  0.00  0.00    +0.520 C 
ATOM     26  O   LIG    1        4.636   6.573   1.483  0.00  0.00    -0.530 OA
ENDBRANCH  16  25
ENDBRANCH   1  19
TORSDOF 3
