REMARK  Name = ZINCvU0000000E2h.0
REMARK                            x       y       z     vdW  Elec       q    Type
REMARK                         _______ _______ _______ _____ _____    ______ ____
ROOT
ATOM      1  C   LIG    1        4.257   7.944  -1.671  0.00  0.00    +0.160 A 
ATOM      2  N   LIG    1        4.095   7.703  -0.401  0.00  0.00    -0.260 NA
ATOM      3  N   LIG    1        3.332   6.681  -0.239  0.00  0.00    -0.290 NA
ATOM      4  C   LIG    1        2.963   6.211  -1.408  0.00  0.00    +0.160 A 
ATOM      5  N   LIG    1        3.547   6.999  -2.359  0.00  0.00    -0.450 N 
ENDROOT
BRANCH   5   6
ATOM      6  C   LIG    1        3.433   6.862  -3.813  0.00  0.00    +0.240 C 
ATOM      7  C   LIG    1        1.965   6.992  -4.224  0.00  0.00    +0.020 C 
ATOM      8  C   LIG    1        1.846   6.849  -5.743  0.00  0.00    +0.030 C 
ATOM      9  C   LIG    1        2.376   5.479  -6.169  0.00  0.00    +0.010 C 
ATOM     10  C   LIG    1        3.844   5.349  -5.758  0.00  0.00    +0.040 C 
ATOM     11  C   LIG    1        3.963   5.492  -4.239  0.00  0.00    +0.020 C 
ENDBRANCH   5   6
BRANCH   1  12
ATOM     12  C   LIG    1        5.080   9.054  -2.272  0.00  0.00    +0.400 C 
BRANCH  12  13
ATOM     13  N   LIG    1        6.452   8.586  -2.482  0.00  0.00    -0.740 N 
ATOM     14  H   LIG    1        6.698   7.680  -2.239  0.00  0.00    +0.400 HD
BRANCH  13  19
ATOM     15  C   LIG    1        9.651   9.858  -3.777  0.00  0.00    +0.170 A 
ATOM     16  C   LIG    1        9.294  11.154  -4.124  0.00  0.00    -0.130 A 
ATOM     17  C   LIG    1        7.999  11.593  -3.925  0.00  0.00    +0.100 A 
ATOM     18  C   LIG    1        7.054  10.742  -3.385  0.00  0.00    -0.110 A 
ATOM     19  C   LIG    1        7.407   9.445  -3.032  0.00  0.00    +0.250 A 
ATOM     20  C   LIG    1        8.707   9.003  -3.231  0.00  0.00    -0.100 A 
BRANCH  15  22
ATOM     21  C   LIG    1       11.845  10.363  -4.542  0.00  0.00    +0.250 C 
ATOM     22  O   LIG    1       10.925   9.428  -3.974  0.00  0.00    -0.320 OA
ENDBRANCH  15  22
ENDBRANCH  13  19
ENDBRANCH  12  13
ENDBRANCH   1  12
BRANCH   4  23
ATOM     23  S   LIG    1        1.918   4.822  -1.696  0.00  0.00    +0.040 S 
BRANCH  23  24
ATOM     24  C   LIG    1        1.573   4.329   0.011  0.00  0.00    +0.210 C 
BRANCH  24  25
ATOM     25  C   LIG    1        0.669   3.123   0.013  0.00  0.00    +0.200 A 
ATOM     26  N   LIG    1        1.062   1.879   0.002  0.00  0.00    -0.470 NA
ATOM     27  C   LIG    1       -0.013   1.076   0.008  0.00  0.00    +0.140 A 
ATOM     28  C   LIG    1       -1.113   1.852   0.017  0.00  0.00    +0.140 A 
ATOM     29  N   LIG    1       -0.681   3.151   0.025  0.00  0.00    -0.440 N 
BRANCH  29  30
ATOM     30  C   LIG    1       -1.526   4.348   0.039  0.00  0.00    +0.220 C 
ATOM     31  C   LIG    1       -2.397   4.343   1.297  0.00  0.00    +0.060 C 
ATOM     32  C   LIG    1       -2.421   4.355  -1.201  0.00  0.00    +0.060 C 
ENDBRANCH  29  30
ENDBRANCH  24  25
ENDBRANCH  23  24
ENDBRANCH   4  23
TORSDOF 9
