REMARK  Name = ZINCvU0000000IPi.0
REMARK                            x       y       z     vdW  Elec       q    Type
REMARK                         _______ _______ _______ _____ _____    ______ ____
ROOT
ATOM      1  C   LIG    1       -0.383  -0.185   5.322  0.00  0.00    +0.160 A 
ATOM      2  N   LIG    1       -0.002   1.065   5.183  0.00  0.00    -0.290 NA
ATOM      3  N   LIG    1        0.132   1.617   6.335  0.00  0.00    -0.250 NA
ATOM      4  C   LIG    1       -0.155   0.755   7.283  0.00  0.00    +0.230 A 
ATOM      5  N   LIG    1       -0.500  -0.426   6.664  0.00  0.00    -0.410 N 
ENDROOT
BRANCH   4   6
ATOM      6  C   LIG    1       -0.121   1.006   8.739  0.00  0.00    -0.060 A 
ATOM      7  C   LIG    1        0.511   0.101   9.592  0.00  0.00    +0.070 A 
ATOM      8  C   LIG    1        0.545   0.344  10.950  0.00  0.00    +0.010 A 
ATOM      9  C   LIG    1       -0.056   1.476  11.469  0.00  0.00    +0.070 A 
ATOM     10  C   LIG    1       -0.691   2.377  10.632  0.00  0.00    +0.000 A 
ATOM     11  C   LIG    1       -0.727   2.149   9.269  0.00  0.00    +0.140 A 
ATOM     12  F   LIG    1       -1.347   3.029   8.452  0.00  0.00    -0.120 F 
ENDBRANCH   4   6
BRANCH   5  13
ATOM     13  C   LIG    1       -0.887  -1.625   7.279  0.00  0.00    +0.100 A 
ATOM     14  C   LIG    1       -2.087  -1.694   7.975  0.00  0.00    +0.040 A 
ATOM     15  C   LIG    1       -2.468  -2.877   8.576  0.00  0.00    +0.040 A 
ATOM     16  C   LIG    1       -1.651  -3.990   8.493  0.00  0.00    +0.040 A 
ATOM     17  C   LIG    1       -0.454  -3.923   7.805  0.00  0.00    +0.040 A 
ATOM     18  C   LIG    1       -0.070  -2.744   7.198  0.00  0.00    +0.030 A 
ENDBRANCH   5  13
BRANCH   1  19
ATOM     19  S   LIG    1       -0.693  -1.334   4.022  0.00  0.00    +0.090 S 
BRANCH  19  21
ATOM     20  C   LIG    1        1.145   0.092   2.591  0.00  0.00    +0.080 C 
ATOM     21  C   LIG    1       -0.336  -0.289   2.587  0.00  0.00    +0.020 C 
BRANCH  21  22
ATOM     22  C   LIG    1       -0.657  -1.045   1.324  0.00  0.00    +0.540 C 
ATOM     23  N   LIG    1       -0.862  -0.375   0.172  0.00  0.00    -0.570 N 
ATOM     24  C   LIG    1       -0.882   1.089   0.170  0.00  0.00    +0.300 C 
ATOM     25  O   LIG    1       -0.732  -2.255   1.343  0.00  0.00    -0.510 OA
BRANCH  23  26
ATOM     26  C   LIG    1       -1.056  -1.080  -1.022  0.00  0.00    +0.130 A 
ATOM     27  C   LIG    1       -0.117  -0.992  -2.041  0.00  0.00    +0.010 A 
ATOM     28  C   LIG    1       -0.309  -1.692  -3.216  0.00  0.00    +0.020 A 
ATOM     29  C   LIG    1       -1.439  -2.472  -3.382  0.00  0.00    +0.010 A 
ATOM     30  C   LIG    1       -2.378  -2.557  -2.370  0.00  0.00    +0.020 A 
ATOM     31  C   LIG    1       -2.190  -1.863  -1.191  0.00  0.00    +0.020 A 
ENDBRANCH  23  26
ENDBRANCH  21  22
ENDBRANCH  19  21
ENDBRANCH   1  19
TORSDOF 6
