REMARK  Name = ZINCrH000004rOqn.1
REMARK                            x       y       z     vdW  Elec       q    Type
REMARK                         _______ _______ _______ _____ _____    ______ ____
ROOT
ATOM      1  N   LIG    1        5.096   5.199   3.754  0.00  0.00    -0.530 NA
ATOM      2  C   LIG    1        4.969   5.472   2.316  0.00  0.00    +0.190 C 
ATOM      3  C   LIG    1        3.635   6.174   2.048  0.00  0.00    +0.210 C 
ATOM      4  N   LIG    1        2.534   5.323   2.519  0.00  0.00    -0.550 NA
ATOM      5  C   LIG    1        2.661   5.050   3.958  0.00  0.00    +0.200 C 
ATOM      6  C   LIG    1        3.994   4.349   4.226  0.00  0.00    +0.190 C 
ENDROOT
BRANCH   1   7
ATOM      7  C   LIG    1        6.398   4.593   4.062  0.00  0.00    +0.230 C 
BRANCH   7  13
ATOM      8  C   LIG    1        7.264   5.414   8.923  0.00  0.00    +0.090 C 
ATOM      9  C   LIG    1        6.815   4.498   7.814  0.00  0.00    -0.090 A 
ATOM     10  C   LIG    1        6.405   3.210   8.104  0.00  0.00    +0.000 A 
ATOM     11  C   LIG    1        5.994   2.369   7.086  0.00  0.00    +0.000 A 
ATOM     12  C   LIG    1        5.992   2.817   5.779  0.00  0.00    +0.000 A 
ATOM     13  C   LIG    1        6.401   4.105   5.488  0.00  0.00    -0.080 A 
ATOM     14  C   LIG    1        6.816   4.944   6.505  0.00  0.00    +0.020 A 
ENDBRANCH   7  13
ENDBRANCH   1   7
BRANCH   4  15
ATOM     15  C   LIG    1        1.232   5.929   2.211  0.00  0.00    +0.530 C 
BRANCH  15  16
ATOM     16  N   LIG    1        0.213   4.880   2.125  0.00  0.00    -0.360 N 
ATOM     17  N   LIG    1        0.043   3.971   1.072  0.00  0.00    -0.260 NA
ATOM     18  C   LIG    1       -0.960   3.205   1.359  0.00  0.00    +0.310 A 
ATOM     19  N   LIG    1       -1.462   3.572   2.583  0.00  0.00    -0.460 N 
ATOM     20  C   LIG    1       -0.733   4.606   3.048  0.00  0.00    +0.460 A 
ATOM     21  S   LIG    1       -0.964   5.420   4.536  0.00  0.00    -0.580 S 
BRANCH  19  22
ATOM     22  C   LIG    1       -2.598   2.947   3.266  0.00  0.00    +0.190 C 
ATOM     23  C   LIG    1       -3.240   3.720   4.420  0.00  0.00    +0.080 C 
ATOM     24  C   LIG    1       -2.386   2.483   4.709  0.00  0.00    +0.060 C 
ENDBRANCH  19  22
BRANCH  18  25
ATOM     25  C   LIG    1       -1.486   2.088   0.494  0.00  0.00    +0.030 C 
ATOM     26  C   LIG    1       -0.515   1.445  -0.498  0.00  0.00    +0.080 C 
ATOM     27  C   LIG    1       -1.628   2.363  -1.005  0.00  0.00    +0.070 C 
ENDBRANCH  18  25
ENDBRANCH  15  16
ENDBRANCH   4  15
TORSDOF 6
