REMARK  Name = ZINCpk00000xPOqC.0
REMARK                            x       y       z     vdW  Elec       q    Type
REMARK                         _______ _______ _______ _____ _____    ______ ____
ROOT
ATOM      1  N   LIG    1        3.487  -0.772  -0.034  0.00  0.00    -0.470 N 
ATOM      2  C   LIG    1        4.342  -0.400   1.103  0.00  0.00    +0.190 C 
ATOM      3  C   LIG    1        5.662  -1.171   1.015  0.00  0.00    +0.190 C 
ATOM      4  O   LIG    1        5.387  -2.574   0.980  0.00  0.00    -0.360 OA
ATOM      5  C   LIG    1        4.558  -2.971  -0.115  0.00  0.00    +0.110 C 
ATOM      6  C   LIG    1        5.258  -2.639  -1.433  0.00  0.00    +0.040 C 
ATOM      7  C   LIG    1        4.298  -4.477  -0.039  0.00  0.00    +0.060 C 
ATOM      8  C   LIG    1        3.226  -2.219  -0.038  0.00  0.00    +0.200 C 
ENDROOT
BRANCH   1  11
ATOM      9  C   LIG    1        1.111   2.012   0.002  0.00  0.00    +0.200 A 
ATOM     10  C   LIG    1        2.318   1.342  -0.013  0.00  0.00    -0.100 A 
ATOM     11  C   LIG    1        2.302  -0.054  -0.020  0.00  0.00    +0.360 A 
ATOM     12  N   LIG    1        1.131  -0.684  -0.012  0.00  0.00    -0.560 NA
ATOM     13  C   LIG    1        0.002  -0.004   0.002  0.00  0.00    +0.350 A 
ATOM     14  C   LIG    1       -1.305  -0.754   0.011  0.00  0.00    +0.170 C 
ATOM     15  N   LIG    1       -0.016   1.313   0.009  0.00  0.00    -0.540 NA
BRANCH   9  17
ATOM     16  C   LIG    1        0.224   4.014  -1.161  0.00  0.00    +0.040 C 
ATOM     17  C   LIG    1        1.075   3.518   0.010  0.00  0.00    +0.100 C 
ENDBRANCH   9  17
ENDBRANCH   1  11
BRANCH   3  18
ATOM     18  C   LIG    1        6.524  -0.849   2.237  0.00  0.00    +0.200 C 
BRANCH  18  19
ATOM     19  O   LIG    1        7.799  -1.480   2.100  0.00  0.00    -0.350 OA
BRANCH  19  20
ATOM     20  C   LIG    1        8.687  -1.242   3.194  0.00  0.00    +0.210 C 
BRANCH  20  21
ATOM     21  C   LIG    1        9.993  -1.950   2.945  0.00  0.00    +0.510 C 
ATOM     22  N   LIG    1       10.988  -1.867   3.850  0.00  0.00    -0.620 N 
ATOM     23  C   LIG    1       10.800  -1.087   5.076  0.00  0.00    +0.280 C 
ATOM     24  C   LIG    1       12.258  -2.555   3.608  0.00  0.00    +0.290 C 
ATOM     25  O   LIG    1       10.149  -2.596   1.930  0.00  0.00    -0.510 OA
ENDBRANCH  20  21
ENDBRANCH  19  20
ENDBRANCH  18  19
ENDBRANCH   3  18
TORSDOF 6
