REMARK  Name = ZINCpe00000MJKpd.0
REMARK                            x       y       z     vdW  Elec       q    Type
REMARK                         _______ _______ _______ _____ _____    ______ ____
ROOT
ATOM      1  C   LIG    1        1.175  -2.124  -0.537  0.00  0.00    +0.130 C 
ATOM      2  C   LIG    1        1.174  -0.643  -0.259  0.00  0.00    -0.190 A 
ATOM      3  C   LIG    1        2.353   0.074  -0.247  0.00  0.00    +0.350 A 
ATOM      4  N   LIG    1        2.319   1.376   0.001  0.00  0.00    -0.550 NA
ATOM      5  C   LIG    1        1.171   1.994   0.236  0.00  0.00    +0.500 A 
ATOM      6  N   LIG    1        0.018   1.342   0.234  0.00  0.00    -0.550 NA
ATOM      7  C   LIG    1       -0.021   0.036  -0.007  0.00  0.00    +0.370 A 
ENDROOT
BRANCH   5   8
ATOM      8  N   LIG    1        1.177   3.354   0.490  0.00  0.00    -0.450 N 
ATOM      9  C   LIG    1        0.535   3.652   1.779  0.00  0.00    +0.180 C 
ATOM     10  C   LIG    1        0.491   5.168   1.985  0.00  0.00    +0.250 C 
ATOM     11  N   LIG    1        1.858   5.705   1.944  0.00  0.00    -0.670 NA
ATOM     12  H   LIG    1        2.409   5.353   2.712  0.00  0.00    +0.350 HD
ATOM     13  C   LIG    1        2.499   5.408   0.655  0.00  0.00    +0.160 C 
ATOM     14  C   LIG    1        2.544   3.892   0.449  0.00  0.00    +0.210 C 
BRANCH  13  15
ATOM     15  C   LIG    1        3.924   5.965   0.653  0.00  0.00    +0.390 C 
ATOM     16  F   LIG    1        4.657   5.375   1.688  0.00  0.00    -0.200 F 
ATOM     17  F   LIG    1        3.883   7.351   0.842  0.00  0.00    -0.190 F 
ENDBRANCH  13  15
ENDBRANCH   5   8
BRANCH   7  18
ATOM     18  N   LIG    1       -1.229  -0.643  -0.009  0.00  0.00    -0.470 N 
ATOM     19  C   LIG    1       -1.586  -1.086   1.346  0.00  0.00    +0.160 C 
ATOM     20  C   LIG    1       -2.882  -1.898   1.289  0.00  0.00    +0.260 C 
ATOM     21  N   LIG    1       -3.950  -1.072   0.710  0.00  0.00    -0.680 NA
ATOM     22  H   LIG    1       -4.160  -0.284   1.304  0.00  0.00    +0.350 HD
ATOM     23  C   LIG    1       -3.593  -0.629  -0.645  0.00  0.00    +0.160 C 
ATOM     24  C   LIG    1       -2.297   0.183  -0.588  0.00  0.00    +0.190 C 
BRANCH  23  25
ATOM     25  C   LIG    1       -4.716   0.242  -1.210  0.00  0.00    +0.400 C 
ATOM     26  F   LIG    1       -4.428   0.572  -2.539  0.00  0.00    -0.200 F 
ATOM     27  F   LIG    1       -4.825   1.413  -0.453  0.00  0.00    -0.200 F 
ENDBRANCH  23  25
ENDBRANCH   7  18
TORSDOF 4
