REMARK  Name = ZINCpe000027pHo6.0
REMARK                            x       y       z     vdW  Elec       q    Type
REMARK                         _______ _______ _______ _____ _____    ______ ____
ROOT
ATOM      1  N   LIG    1       -1.417   2.469   1.885  0.00  0.00    -0.600 N 
ATOM      2  C   LIG    1       -1.658   3.681   2.422  0.00  0.00    +0.490 C 
ATOM      3  O   LIG    1       -1.589   4.675   1.732  0.00  0.00    -0.530 OA
ENDROOT
BRANCH   1   4
ATOM      4  C   LIG    1       -0.966   2.361   0.495  0.00  0.00    +0.390 C 
BRANCH   4   9
ATOM      5  C   LIG    1        3.625   4.484   0.274  0.00  0.00    +0.170 C 
ATOM      6  C   LIG    1        2.513   3.469   0.336  0.00  0.00    +0.210 A 
ATOM      7  N   LIG    1        2.667   2.173   0.350  0.00  0.00    -0.490 NA
ATOM      8  C   LIG    1        1.462   1.585   0.410  0.00  0.00    +0.160 A 
ATOM      9  C   LIG    1        0.527   2.554   0.434  0.00  0.00    -0.050 A 
ATOM     10  N   LIG    1        1.193   3.749   0.388  0.00  0.00    -0.440 N 
ATOM     11  C   LIG    1        0.588   5.083   0.391  0.00  0.00    +0.330 C 
ENDBRANCH   4   9
ENDBRANCH   1   4
BRANCH   2  12
ATOM     12  C   LIG    1       -2.015   3.800   3.882  0.00  0.00    +0.220 C 
BRANCH  12  13
ATOM     13  O   LIG    1       -1.671   5.105   4.351  0.00  0.00    -0.530 OA
ATOM     14  H   LIG    1       -2.124   5.822   3.887  0.00  0.00    +0.380 HD
ENDBRANCH  12  13
BRANCH  12  15
ATOM     15  C   LIG    1       -3.518   3.574   4.059  0.00  0.00    +0.310 C 
BRANCH  15  16
ATOM     16  N   LIG    1       -3.849   3.595   5.486  0.00  0.00    -0.380 N 
ATOM     17  C   LIG    1       -4.757   4.380   6.091  0.00  0.00    +0.480 A 
ATOM     18  N   LIG    1       -4.756   4.094   7.368  0.00  0.00    -0.540 NA
ATOM     19  C   LIG    1       -3.858   3.141   7.616  0.00  0.00    +0.420 A 
ATOM     20  N   LIG    1       -3.277   2.803   6.495  0.00  0.00    -0.320 NA
ENDBRANCH  15  16
ENDBRANCH  12  15
ENDBRANCH   2  12
BRANCH   1  21
ATOM     21  C   LIG    1       -1.605   1.259   2.690  0.00  0.00    +0.280 C 
BRANCH  21  22
ATOM     22  C   LIG    1       -0.288   0.895   3.378  0.00  0.00    -0.100 C 
ATOM     23  C   LIG    1        0.610  -0.031   2.539  0.00  0.00    +0.020 C 
ATOM     24  C   LIG    1        0.937  -0.769   3.848  0.00  0.00    +0.010 C 
ATOM     25  C   LIG    1        0.444   2.113   3.944  0.00  0.00    +0.050 C 
ATOM     26  C   LIG    1       -0.416  -0.266   4.378  0.00  0.00    +0.020 C 
ENDBRANCH  21  22
ENDBRANCH   1  21
TORSDOF 8
