REMARK  Name = ZINCvU0000000BWL.0
REMARK                            x       y       z     vdW  Elec       q    Type
REMARK                         _______ _______ _______ _____ _____    ______ ____
ROOT
ATOM      1  C   LIG    1        6.850  -0.493  -2.179  0.00  0.00    +0.160 A 
ATOM      2  C   LIG    1        6.563   0.649  -2.815  0.00  0.00    -0.040 A 
ATOM      3  S   LIG    1        4.827   0.911  -2.571  0.00  0.00    +0.000 S 
ATOM      4  C   LIG    1        4.595  -0.556  -1.602  0.00  0.00    +0.390 A 
ATOM      5  N   LIG    1        3.472  -0.993  -1.065  0.00  0.00    -0.530 NA
ATOM      6  N   LIG    1        5.828  -1.138  -1.536  0.00  0.00    -0.490 N 
ENDROOT
BRANCH   5   7
ATOM      7  C   LIG    1        2.315  -0.283  -1.227  0.00  0.00    +0.130 A 
ATOM      8  C   LIG    1        1.129  -0.941  -1.563  0.00  0.00    +0.040 A 
ATOM      9  C   LIG    1       -0.035  -0.218  -1.725  0.00  0.00    +0.050 A 
ATOM     10  C   LIG    1       -0.030   1.156  -1.555  0.00  0.00    -0.050 A 
ATOM     11  C   LIG    1        1.142   1.814  -1.222  0.00  0.00    +0.060 A 
ATOM     12 CL   LIG    1       -1.498   2.058  -1.768  0.00  0.00    -0.070 Cl
ATOM     13  C   LIG    1        2.313   1.104  -1.057  0.00  0.00    -0.020 A 
ENDBRANCH   5   7
BRANCH   1  16
ATOM     14  C   LIG    1       10.185  -1.768  -3.360  0.00  0.00    +0.150 A 
ATOM     15  C   LIG    1        8.899  -1.258  -3.372  0.00  0.00    -0.050 A 
ATOM     16  C   LIG    1        8.225  -1.039  -2.169  0.00  0.00    +0.040 A 
ATOM     17  C   LIG    1        8.853  -1.330  -0.958  0.00  0.00    -0.080 A 
ATOM     18  C   LIG    1       10.138  -1.845  -0.951  0.00  0.00    +0.150 A 
ATOM     19  C   LIG    1       10.807  -2.062  -2.151  0.00  0.00    +0.040 A 
BRANCH  14  21
ATOM     20  C   LIG    1       10.143  -1.658  -5.735  0.00  0.00    +0.250 C 
ATOM     21  O   LIG    1       10.842  -1.982  -4.532  0.00  0.00    -0.300 OA
ENDBRANCH  14  21
BRANCH  18  22
ATOM     22  O   LIG    1       10.748  -2.134   0.229  0.00  0.00    -0.300 OA
ATOM     23  C   LIG    1       10.053  -1.773   1.424  0.00  0.00    +0.250 C 
ENDBRANCH  18  22
BRANCH  19  24
ATOM     24  O   LIG    1       12.072  -2.564  -2.142  0.00  0.00    -0.310 OA
ATOM     25  C   LIG    1       13.144  -1.621  -2.091  0.00  0.00    +0.220 C 
ENDBRANCH  19  24
ENDBRANCH   1  16
BRANCH   6  26
ATOM     26  C   LIG    1        6.046  -2.394  -0.814  0.00  0.00    +0.300 C 
BRANCH  26  27
ATOM     27  C   LIG    1        5.708  -3.574  -1.728  0.00  0.00    +0.160 C 
ATOM     28  C   LIG    1        5.855  -4.899  -0.949  0.00  0.00    +0.020 C 
ATOM     29  C   LIG    1        6.489  -5.837  -2.015  0.00  0.00    +0.020 C 
ATOM     30  C   LIG    1        7.375  -4.836  -2.800  0.00  0.00    +0.200 C 
ATOM     31  O   LIG    1        6.622  -3.613  -2.830  0.00  0.00    -0.370 OA
ENDBRANCH  26  27
ENDBRANCH   6  26
TORSDOF 7
