REMARK  Name = ZINCkj000005iBJq.0
REMARK                            x       y       z     vdW  Elec       q    Type
REMARK                         _______ _______ _______ _____ _____    ______ ____
ROOT
ATOM      1  S   LIG    1       -2.655   5.868   0.377  0.00  0.00    +2.700 S 
ATOM      2  O   LIG    1       -3.689   5.107  -0.232  0.00  0.00    -0.950 OA
ATOM      3  O   LIG    1       -2.443   7.247   0.108  0.00  0.00    -0.940 OA
ENDROOT
BRANCH   1   7
ATOM      4  C   LIG    1       -3.275   5.519   4.849  0.00  0.00    +0.200 A 
ATOM      5  C   LIG    1       -2.209   6.252   4.351  0.00  0.00    -0.090 A 
ATOM      6  C   LIG    1       -2.018   6.353   2.986  0.00  0.00    +0.060 A 
ATOM      7  C   LIG    1       -2.896   5.732   2.117  0.00  0.00    -0.720 A 
ATOM      8  C   LIG    1       -3.960   5.000   2.611  0.00  0.00    +0.160 A 
ATOM      9  C   LIG    1       -0.857   7.145   2.445  0.00  0.00    +0.110 C 
ATOM     10  C   LIG    1       -4.152   4.892   3.975  0.00  0.00    -0.140 A 
ATOM     11  C   LIG    1       -5.311   4.094   4.513  0.00  0.00    +0.110 C 
BRANCH   4  13
ATOM     12  C   LIG    1       -2.521   6.086   7.031  0.00  0.00    +0.250 C 
ATOM     13  O   LIG    1       -3.462   5.415   6.191  0.00  0.00    -0.300 OA
ENDBRANCH   4  13
ENDBRANCH   1   7
BRANCH   1  14
ATOM     14  N   LIG    1       -1.234   5.098   0.018  0.00  0.00    -1.110 NA
ATOM     15  H   LIG    1       -0.489   5.601  -0.347  0.00  0.00    +0.430 HD
BRANCH  14  16
ATOM     16  C   LIG    1       -1.101   3.658   0.252  0.00  0.00    +0.250 C 
ATOM     17  C   LIG    1        0.033   3.404   1.249  0.00  0.00    +0.040 C 
ATOM     18  C   LIG    1        0.214   1.893   1.426  0.00  0.00    +0.060 C 
ATOM     19  C   LIG    1        0.487   1.255   0.063  0.00  0.00    +0.260 C 
ATOM     20  N   LIG    1       -0.644   1.510  -0.837  0.00  0.00    -0.500 N 
ATOM     21  H   LIG    1       -1.492   1.158  -0.418  0.00  0.00    +0.430 HD
ATOM     22  H   LIG    1       -0.485   1.043  -1.716  0.00  0.00    +0.440 HD
ATOM     23  C   LIG    1       -0.780   2.954  -1.068  0.00  0.00    +0.260 C 
ENDBRANCH  14  16
ENDBRANCH   1  14
TORSDOF 4
