REMARK  Name = ZINCkj000018RBpQ.0
REMARK                            x       y       z     vdW  Elec       q    Type
REMARK                         _______ _______ _______ _____ _____    ______ ____
ROOT
ATOM      1  C   LIG    1       -0.700   1.562   3.681  0.00  0.00    +0.140 C 
ATOM      2  C   LIG    1        0.498   2.483   3.992  0.00  0.00    +0.050 C 
ATOM      3  C   LIG    1        1.720   1.722   3.419  0.00  0.00    +0.050 C 
ATOM      4  C   LIG    1        1.156   1.101   2.117  0.00  0.00    +0.050 C 
ATOM      5  C   LIG    1       -0.281   0.684   2.489  0.00  0.00    +0.170 C 
ENDROOT
BRANCH   1   9
ATOM      6  C   LIG    1       -4.096   2.195   4.295  0.00  0.00    +0.160 C 
ATOM      7  C   LIG    1       -3.600   3.662   4.375  0.00  0.00    +0.010 C 
ATOM      8  C   LIG    1       -2.065   3.480   4.280  0.00  0.00    +0.220 C 
ATOM      9  N   LIG    1       -1.875   2.368   3.325  0.00  0.00    -0.540 NA
ATOM     10  C   LIG    1       -3.098   1.543   3.315  0.00  0.00    +0.180 C 
BRANCH   6  11
ATOM     11  O   LIG    1       -5.426   2.134   3.775  0.00  0.00    -0.560 OA
ATOM     12  H   LIG    1       -6.093   2.530   4.353  0.00  0.00    +0.390 HD
ENDBRANCH   6  11
ENDBRANCH   1   9
BRANCH   5  13
ATOM     13  N   LIG    1       -1.183   0.916   1.353  0.00  0.00    -0.500 N 
ATOM     14  H   LIG    1       -2.134   0.729   1.634  0.00  0.00    +0.420 HD
ATOM     15  H   LIG    1       -1.103   1.875   1.051  0.00  0.00    +0.430 HD
BRANCH  13  16
ATOM     16  C   LIG    1       -0.815   0.022   0.246  0.00  0.00    +0.240 C 
BRANCH  16  17
ATOM     17  C   LIG    1       -1.754   0.264  -0.938  0.00  0.00    +0.040 C 
BRANCH  17  18
ATOM     18  C   LIG    1       -1.371  -0.666  -2.091  0.00  0.00    -0.010 C 
ATOM     19  C   LIG    1        0.025  -0.298  -2.604  0.00  0.00    -0.010 C 
ATOM     20  C   LIG    1        0.365  -1.180  -3.808  0.00  0.00    +0.210 C 
ATOM     21  O   LIG    1       -0.630  -1.012  -4.820  0.00  0.00    -0.380 OA
ATOM     22  C   LIG    1       -1.947  -1.387  -4.410  0.00  0.00    +0.210 C 
ATOM     23  C   LIG    1       -2.382  -0.512  -3.231  0.00  0.00    +0.010 C 
ENDBRANCH  17  18
ENDBRANCH  16  17
ENDBRANCH  13  16
ENDBRANCH   5  13
TORSDOF 6
