REMARK  Name = ZINCvU0000000CQL.0
REMARK                            x       y       z     vdW  Elec       q    Type
REMARK                         _______ _______ _______ _____ _____    ______ ____
ROOT
ATOM      1  C   LIG    1       -2.494   2.652   6.316  0.00  0.00    +0.040 A 
ATOM      2  C   LIG    1       -3.446   2.171   5.459  0.00  0.00    -0.210 A 
ATOM      3  C   LIG    1       -4.333   1.200   6.072  0.00  0.00    -0.050 A 
ATOM      4  C   LIG    1       -4.038   0.980   7.359  0.00  0.00    -0.250 A 
ATOM      5  C   LIG    1       -4.792   0.018   8.256  0.00  0.00    +0.120 C 
ATOM      6  C   LIG    1       -6.138  -0.312   7.604  0.00  0.00    +0.020 C 
ATOM      7  C   LIG    1       -5.899  -0.722   6.148  0.00  0.00    +0.020 C 
ATOM      8  C   LIG    1       -5.473   0.508   5.342  0.00  0.00    +0.090 C 
ATOM      9  S   LIG    1       -2.665   1.953   7.859  0.00  0.00    +0.300 S 
ENDROOT
BRANCH   1  11
ATOM     10  C   LIG    1       -0.632   3.993   6.896  0.00  0.00    +0.560 C 
ATOM     11  N   LIG    1       -1.526   3.583   5.975  0.00  0.00    -0.630 N 
ATOM     12  H   LIG    1       -1.492   3.939   5.074  0.00  0.00    +0.420 HD
ATOM     13  O   LIG    1       -0.675   3.546   8.026  0.00  0.00    -0.500 OA
BRANCH  10  17
ATOM     14  C   LIG    1        2.335   6.846   5.852  0.00  0.00    -0.030 A 
ATOM     15  C   LIG    1        2.290   6.339   7.139  0.00  0.00    +0.010 A 
ATOM     16  C   LIG    1        1.329   5.412   7.485  0.00  0.00    +0.090 A 
ATOM     17  C   LIG    1        0.401   4.986   6.533  0.00  0.00    -0.140 A 
ATOM     18  C   LIG    1        0.456   5.497   5.235  0.00  0.00    +0.040 A 
ATOM     19  C   LIG    1        1.419   6.428   4.904  0.00  0.00    +0.010 A 
BRANCH  14  21
ATOM     20  C   LIG    1        4.777   7.251   5.691  0.00  0.00    +0.040 C 
ATOM     21  C   LIG    1        3.388   7.859   5.482  0.00  0.00    -0.040 C 
ATOM     22  C   LIG    1        3.236   9.099   6.365  0.00  0.00    +0.040 C 
ATOM     23  C   LIG    1        3.221   8.255   4.013  0.00  0.00    +0.030 C 
ENDBRANCH  14  21
ENDBRANCH  10  17
ENDBRANCH   1  11
BRANCH   2  24
ATOM     24  C   LIG    1       -3.554   2.590   4.059  0.00  0.00    +0.590 C 
ATOM     25  N   LIG    1       -2.880   1.922   3.102  0.00  0.00    -0.720 N 
ATOM     26  H   LIG    1       -2.322   1.165   3.340  0.00  0.00    +0.410 HD
ATOM     27  O   LIG    1       -4.253   3.540   3.760  0.00  0.00    -0.530 OA
BRANCH  25  28
ATOM     28  C   LIG    1       -2.988   2.341   1.702  0.00  0.00    +0.290 C 
BRANCH  28  29
ATOM     29  C   LIG    1       -2.131   1.423   0.827  0.00  0.00    +0.140 C 
ATOM     30  C   LIG    1       -2.230   1.847  -0.655  0.00  0.00    +0.010 C 
ATOM     31  C   LIG    1       -0.804   1.620  -1.206  0.00  0.00    +0.000 C 
ATOM     32  C   LIG    1       -0.013   1.086   0.008  0.00  0.00    +0.190 C 
ATOM     33  O   LIG    1       -0.731   1.573   1.163  0.00  0.00    -0.370 OA
ENDBRANCH  28  29
ENDBRANCH  25  28
ENDBRANCH   2  24
TORSDOF 6
