REMARK  Name = ZINCvU0000000CUS.1
REMARK                            x       y       z     vdW  Elec       q    Type
REMARK                         _______ _______ _______ _____ _____    ______ ____
ROOT
ATOM      1  S   LIG    1       -3.651   5.192   0.525  0.00  0.00    +0.100 S 
ENDROOT
BRANCH   1   3
ATOM      2  N   LIG    1       -1.477   3.477   0.130  0.00  0.00    -0.450 N 
ATOM      3  C   LIG    1       -2.827   3.665   0.223  0.00  0.00    +0.150 A 
ATOM      4  N   LIG    1       -3.396   2.493   0.050  0.00  0.00    -0.290 NA
ATOM      5  N   LIG    1       -2.501   1.592  -0.148  0.00  0.00    -0.240 NA
ATOM      6  C   LIG    1       -1.306   2.133  -0.114  0.00  0.00    +0.220 A 
BRANCH   6   7
ATOM      7  C   LIG    1       -0.018   1.431  -0.297  0.00  0.00    -0.010 A 
ATOM      8  C   LIG    1        1.025   1.633   0.609  0.00  0.00    +0.060 A 
ATOM      9  C   LIG    1        2.223   0.971   0.436  0.00  0.00    +0.050 A 
ATOM     10  C   LIG    1        2.392   0.107  -0.633  0.00  0.00    -0.010 A 
ATOM     11  C   LIG    1        1.362  -0.098  -1.535  0.00  0.00    +0.050 A 
ATOM     12 CL   LIG    1        3.903  -0.723  -0.843  0.00  0.00    -0.040 Cl
ATOM     13  C   LIG    1        0.159   0.558  -1.373  0.00  0.00    +0.010 A 
ATOM     14 CL   LIG    1       -1.133   0.300  -2.505  0.00  0.00    -0.030 Cl
ENDBRANCH   6   7
BRANCH   2  16
ATOM     15  C   LIG    1       -0.097   5.061  -1.121  0.00  0.00    +0.060 C 
ATOM     16  C   LIG    1       -0.431   4.494   0.260  0.00  0.00    +0.300 C 
ENDBRANCH   2  16
ENDBRANCH   1   3
BRANCH   1  17
ATOM     17  C   LIG    1       -5.371   4.630   0.513  0.00  0.00    +0.140 C 
BRANCH  17  18
ATOM     18  C   LIG    1       -6.285   5.802   0.759  0.00  0.00    +0.540 C 
ATOM     19  N   LIG    1       -7.620   5.620   0.793  0.00  0.00    -0.610 N 
ATOM     20  H   LIG    1       -7.993   4.735   0.660  0.00  0.00    +0.430 HD
ATOM     21  O   LIG    1       -5.820   6.909   0.926  0.00  0.00    -0.450 OA
BRANCH  19  22
ATOM     22  C   LIG    1       -8.461   6.699   1.019  0.00  0.00    +0.380 A 
ATOM     23  N   LIG    1       -8.092   7.942   1.214  0.00  0.00    -0.260 NA
ATOM     24  N   LIG    1       -9.135   8.675   1.391  0.00  0.00    -0.260 NA
ATOM     25  C   LIG    1      -10.210   7.928   1.316  0.00  0.00    +0.210 A 
ATOM     26  O   LIG    1       -9.805   6.663   1.073  0.00  0.00    -0.230 OA
BRANCH  25  27
ATOM     27  C   LIG    1      -11.606   8.387   1.464  0.00  0.00    -0.020 A 
ATOM     28  C   LIG    1      -12.659   7.477   1.353  0.00  0.00    +0.040 A 
ATOM     29  C   LIG    1      -13.960   7.912   1.498  0.00  0.00    +0.010 A 
ATOM     30  C   LIG    1      -14.224   9.248   1.740  0.00  0.00    +0.040 A 
ATOM     31  C   LIG    1      -13.186  10.157   1.845  0.00  0.00    +0.020 A 
ATOM     32  C   LIG    1      -11.879   9.735   1.708  0.00  0.00    +0.070 A 
ENDBRANCH  25  27
ENDBRANCH  19  22
ENDBRANCH  17  18
ENDBRANCH   1  17
TORSDOF 7
