REMARK  Name = ZINCrH000004umkc.1
REMARK                            x       y       z     vdW  Elec       q    Type
REMARK                         _______ _______ _______ _____ _____    ______ ____
ROOT
ATOM      1  O   LIG    1       -0.913  -4.217  -1.556  0.00  0.00    -0.590 OA
ATOM      2  C   LIG    1       -0.945  -3.790  -0.418  0.00  0.00    +0.710 C 
ATOM      3  N   LIG    1       -0.185  -2.731  -0.074  0.00  0.00    -0.630 N 
ATOM      4  C   LIG    1       -0.283  -2.120   1.259  0.00  0.00    +0.310 C 
ATOM      5  C   LIG    1       -0.278  -0.624   1.119  0.00  0.00    -0.050 C 
ATOM      6  C   LIG    1        0.003  -0.004  -0.004  0.00  0.00    -0.030 C 
ATOM      7  C   LIG    1        0.348  -0.695  -1.289  0.00  0.00    +0.070 C 
ATOM      8  C   LIG    1        0.777  -2.139  -1.020  0.00  0.00    +0.300 C 
ATOM      9  N   LIG    1       -1.739  -4.375   0.500  0.00  0.00    -0.750 N 
ATOM     10  H   LIG    1       -1.820  -3.991   1.387  0.00  0.00    +0.400 HD
ENDROOT
BRANCH   6  11
ATOM     11  C   LIG    1       -0.016   1.472   0.001  0.00  0.00    -0.140 A 
ATOM     12  C   LIG    1        1.061   2.299  -0.004  0.00  0.00    +0.260 A 
ATOM     13  N   LIG    1        0.644   3.599   0.003  0.00  0.00    -0.580 N 
ATOM     14  H   LIG    1        1.233   4.370   0.002  0.00  0.00    +0.420 HD
ATOM     15  C   LIG    1       -0.730   3.660   0.012  0.00  0.00    +0.280 A 
ATOM     16  N   LIG    1       -1.590   4.671   0.021  0.00  0.00    -0.500 NA
ATOM     17  C   LIG    1       -2.891   4.471   0.028  0.00  0.00    +0.300 A 
ATOM     18  C   LIG    1       -3.429   3.194   0.028  0.00  0.00    -0.060 A 
ATOM     19  C   LIG    1       -2.581   2.101   0.019  0.00  0.00    +0.100 A 
ATOM     20  C   LIG    1       -1.207   2.337   0.005  0.00  0.00    -0.140 A 
ENDBRANCH   6  11
BRANCH   9  21
ATOM     21  C   LIG    1       -2.482  -5.591   0.157  0.00  0.00    +0.280 C 
BRANCH  21  22
ATOM     22  C   LIG    1       -3.300  -6.046   1.367  0.00  0.00    +0.080 C 
BRANCH  22  23
ATOM     23  C   LIG    1       -4.064  -7.297   1.015  0.00  0.00    -0.120 A 
ATOM     24  C   LIG    1       -3.588  -8.532   1.411  0.00  0.00    +0.050 A 
ATOM     25  C   LIG    1       -4.288  -9.680   1.088  0.00  0.00    +0.000 A 
ATOM     26  C   LIG    1       -5.465  -9.593   0.368  0.00  0.00    +0.040 A 
ATOM     27  C   LIG    1       -5.943  -8.358  -0.029  0.00  0.00    -0.010 A 
ATOM     28  C   LIG    1       -5.246  -7.208   0.299  0.00  0.00    +0.100 A 
ATOM     29  F   LIG    1       -5.715  -6.001  -0.084  0.00  0.00    -0.140 F 
ENDBRANCH  22  23
ENDBRANCH  21  22
ENDBRANCH   9  21
TORSDOF 4
