REMARK  Name = ZINCrH000004umkc.0
REMARK                            x       y       z     vdW  Elec       q    Type
REMARK                         _______ _______ _______ _____ _____    ______ ____
ROOT
ATOM      1  O   LIG    1       -5.854  -3.562   1.326  0.00  0.00    -0.590 OA
ATOM      2  C   LIG    1       -4.663  -3.455   1.108  0.00  0.00    +0.710 C 
ATOM      3  N   LIG    1       -4.214  -2.499   0.270  0.00  0.00    -0.630 N 
ATOM      4  C   LIG    1       -2.794  -2.411  -0.098  0.00  0.00    +0.310 C 
ATOM      5  C   LIG    1       -2.362  -0.972  -0.058  0.00  0.00    -0.060 C 
ATOM      6  C   LIG    1       -3.203   0.033   0.055  0.00  0.00    -0.020 C 
ATOM      7  C   LIG    1       -4.690  -0.119   0.181  0.00  0.00    +0.050 C 
ATOM      8  C   LIG    1       -5.127  -1.502  -0.313  0.00  0.00    +0.300 C 
ATOM      9  N   LIG    1       -3.791  -4.293   1.703  0.00  0.00    -0.750 N 
ATOM     10  H   LIG    1       -2.837  -4.167   1.582  0.00  0.00    +0.400 HD
ENDROOT
BRANCH   6  11
ATOM     11  C   LIG    1       -2.647   1.397   0.064  0.00  0.00    -0.190 A 
ATOM     12  C   LIG    1       -1.912   2.016  -0.936  0.00  0.00    +0.250 A 
ATOM     13  N   LIG    1       -1.590   3.247  -0.556  0.00  0.00    -0.550 NA
ATOM     14  C   LIG    1       -2.051   3.535   0.651  0.00  0.00    +0.260 A 
ATOM     15  N   LIG    1       -1.975   4.651   1.446  0.00  0.00    -0.500 N 
ATOM     16  H   LIG    1       -1.501   5.435   1.128  0.00  0.00    +0.420 HD
ATOM     17  C   LIG    1       -2.551   4.670   2.659  0.00  0.00    +0.330 A 
ATOM     18  C   LIG    1       -3.227   3.595   3.148  0.00  0.00    -0.070 A 
ATOM     19  C   LIG    1       -3.340   2.433   2.391  0.00  0.00    +0.180 A 
ATOM     20  C   LIG    1       -2.746   2.394   1.136  0.00  0.00    -0.150 A 
ENDBRANCH   6  11
BRANCH   9  21
ATOM     21  C   LIG    1       -4.284  -5.395   2.533  0.00  0.00    +0.280 C 
BRANCH  21  22
ATOM     22  C   LIG    1       -3.098  -6.187   3.086  0.00  0.00    +0.080 C 
BRANCH  22  23
ATOM     23  C   LIG    1       -3.606  -7.321   3.940  0.00  0.00    -0.120 A 
ATOM     24  C   LIG    1       -3.670  -8.600   3.423  0.00  0.00    +0.050 A 
ATOM     25  C   LIG    1       -4.135  -9.640   4.207  0.00  0.00    +0.000 A 
ATOM     26  C   LIG    1       -4.537  -9.401   5.508  0.00  0.00    +0.040 A 
ATOM     27  C   LIG    1       -4.474  -8.121   6.027  0.00  0.00    -0.010 A 
ATOM     28  C   LIG    1       -4.002  -7.081   5.245  0.00  0.00    +0.100 A 
ATOM     29  F   LIG    1       -3.934  -5.831   5.754  0.00  0.00    -0.140 F 
ENDBRANCH  22  23
ENDBRANCH  21  22
ENDBRANCH   9  21
TORSDOF 4
