REMARK  Name = ZINCrH000009n929.0
REMARK                            x       y       z     vdW  Elec       q    Type
REMARK                         _______ _______ _______ _____ _____    ______ ____
ROOT
ATOM      1  C   LIG    1       -0.013   2.249   1.869  0.00  0.00    +0.540 C 
ATOM      2  N   LIG    1       -0.457   1.935   0.635  0.00  0.00    -0.620 N 
ATOM      3  C   LIG    1        0.482   1.740  -0.480  0.00  0.00    +0.260 C 
ATOM      4  C   LIG    1        0.008   2.586  -1.667  0.00  0.00    +0.220 C 
ATOM      5  O   LIG    1       -1.366   2.295  -1.933  0.00  0.00    -0.370 OA
ATOM      6  C   LIG    1       -2.253   2.630  -0.860  0.00  0.00    +0.080 C 
ATOM      7  C   LIG    1       -3.690   2.332  -1.282  0.00  0.00    +0.110 C 
ATOM      8  C   LIG    1       -3.944   2.896  -2.685  0.00  0.00    -0.310 C 
ATOM      9  S   LIG    1       -3.694   4.698  -2.626  0.00  0.00    +2.260 S 
ATOM     10  C   LIG    1       -2.092   4.945  -1.795  0.00  0.00    -0.180 C 
ATOM     11  N   LIG    1       -4.757   5.279  -1.753  0.00  0.00    -1.070 NA
ATOM     12  O   LIG    1       -3.786   5.333  -3.894  0.00  0.00    -0.930 OA
ATOM     13  C   LIG    1       -2.086   4.107  -0.511  0.00  0.00    +0.070 C 
ATOM     14  C   LIG    1       -1.895   1.777   0.364  0.00  0.00    +0.290 C 
ATOM     15  O   LIG    1       -0.805   2.491   2.755  0.00  0.00    -0.530 OA
ENDROOT
BRANCH  11  16
ATOM     16  C   LIG    1       -6.026   5.230  -2.132  0.00  0.00    +0.240 A 
ATOM     17  C   LIG    1       -6.381   4.632  -3.368  0.00  0.00    -0.160 A 
ATOM     18  C   LIG    1       -7.692   4.584  -3.742  0.00  0.00    +0.060 A 
ATOM     19  C   LIG    1       -8.675   5.126  -2.924  0.00  0.00    -0.060 A 
ATOM     20  C   LIG    1       -8.342   5.721  -1.713  0.00  0.00    +0.040 A 
ATOM     21  C   LIG    1       -7.041   5.779  -1.309  0.00  0.00    -0.020 A 
ENDBRANCH  11  16
BRANCH   1  22
ATOM     22  C   LIG    1        1.467   2.300   2.146  0.00  0.00    -0.110 C 
ATOM     23  C   LIG    1        1.823   3.005   3.466  0.00  0.00    +0.060 C 
ATOM     24  C   LIG    1        3.007   3.640   2.715  0.00  0.00    +0.020 C 
ATOM     25  C   LIG    1        2.190   3.451   1.426  0.00  0.00    +0.030 C 
BRANCH  22  27
ATOM     26  C   LIG    1        1.528  -0.070   2.935  0.00  0.00    +0.020 C 
ATOM     27  C   LIG    1        2.151   0.943   1.972  0.00  0.00    +0.050 C 
ENDBRANCH  22  27
ENDBRANCH   1  22
TORSDOF 3
