REMARK  Name = ZINCvU0000000Ao4.0
REMARK                            x       y       z     vdW  Elec       q    Type
REMARK                         _______ _______ _______ _____ _____    ______ ____
ROOT
ATOM      1  C   LIG    1       -0.071   0.164   3.279  0.00  0.00    +0.610 C 
ATOM      2  N   LIG    1        1.030   0.937   3.361  0.00  0.00    -0.580 N 
ATOM      3  C   LIG    1        1.859   1.043   2.304  0.00  0.00    +0.700 C 
ATOM      4  N   LIG    1        3.013   1.729   2.418  0.00  0.00    -0.740 N 
ATOM      5  H   LIG    1        3.284   2.082   3.280  0.00  0.00    +0.400 HD
ATOM      6  O   LIG    1        1.565   0.521   1.246  0.00  0.00    -0.540 OA
ATOM      7  O   LIG    1       -0.633   0.018   2.211  0.00  0.00    -0.470 OA
ENDROOT
BRANCH   1  11
ATOM      8  C   LIG    1       -1.034  -1.044   8.141  0.00  0.00    +0.130 C 
ATOM      9  C   LIG    1       -1.004  -1.026   6.635  0.00  0.00    +0.010 A 
ATOM     10  C   LIG    1       -0.331  -0.142   5.879  0.00  0.00    +0.010 A 
ATOM     11  C   LIG    1       -0.589  -0.509   4.481  0.00  0.00    -0.250 A 
ATOM     12  C   LIG    1       -1.419  -1.608   4.524  0.00  0.00    +0.130 A 
ATOM     13  C   LIG    1       -1.968  -2.348   3.332  0.00  0.00    +0.150 C 
ATOM     14  N   LIG    1       -1.654  -1.908   5.818  0.00  0.00    -0.390 N 
BRANCH  14  15
ATOM     15  C   LIG    1       -2.455  -2.970   6.261  0.00  0.00    +0.110 A 
ATOM     16  C   LIG    1       -2.077  -4.280   6.005  0.00  0.00    +0.020 A 
ATOM     17  C   LIG    1       -2.865  -5.324   6.448  0.00  0.00    +0.020 A 
ATOM     18  C   LIG    1       -4.036  -5.065   7.136  0.00  0.00    +0.020 A 
ATOM     19  C   LIG    1       -4.418  -3.760   7.388  0.00  0.00    +0.020 A 
ATOM     20  C   LIG    1       -3.631  -2.712   6.953  0.00  0.00    +0.020 A 
ENDBRANCH  14  15
ENDBRANCH   1  11
BRANCH   2  21
ATOM     21  C   LIG    1        1.327   1.661   4.600  0.00  0.00    +0.230 C 
ATOM     22  C   LIG    1        1.978   0.709   5.604  0.00  0.00    +0.000 C 
ATOM     23  C   LIG    1        2.288   1.465   6.897  0.00  0.00    +0.020 C 
ATOM     24  C   LIG    1        0.989   2.018   7.488  0.00  0.00    +0.010 C 
ATOM     25  C   LIG    1        0.337   2.970   6.484  0.00  0.00    +0.030 C 
ATOM     26  C   LIG    1        0.028   2.214   5.190  0.00  0.00    +0.010 C 
ENDBRANCH   2  21
BRANCH   4  27
ATOM     27  C   LIG    1        3.859   1.942   1.241  0.00  0.00    +0.250 C 
ATOM     28  C   LIG    1        4.770   0.730   1.041  0.00  0.00    +0.000 C 
ATOM     29  C   LIG    1        5.653   0.952  -0.188  0.00  0.00    +0.020 C 
ATOM     30  C   LIG    1        6.508   2.204   0.018  0.00  0.00    +0.000 C 
ATOM     31  C   LIG    1        5.597   3.417   0.218  0.00  0.00    +0.020 C 
ATOM     32  C   LIG    1        4.714   3.195   1.447  0.00  0.00    +0.010 C 
ENDBRANCH   4  27
TORSDOF 4
