REMARK  Name = ZINCpe000000YZtH.0
REMARK                            x       y       z     vdW  Elec       q    Type
REMARK                         _______ _______ _______ _____ _____    ______ ____
ROOT
ATOM      1  O   LIG    1       -0.944   3.493   0.025  0.00  0.00    -0.510 OA
ATOM      2  C   LIG    1       -1.093   2.289   0.020  0.00  0.00    +0.520 C 
ATOM      3  N   LIG    1       -0.018   1.477   0.010  0.00  0.00    -0.620 N 
ATOM      4  C   LIG    1        0.002  -0.004   0.002  0.00  0.00    +0.280 C 
ATOM      5  C   LIG    1        1.168  -0.383   0.941  0.00  0.00    -0.010 C 
ATOM      6  C   LIG    1        2.097   0.848   0.939  0.00  0.00    +0.000 C 
ATOM      7  C   LIG    1        1.412   1.863  -0.001  0.00  0.00    +0.280 C 
ENDROOT
BRANCH   6   8
ATOM      8  C   LIG    1        3.479   0.470   0.401  0.00  0.00    +0.040 C 
BRANCH   8   9
ATOM      9  C   LIG    1        4.420   1.671   0.523  0.00  0.00    +0.170 C 
BRANCH   9  10
ATOM     10  O   LIG    1        5.710   1.318   0.021  0.00  0.00    -0.580 OA
ATOM     11  H   LIG    1        6.359   2.033   0.067  0.00  0.00    +0.380 HD
ENDBRANCH   9  10
ENDBRANCH   8   9
ENDBRANCH   6   8
BRANCH   5  12
ATOM     12  C   LIG    1        1.907  -1.609   0.402  0.00  0.00    +0.190 C 
BRANCH  12  13
ATOM     13  O   LIG    1        1.045  -2.747   0.456  0.00  0.00    -0.580 OA
ATOM     14  H   LIG    1        1.449  -3.563   0.129  0.00  0.00    +0.390 HD
ENDBRANCH  12  13
ENDBRANCH   5  12
BRANCH   2  15
ATOM     15  C   LIG    1       -2.481   1.702   0.024  0.00  0.00    +0.380 C 
BRANCH  15  16
ATOM     16  N   LIG    1       -3.469   2.784   0.035  0.00  0.00    -0.320 N 
ATOM     17  N   LIG    1       -4.031   3.397  -1.091  0.00  0.00    -0.220 NA
ATOM     18  C   LIG    1       -4.868   4.314  -0.682  0.00  0.00    +0.010 A 
ATOM     19  C   LIG    1       -4.867   4.315   0.720  0.00  0.00    -0.210 A 
ATOM     20  C   LIG    1       -5.497   5.005   1.911  0.00  0.00    +0.110 C 
ATOM     21  C   LIG    1       -4.585   4.652   3.106  0.00  0.00    +0.060 C 
ATOM     22  C   LIG    1       -3.955   3.319   2.646  0.00  0.00    +0.120 C 
ATOM     23  C   LIG    1       -4.004   3.362   1.134  0.00  0.00    +0.070 A 
BRANCH  18  24
ATOM     24  C   LIG    1       -5.693   5.215  -1.565  0.00  0.00    +0.560 C 
ATOM     25  F   LIG    1       -5.286   6.541  -1.388  0.00  0.00    -0.170 F 
ATOM     26  F   LIG    1       -7.044   5.092  -1.225  0.00  0.00    -0.170 F 
ATOM     27  F   LIG    1       -5.514   4.847  -2.903  0.00  0.00    -0.170 F 
ENDBRANCH  18  24
ENDBRANCH  15  16
ENDBRANCH   2  15
TORSDOF 8
