REMARK  Name = ZINCrH000004tl2t.0
REMARK                            x       y       z     vdW  Elec       q    Type
REMARK                         _______ _______ _______ _____ _____    ______ ____
ROOT
ATOM      1  N   LIG    1        1.659   5.793  -1.385  0.00  0.00    -0.650 N 
ATOM      2  H   LIG    1        0.756   5.457  -1.499  0.00  0.00    +0.410 HD
ATOM      3  C   LIG    1        2.021   6.958  -1.958  0.00  0.00    +0.520 C 
ATOM      4  O   LIG    1        3.150   7.378  -1.816  0.00  0.00    -0.500 OA
ENDROOT
BRANCH   1   9
ATOM      5  N   LIG    1        2.355   3.885   0.001  0.00  0.00    -0.350 N 
ATOM      6  N   LIG    1        3.545   3.505   0.636  0.00  0.00    -0.280 NA
ATOM      7  C   LIG    1        4.449   4.422   0.404  0.00  0.00    +0.280 A 
ATOM      8  C   LIG    1        3.874   5.421  -0.387  0.00  0.00    -0.090 A 
ATOM      9  C   LIG    1        2.582   5.070  -0.631  0.00  0.00    +0.310 A 
BRANCH   5  13
ATOM     10  C   LIG    1       -1.232   1.759   0.017  0.00  0.00    -0.030 A 
ATOM     11  C   LIG    1       -0.013   1.076   0.008  0.00  0.00    +0.110 A 
ATOM     12  C   LIG    1        1.170   1.782   0.001  0.00  0.00    +0.040 A 
ATOM     13  C   LIG    1        1.152   3.172   0.008  0.00  0.00    +0.190 A 
ATOM     14  C   LIG    1       -0.059   3.855   0.024  0.00  0.00    -0.010 A 
ATOM     15  C   LIG    1       -1.246   3.156   0.032  0.00  0.00    +0.110 A 
BRANCH  10  17
ATOM     16  N   LIG    1       -3.441   0.450   0.020  0.00  0.00    -0.400 NA
ATOM     17  C   LIG    1       -2.464   1.029   0.019  0.00  0.00    +0.250 C 
ENDBRANCH  10  17
ENDBRANCH   5  13
ENDBRANCH   1   9
BRANCH   3  18
ATOM     18  C   LIG    1        1.023   7.739  -2.773  0.00  0.00    +0.070 C 
BRANCH  18  19
ATOM     19  C   LIG    1        1.684   9.012  -3.306  0.00  0.00    +0.100 C 
BRANCH  19  20
ATOM     20  C   LIG    1        0.687   9.793  -4.121  0.00  0.00    -0.110 A 
ATOM     21  C   LIG    1        0.580   9.560  -5.485  0.00  0.00    +0.040 A 
ATOM     22  C   LIG    1       -0.329  10.260  -6.249  0.00  0.00    -0.010 A 
ATOM     23  C   LIG    1       -1.142  11.217  -5.650  0.00  0.00    +0.090 A 
ATOM     24  N   LIG    1       -2.118  12.063  -6.126  0.00  0.00    -0.600 N 
ATOM     25  H   LIG    1       -2.408  12.116  -7.051  0.00  0.00    +0.420 HD
ATOM     26  C   LIG    1       -2.619  12.819  -5.101  0.00  0.00    +0.220 A 
ATOM     27  C   LIG    1       -2.002  12.499  -3.953  0.00  0.00    -0.060 A 
ATOM     28  C   LIG    1       -1.026  11.453  -4.268  0.00  0.00    -0.110 A 
ATOM     29  C   LIG    1       -0.102  10.729  -3.513  0.00  0.00    +0.060 A 
ENDBRANCH  19  20
ENDBRANCH  18  19
ENDBRANCH   3  18
TORSDOF 6
