REMARK  Name = ZINCrD00000cI0vC.0
REMARK                            x       y       z     vdW  Elec       q    Type
REMARK                         _______ _______ _______ _____ _____    ______ ____
ROOT
ATOM      1  C   LIG    1       -3.254  -1.986   2.652  0.00  0.00    +0.080 C 
ATOM      2  C   LIG    1       -3.282  -2.378   1.173  0.00  0.00    -0.080 C 
ATOM      3  C   LIG    1       -2.056  -1.914   0.370  0.00  0.00    +0.270 C 
ATOM      4  N   LIG    1       -2.758  -0.644   0.135  0.00  0.00    -0.630 N 
ATOM      5  C   LIG    1       -2.400   0.633  -0.107  0.00  0.00    +0.620 C 
ATOM      6  O   LIG    1       -3.254   1.484  -0.270  0.00  0.00    -0.490 OA
ATOM      7  C   LIG    1       -3.669  -3.840   0.942  0.00  0.00    +0.060 C 
ATOM      8  C   LIG    1       -4.024  -1.381   0.272  0.00  0.00    +0.330 C 
ENDROOT
BRANCH   5   9
ATOM      9  C   LIG    1       -0.977   0.997  -0.173  0.00  0.00    +0.000 A 
ATOM     10  C   LIG    1       -0.475   2.261  -0.409  0.00  0.00    +0.050 A 
ATOM     11  C   LIG    1        0.915   2.169  -0.396  0.00  0.00    +0.040 A 
ATOM     12  C   LIG    1        1.242   0.850  -0.147  0.00  0.00    +0.090 A 
ATOM     13  N   LIG    1        0.081   0.141  -0.009  0.00  0.00    -0.520 N 
ATOM     14  H   LIG    1        0.017  -0.810   0.171  0.00  0.00    +0.420 HD
BRANCH  12  15
ATOM     15  C   LIG    1        2.567   0.317  -0.051  0.00  0.00    +0.270 C 
ATOM     16  N   LIG    1        3.619  -0.105   0.026  0.00  0.00    -0.390 NA
ENDBRANCH  12  15
ENDBRANCH   5   9
BRANCH   8  17
ATOM     17  C   LIG    1       -5.096  -0.604   0.992  0.00  0.00    +0.200 A 
ATOM     18  N   LIG    1       -4.910   0.167   2.028  0.00  0.00    -0.460 NA
ATOM     19  C   LIG    1       -6.085   0.695   2.402  0.00  0.00    +0.140 A 
ATOM     20  C   LIG    1       -7.034   0.234   1.566  0.00  0.00    +0.120 A 
ATOM     21  N   LIG    1       -6.406  -0.585   0.667  0.00  0.00    -0.450 N 
BRANCH  21  22
ATOM     22  C   LIG    1       -7.039  -1.310  -0.438  0.00  0.00    +0.340 C 
BRANCH  22  23
ATOM     23  C   LIG    1       -6.956  -0.482  -1.694  0.00  0.00    -0.120 A 
ATOM     24  C   LIG    1       -7.934   0.457  -1.968  0.00  0.00    +0.020 A 
ATOM     25  C   LIG    1       -7.856   1.220  -3.118  0.00  0.00    +0.010 A 
ATOM     26  C   LIG    1       -6.806   1.037  -3.999  0.00  0.00    +0.020 A 
ATOM     27  C   LIG    1       -5.832   0.095  -3.728  0.00  0.00    +0.000 A 
ATOM     28  C   LIG    1       -5.907  -0.665  -2.575  0.00  0.00    +0.020 A 
ENDBRANCH  22  23
ENDBRANCH  21  22
ENDBRANCH   8  17
TORSDOF 5
