REMARK  Name = ZINCvU000000099i.0
REMARK                            x       y       z     vdW  Elec       q    Type
REMARK                         _______ _______ _______ _____ _____    ______ ____
ROOT
ATOM      1  C   LIG    1        1.239  -2.163  -0.085  0.00  0.00    +0.160 C 
ATOM      2  N   LIG    1        2.303  -2.888  -0.078  0.00  0.00    -0.250 NA
ATOM      3  N   LIG    1        2.057  -4.260  -0.062  0.00  0.00    -0.460 N 
ATOM      4  C   LIG    1        0.603  -4.482  -0.057  0.00  0.00    +0.260 C 
ATOM      5  C   LIG    1        2.998  -5.225  -0.052  0.00  0.00    +0.590 C 
ATOM      6  O   LIG    1        2.672  -6.391   0.058  0.00  0.00    -0.480 OA
ATOM      7  C   LIG    1        0.019  -3.056  -0.067  0.00  0.00    +0.090 C 
ENDROOT
BRANCH   4   8
ATOM      8  C   LIG    1        0.179  -5.246  -1.286  0.00  0.00    -0.100 A 
ATOM      9  C   LIG    1        0.772  -4.976  -2.505  0.00  0.00    +0.010 A 
ATOM     10  C   LIG    1        0.387  -5.680  -3.631  0.00  0.00    +0.000 A 
ATOM     11  C   LIG    1       -0.598  -6.646  -3.539  0.00  0.00    -0.080 A 
ATOM     12  C   LIG    1       -1.194  -6.912  -2.321  0.00  0.00    +0.000 A 
ATOM     13  C   LIG    1       -1.021  -7.409  -4.768  0.00  0.00    +0.090 C 
ATOM     14  C   LIG    1       -0.805  -6.212  -1.194  0.00  0.00    +0.030 A 
ENDBRANCH   4   8
BRANCH   5  15
ATOM     15  C   LIG    1        4.426  -4.866  -0.176  0.00  0.00    -0.140 A 
ATOM     16  C   LIG    1        4.815  -3.525  -0.173  0.00  0.00    +0.110 A 
ATOM     17  C   LIG    1        6.150  -3.197  -0.284  0.00  0.00    -0.010 A 
ATOM     18  C   LIG    1        7.103  -4.193  -0.408  0.00  0.00    +0.060 A 
ATOM     19  C   LIG    1        6.726  -5.523  -0.417  0.00  0.00    +0.010 A 
ATOM     20  C   LIG    1        5.393  -5.867  -0.301  0.00  0.00    +0.020 A 
ATOM     21 CL   LIG    1        4.921  -7.537  -0.311  0.00  0.00    -0.030 Cl
ENDBRANCH   5  15
BRANCH   1  25
ATOM     22  C   LIG    1        1.161   2.085  -0.131  0.00  0.00    +0.120 A 
ATOM     23  C   LIG    1       -0.028   1.370  -0.121  0.00  0.00    -0.040 A 
ATOM     24  C   LIG    1       -0.007  -0.009  -0.107  0.00  0.00    +0.060 A 
ATOM     25  C   LIG    1        1.214  -0.689  -0.101  0.00  0.00    -0.040 A 
ATOM     26  C   LIG    1        2.411   0.032  -0.110  0.00  0.00    +0.000 A 
ATOM     27  C   LIG    1        2.382   1.414  -0.125  0.00  0.00    +0.100 A 
BRANCH  22  29
ATOM     28  C   LIG    1       -0.151   4.068  -0.151  0.00  0.00    +0.240 C 
ATOM     29  O   LIG    1        1.134   3.444  -0.145  0.00  0.00    -0.300 OA
ENDBRANCH  22  29
BRANCH  27  30
ATOM     30  O   LIG    1        3.545   2.118  -0.133  0.00  0.00    -0.300 OA
ATOM     31  C   LIG    1        4.760   1.365  -0.126  0.00  0.00    +0.240 C 
ENDBRANCH  27  30
ENDBRANCH   1  25
TORSDOF 5
