REMARK  Name = ZINCpe000000TYE6.0
REMARK                            x       y       z     vdW  Elec       q    Type
REMARK                         _______ _______ _______ _____ _____    ______ ____
ROOT
ATOM      1  N   LIG    1        3.671   1.218  -0.026  0.00  0.00    -0.730 N 
ATOM      2  H   LIG    1        3.835   2.174  -0.023  0.00  0.00    +0.410 HD
ATOM      3  C   LIG    1        2.406   0.752  -0.017  0.00  0.00    +0.510 C 
ATOM      4  O   LIG    1        2.201  -0.443  -0.021  0.00  0.00    -0.530 OA
ENDROOT
BRANCH   1   5
ATOM      5  C   LIG    1        4.797   0.282  -0.042  0.00  0.00    +0.280 C 
BRANCH   5   6
ATOM      6  C   LIG    1        6.111   1.065  -0.051  0.00  0.00    -0.010 C 
BRANCH   6   7
ATOM      7  C   LIG    1        7.287   0.086  -0.067  0.00  0.00    +0.300 C 
BRANCH   7   8
ATOM      8  N   LIG    1        8.546   0.836  -0.075  0.00  0.00    -1.000 NA
ATOM      9  C   LIG    1        9.131   1.299   1.186  0.00  0.00    +0.290 C 
BRANCH   8  10
ATOM     10  S   LIG    1        9.308   1.160  -1.509  0.00  0.00    +2.600 S 
ATOM     11  O   LIG    1        8.879   0.119  -2.377  0.00  0.00    -0.950 OA
ATOM     12  O   LIG    1       10.677   1.302  -1.155  0.00  0.00    -0.950 OA
BRANCH  10  14
ATOM     13  C   LIG    1        9.252   3.166  -3.368  0.00  0.00    +0.070 C 
ATOM     14  C   LIG    1        8.619   2.753  -2.038  0.00  0.00    -0.370 C 
ENDBRANCH  10  14
ENDBRANCH   8  10
ENDBRANCH   7   8
ENDBRANCH   6   7
ENDBRANCH   5   6
ENDBRANCH   1   5
BRANCH   3  15
ATOM     15  C   LIG    1        1.248   1.716  -0.001  0.00  0.00    +0.300 C 
BRANCH  15  16
ATOM     16  N   LIG    1       -0.011   0.966   0.007  0.00  0.00    -0.720 N 
ATOM     17  H   LIG    1        0.002  -0.004   0.002  0.00  0.00    +0.410 HD
ATOM     18  C   LIG    1       -1.187   1.624   0.017  0.00  0.00    +0.560 C 
ATOM     19  O   LIG    1       -1.204   2.839   0.023  0.00  0.00    -0.540 OA
BRANCH  18  20
ATOM     20  C   LIG    1       -2.458   0.867   0.018  0.00  0.00    -0.130 A 
ATOM     21  C   LIG    1       -2.442  -0.528   0.005  0.00  0.00    +0.040 A 
ATOM     22  C   LIG    1       -3.631  -1.228   0.012  0.00  0.00    -0.090 A 
ATOM     23  C   LIG    1       -4.837  -0.550   0.021  0.00  0.00    +0.040 A 
ATOM     24  C   LIG    1       -4.859   0.834   0.029  0.00  0.00    -0.090 A 
ATOM     25  C   LIG    1       -6.177   1.564   0.039  0.00  0.00    +0.090 C 
ATOM     26  C   LIG    1       -3.616  -2.735   0.004  0.00  0.00    +0.090 C 
ATOM     27  C   LIG    1       -3.677   1.546   0.028  0.00  0.00    +0.080 A 
ENDBRANCH  18  20
ENDBRANCH  15  16
ENDBRANCH   3  15
TORSDOF 9
