REMARK  Name = ZINCrH000004lkGR.0
REMARK                            x       y       z     vdW  Elec       q    Type
REMARK                         _______ _______ _______ _____ _____    ______ ____
ROOT
ATOM      1  C   LIG    1        1.112   6.422   0.466  0.00  0.00    +0.310 A 
ATOM      2  C   LIG    1       -0.097   5.732   0.442  0.00  0.00    -0.060 A 
ATOM      3  C   LIG    1       -0.107   4.366   0.268  0.00  0.00    +0.190 A 
ATOM      4  C   LIG    1        1.097   3.671   0.129  0.00  0.00    -0.190 A 
ATOM      5  C   LIG    1        2.310   4.368   0.154  0.00  0.00    +0.180 A 
ATOM      6  C   LIG    1        2.313   5.734   0.321  0.00  0.00    -0.140 A 
ENDROOT
BRANCH   4   7
ATOM      7  C   LIG    1        1.090   2.207  -0.050  0.00  0.00    +0.570 C 
ATOM      8  N   LIG    1        2.019   1.448   0.564  0.00  0.00    -0.610 N 
ATOM      9  C   LIG    1        3.084   2.083   1.346  0.00  0.00    +0.290 C 
ATOM     10  O   LIG    1        0.245   1.685  -0.751  0.00  0.00    -0.510 OA
BRANCH   8  11
ATOM     11  C   LIG    1        1.962  -0.011   0.454  0.00  0.00    +0.360 C 
BRANCH  11  12
ATOM     12  C   LIG    1        2.756  -0.456  -0.747  0.00  0.00    -0.150 A 
ATOM     13  C   LIG    1        2.138  -0.577  -1.980  0.00  0.00    +0.140 A 
ATOM     14  C   LIG    1        2.870  -0.980  -3.084  0.00  0.00    -0.020 A 
ATOM     15  C   LIG    1        4.214  -1.273  -2.952  0.00  0.00    +0.070 A 
ATOM     16  C   LIG    1        4.830  -1.158  -1.720  0.00  0.00    +0.010 A 
ATOM     17  F   LIG    1        0.823  -0.295  -2.107  0.00  0.00    -0.110 F 
ATOM     18  C   LIG    1        4.102  -0.750  -0.617  0.00  0.00    +0.000 A 
ATOM     19 CL   LIG    1        4.876  -0.607   0.930  0.00  0.00    -0.050 Cl
ENDBRANCH  11  12
ENDBRANCH   8  11
ENDBRANCH   4   7
BRANCH   6  20
ATOM     20  N   LIG    1        3.596   6.471   0.347  0.00  0.00    +0.050 N 
ATOM     21  O   LIG    1        3.598   7.689   0.370  0.00  0.00    -0.200 OA
ATOM     22  O   LIG    1        4.650   5.861   0.346  0.00  0.00    -0.150 OA
ENDBRANCH   6  20
BRANCH   1  23
ATOM     23  N   LIG    1        1.119   7.802   0.635  0.00  0.00    -0.700 N 
ATOM     24  H   LIG    1        1.951   8.296   0.561  0.00  0.00    +0.430 HD
BRANCH  23  25
ATOM     25  C   LIG    1       -0.130   8.511   0.924  0.00  0.00    +0.280 C 
BRANCH  25  26
ATOM     26  C   LIG    1        0.154  10.008   1.063  0.00  0.00    +0.180 C 
BRANCH  26  28
ATOM     27  C   LIG    1        0.895  11.925  -0.171  0.00  0.00    +0.210 C 
ATOM     28  O   LIG    1        0.601  10.527  -0.192  0.00  0.00    -0.390 OA
ENDBRANCH  26  28
ENDBRANCH  25  26
ENDBRANCH  23  25
ENDBRANCH   1  23
TORSDOF 8
