REMARK  Name = ZINCvU00000006Ie.0
REMARK                            x       y       z     vdW  Elec       q    Type
REMARK                         _______ _______ _______ _____ _____    ______ ____
ROOT
ATOM      1  C   LIG    1        3.611  -0.450   0.500  0.00  0.00    -0.020 A 
ATOM      2  C   LIG    1        4.436   0.501   0.933  0.00  0.00    +0.000 A 
ATOM      3  S   LIG    1        3.740   2.096   0.718  0.00  0.00    +0.210 S 
ATOM      4  C   LIG    1        2.271   1.440   0.012  0.00  0.00    +0.100 A 
ATOM      5  N   LIG    1        1.169   2.045  -0.448  0.00  0.00    -0.480 NA
ATOM      6  C   LIG    1        0.172   1.349  -0.943  0.00  0.00    +0.360 A 
ATOM      7  N   LIG    1        0.201   0.031  -1.012  0.00  0.00    -0.520 NA
ATOM      8  C   LIG    1        1.248  -0.655  -0.582  0.00  0.00    +0.450 A 
ATOM      9  C   LIG    1       -1.043   2.079  -1.454  0.00  0.00    +0.180 C 
ATOM     10  C   LIG    1        2.350   0.045  -0.039  0.00  0.00    -0.170 A 
ENDROOT
BRANCH   1  14
ATOM     11  C   LIG    1        4.568  -4.593   0.681  0.00  0.00    +0.130 A 
ATOM     12  C   LIG    1        3.432  -4.116   1.314  0.00  0.00    -0.020 A 
ATOM     13  C   LIG    1        3.121  -2.772   1.262  0.00  0.00    +0.030 A 
ATOM     14  C   LIG    1        3.946  -1.893   0.561  0.00  0.00    -0.050 A 
ATOM     15  C   LIG    1        5.090  -2.372  -0.076  0.00  0.00    -0.020 A 
ATOM     16  C   LIG    1        5.399  -3.719  -0.016  0.00  0.00    +0.110 A 
BRANCH  11  18
ATOM     17  C   LIG    1        3.978  -6.757   1.471  0.00  0.00    +0.240 C 
ATOM     18  O   LIG    1        4.873  -5.917   0.739  0.00  0.00    -0.300 OA
ENDBRANCH  11  18
BRANCH  16  19
ATOM     19  O   LIG    1        6.513  -4.189  -0.637  0.00  0.00    -0.300 OA
ATOM     20  C   LIG    1        7.319  -3.236  -1.334  0.00  0.00    +0.230 C 
ENDBRANCH  16  19
ENDBRANCH   1  14
BRANCH   8  21
ATOM     21  N   LIG    1        1.264  -2.046  -0.662  0.00  0.00    -0.420 N 
ATOM     22  C   LIG    1        2.241  -2.812  -1.221  0.00  0.00    +0.430 A 
ATOM     23  N   LIG    1        1.908  -4.066  -1.109  0.00  0.00    -0.460 NA
ATOM     24  C   LIG    1        0.718  -4.158  -0.482  0.00  0.00    +0.050 A 
ATOM     25  C   LIG    1        0.301  -2.899  -0.189  0.00  0.00    +0.170 A 
BRANCH  24  26
ATOM     26  C   LIG    1       -0.006  -5.413  -0.163  0.00  0.00    -0.000 A 
ATOM     27  C   LIG    1       -1.232  -5.365   0.498  0.00  0.00    +0.010 A 
ATOM     28  C   LIG    1       -1.904  -6.535   0.788  0.00  0.00    +0.000 A 
ATOM     29  C   LIG    1       -1.357  -7.755   0.434  0.00  0.00    +0.000 A 
ATOM     30  C   LIG    1       -0.137  -7.810  -0.217  0.00  0.00    +0.000 A 
ATOM     31  C   LIG    1        0.540  -6.646  -0.517  0.00  0.00    +0.030 A 
ENDBRANCH  24  26
ENDBRANCH   8  21
TORSDOF 5
