REMARK  Name = ZINCpe00000VPjB4.0
REMARK                            x       y       z     vdW  Elec       q    Type
REMARK                         _______ _______ _______ _____ _____    ______ ____
ROOT
ATOM      1  C   LIG    1       -3.475  -5.703   3.077  0.00  0.00    +0.340 C 
ATOM      2  C   LIG    1       -4.148  -6.617   4.122  0.00  0.00    +0.060 C 
ATOM      3  C   LIG    1       -4.372  -5.664   5.326  0.00  0.00    +0.050 C 
ATOM      4  C   LIG    1       -4.692  -4.329   4.612  0.00  0.00    +0.260 C 
ATOM      5  N   LIG    1       -3.823  -4.317   3.421  0.00  0.00    -0.610 N 
ATOM      6  C   LIG    1       -3.411  -3.216   2.761  0.00  0.00    +0.520 C 
ATOM      7  O   LIG    1       -2.689  -3.325   1.792  0.00  0.00    -0.510 OA
ENDROOT
BRANCH   1  11
ATOM      8  C   LIG    1       -3.855  -7.375  -1.627  0.00  0.00    +0.240 C 
ATOM      9  C   LIG    1       -4.136  -6.746  -0.287  0.00  0.00    +0.180 A 
ATOM     10  N   LIG    1       -3.312  -6.675   0.730  0.00  0.00    -0.470 NA
ATOM     11  C   LIG    1       -3.989  -6.034   1.700  0.00  0.00    +0.170 A 
ATOM     12  N   LIG    1       -5.170  -5.757   1.233  0.00  0.00    -0.370 NA
ATOM     13  O   LIG    1       -5.272  -6.153   0.091  0.00  0.00    +0.080 OA
ENDBRANCH   1  11
BRANCH   6  14
ATOM     14  C   LIG    1       -3.847  -1.851   3.226  0.00  0.00    +0.410 C 
BRANCH  14  15
ATOM     15  N   LIG    1       -3.270  -0.829   2.349  0.00  0.00    -0.450 N 
ATOM     16  N   LIG    1       -2.033  -0.187   2.522  0.00  0.00    -0.270 NA
ATOM     17  C   LIG    1       -1.875   0.642   1.554  0.00  0.00    +0.280 A 
ATOM     18  C   LIG    1       -0.710   1.570   1.284  0.00  0.00    +0.170 C 
ATOM     19  C   LIG    1       -0.013   1.086   0.008  0.00  0.00    +0.030 C 
ATOM     20  C   LIG    1       -0.724   1.577  -1.231  0.00  0.00    +0.020 C 
ATOM     21  C   LIG    1       -2.068   0.941  -1.494  0.00  0.00    +0.020 C 
ATOM     22  C   LIG    1       -3.122   1.404  -0.484  0.00  0.00    +0.320 C 
ATOM     23  N   LIG    1       -2.982   0.576   0.726  0.00  0.00    -0.560 N 
ATOM     24  C   LIG    1       -3.831  -0.330   1.224  0.00  0.00    +0.660 A 
ATOM     25  O   LIG    1       -4.908  -0.647   0.752  0.00  0.00    -0.550 OA
ENDBRANCH  14  15
ENDBRANCH   6  14
TORSDOF 3
