REMARK  Name = ZINC9l0000002Kl4.0
REMARK                            x       y       z     vdW  Elec       q    Type
REMARK                         _______ _______ _______ _____ _____    ______ ____
ROOT
ATOM      1  C   LIG    1       -0.415   1.354   2.503  0.00  0.00    -0.110 C 
ATOM      2  C   LIG    1       -0.747   1.587   1.234  0.00  0.00    -0.110 C 
ATOM      3  C   LIG    1       -0.013   1.086   0.008  0.00  0.00    +0.030 C 
ATOM      4  C   LIG    1       -0.784   1.609  -1.221  0.00  0.00    +0.000 C 
ATOM      5  C   LIG    1       -2.213   1.866  -0.677  0.00  0.00    -0.010 C 
ATOM      6  C   LIG    1       -1.932   2.403   0.748  0.00  0.00    +0.090 C 
ENDROOT
BRANCH   1   8
ATOM      7  O   LIG    1       -2.214   2.589   3.329  0.00  0.00    -0.690 OA
ATOM      8  C   LIG    1       -1.229   1.911   3.589  0.00  0.00    +0.510 C 
ATOM      9  O   LIG    1       -0.924   1.697   4.755  0.00  0.00    -0.700 OA
ENDBRANCH   1   8
TORSDOF 1
