REMARK  Name = ZINCrH000004olEm.0
REMARK                            x       y       z     vdW  Elec       q    Type
REMARK                         _______ _______ _______ _____ _____    ______ ____
ROOT
ATOM      1  N   LIG    1        4.884   4.136  -0.496  0.00  0.00    -0.720 N 
ATOM      2  H   LIG    1        5.659   3.553  -0.485  0.00  0.00    +0.400 HD
ATOM      3  C   LIG    1        4.996   5.398  -0.957  0.00  0.00    +0.560 C 
ATOM      4  O   LIG    1        4.025   6.129  -0.972  0.00  0.00    -0.510 OA
ENDROOT
BRANCH   3   5
ATOM      5  C   LIG    1        6.300   5.892  -1.445  0.00  0.00    -0.190 A 
ATOM      6  C   LIG    1        7.419   5.058  -1.424  0.00  0.00    +0.190 A 
ATOM      7  C   LIG    1        8.632   5.524  -1.885  0.00  0.00    -0.700 A 
ATOM      8  C   LIG    1        8.746   6.820  -2.358  0.00  0.00    +0.190 A 
ATOM      9  C   LIG    1        7.645   7.656  -2.378  0.00  0.00    -0.020 A 
ATOM     10  C   LIG    1        6.421   7.201  -1.924  0.00  0.00    +0.220 A 
ATOM     11  F   LIG    1        5.345   8.018  -1.943  0.00  0.00    -0.100 F 
BRANCH   7  12
ATOM     12  S   LIG    1       10.044   4.470  -1.865  0.00  0.00    +2.710 S 
ATOM     13  O   LIG    1       10.937   4.976  -2.846  0.00  0.00    -0.950 OA
ATOM     14  O   LIG    1        9.549   3.137  -1.877  0.00  0.00    -0.960 OA
BRANCH  12  15
ATOM     15  N   LIG    1       10.790   4.677  -0.401  0.00  0.00    -1.250 NA
ATOM     16  H   LIG    1       10.733   5.532   0.055  0.00  0.00    +0.420 HD
ATOM     17  H   LIG    1       11.284   3.945   0.000  0.00  0.00    +0.420 HD
ENDBRANCH  12  15
ENDBRANCH   7  12
ENDBRANCH   3   5
BRANCH   1  19
ATOM     18  C   LIG    1        3.431   4.003   1.466  0.00  0.00    +0.040 C 
ATOM     19  C   LIG    1        3.591   3.646  -0.013  0.00  0.00    +0.290 C 
BRANCH  19  20
ATOM     20  C   LIG    1        3.527   2.149  -0.178  0.00  0.00    -0.070 A 
ATOM     21  C   LIG    1        4.672   1.413  -0.182  0.00  0.00    +0.030 A 
ATOM     22  C   LIG    1        4.634   0.028  -0.334  0.00  0.00    +0.040 A 
ATOM     23  C   LIG    1        3.450  -0.629  -0.481  0.00  0.00    -0.020 A 
ATOM     24  C   LIG    1        2.246   0.099  -0.483  0.00  0.00    -0.040 A 
ATOM     25  C   LIG    1        1.006  -0.542  -0.634  0.00  0.00    +0.030 A 
ATOM     26  C   LIG    1       -0.139   0.195  -0.631  0.00  0.00    +0.020 A 
ATOM     27  C   LIG    1       -0.100   1.579  -0.480  0.00  0.00    +0.030 A 
ATOM     28  C   LIG    1        1.084   2.235  -0.331  0.00  0.00    +0.020 A 
ATOM     29 CL   LIG    1        3.426  -2.354  -0.669  0.00  0.00    -0.060 Cl
ATOM     30  C   LIG    1        2.286   1.508  -0.329  0.00  0.00    -0.030 A 
ENDBRANCH  19  20
ENDBRANCH   1  19
TORSDOF 5
