REMARK  Name = ZINCtV000002K2TZ.0
REMARK                            x       y       z     vdW  Elec       q    Type
REMARK                         _______ _______ _______ _____ _____    ______ ____
ROOT
ATOM      1  C   LIG    1        1.024   3.525   0.011  0.00  0.00    +0.190 C 
ATOM      2  C   LIG    1        1.105   2.020   0.002  0.00  0.00    +0.360 A 
ATOM      3  N   LIG    1       -0.016   1.321   0.009  0.00  0.00    -0.560 NA
ATOM      4  C   LIG    1        0.002  -0.004   0.002  0.00  0.00    +0.420 A 
ATOM      5  C   LIG    1        1.254  -0.674  -0.013  0.00  0.00    -0.200 A 
ATOM      6  C   LIG    1        1.560  -2.089  -0.024  0.00  0.00    +0.070 A 
ATOM      7  C   LIG    1        2.862  -2.375  -0.037  0.00  0.00    -0.130 A 
ATOM      8  S   LIG    1        3.833  -0.915  -0.039  0.00  0.00    +0.190 S 
ATOM      9  C   LIG    1        2.409   0.115  -0.020  0.00  0.00    +0.110 A 
ATOM     10  N   LIG    1        2.287   1.448  -0.012  0.00  0.00    -0.510 NA
ENDROOT
BRANCH   7  11
ATOM     11  C   LIG    1        3.415  -3.746  -0.050  0.00  0.00    -0.020 A 
ATOM     12  C   LIG    1        2.558  -4.848  -0.042  0.00  0.00    +0.030 A 
ATOM     13  C   LIG    1        3.081  -6.124  -0.059  0.00  0.00    +0.020 A 
ATOM     14  C   LIG    1        4.451  -6.314  -0.073  0.00  0.00    +0.020 A 
ATOM     15  C   LIG    1        5.306  -5.226  -0.075  0.00  0.00    +0.020 A 
ATOM     16  C   LIG    1        4.796  -3.944  -0.064  0.00  0.00    +0.010 A 
ENDBRANCH   7  11
BRANCH   4  17
ATOM     17  N   LIG    1       -1.179  -0.723   0.009  0.00  0.00    -0.470 N 
ATOM     18  C   LIG    1       -1.218  -1.661   1.138  0.00  0.00    +0.190 C 
ATOM     19  C   LIG    1       -2.468  -2.538   1.032  0.00  0.00    +0.050 C 
ATOM     20  C   LIG    1       -3.713  -1.647   1.042  0.00  0.00    -0.010 C 
ATOM     21  C   LIG    1       -3.624  -0.647  -0.115  0.00  0.00    +0.030 C 
ATOM     22  C   LIG    1       -2.341   0.175   0.025  0.00  0.00    +0.220 C 
BRANCH  20  23
ATOM     23  C   LIG    1       -4.963  -2.513   0.875  0.00  0.00    +0.070 C 
BRANCH  23  24
ATOM     24  C   LIG    1       -5.115  -3.412   2.075  0.00  0.00    -0.080 A 
ATOM     25  C   LIG    1       -4.535  -4.666   2.077  0.00  0.00    +0.000 A 
ATOM     26  C   LIG    1       -4.670  -5.489   3.180  0.00  0.00    +0.000 A 
ATOM     27  C   LIG    1       -5.396  -5.061   4.276  0.00  0.00    -0.010 A 
ATOM     28  C   LIG    1       -5.981  -3.808   4.272  0.00  0.00    +0.000 A 
ATOM     29  C   LIG    1       -5.840  -2.984   3.171  0.00  0.00    +0.000 A 
ENDBRANCH  23  24
ENDBRANCH  20  23
ENDBRANCH   4  17
TORSDOF 4
