REMARK  Name = ZINCnE000001TDOe.0
REMARK                            x       y       z     vdW  Elec       q    Type
REMARK                         _______ _______ _______ _____ _____    ______ ____
ROOT
ATOM      1  N   UNK    1        0.244   1.391   0.078  0.00  0.00    -0.500 NA
ENDROOT
BRANCH   1   2
ATOM      2  C   UNK    1        0.314   0.010   0.576  0.00  0.00    +0.220 C 
ATOM      3  C   UNK    1       -1.050  -0.395   1.130  0.00  0.00    -0.010 C 
ATOM      4  C   UNK    1       -1.020  -1.896   1.442  0.00  0.00    +0.030 C 
ATOM      5  C   UNK    1       -0.970  -2.661   0.121  0.00  0.00    +0.060 C 
ATOM      6  C   UNK    1        0.136  -2.133  -0.755  0.00  0.00    -0.070 A 
ATOM      7  C   UNK    1        0.562  -2.931  -1.809  0.00  0.00    -0.010 A 
ATOM      8  C   UNK    1        1.563  -2.499  -2.655  0.00  0.00    +0.000 A 
ATOM      9  C   UNK    1        2.147  -1.263  -2.452  0.00  0.00    -0.010 A 
ATOM     10  C   UNK    1        1.727  -0.470  -1.404  0.00  0.00    +0.050 A 
ATOM     11  C   UNK    1        0.720  -0.903  -0.551  0.00  0.00    -0.060 A 
ENDBRANCH   1   2
BRANCH   1  12
ATOM     12  C   UNK    1       -0.894   1.565  -0.833  0.00  0.00    +0.090 C 
ATOM     13  C   UNK    1       -0.613   1.502  -2.336  0.00  0.00    +0.020 C 
ATOM     14  C   UNK    1       -0.938   2.843  -1.673  0.00  0.00    +0.060 C 
ENDBRANCH   1  12
BRANCH   1  15
ATOM     15  C   UNK    1        0.180   2.348   1.191  0.00  0.00    +0.340 C 
BRANCH  15  19
ATOM     16  C   UNK    1        0.333   5.745  -0.059  0.00  0.00    -0.060 A 
ATOM     17  C   UNK    1        1.662   5.466   0.060  0.00  0.00    +0.160 A 
ATOM     18  O   UNK    1        1.758   4.213   0.529  0.00  0.00    -0.210 OA
ATOM     19  C   UNK    1        0.518   3.727   0.686  0.00  0.00    +0.160 A 
ATOM     20  N   UNK    1       -0.345   4.634   0.342  0.00  0.00    -0.430 NA
BRANCH  16  22
ATOM     21  O   UNK    1       -1.472   7.129  -0.590  0.00  0.00    -0.670 OA
ATOM     22  C   UNK    1       -0.256   7.006  -0.531  0.00  0.00    +0.560 C 
ATOM     23  O   UNK    1        0.469   7.934  -0.864  0.00  0.00    -0.690 OA
ENDBRANCH  16  22
ENDBRANCH  15  19
ENDBRANCH   1  15
TORSDOF 5
