REMARK  Name = ZINCrD00000hQ5YG.0
REMARK                            x       y       z     vdW  Elec       q    Type
REMARK                         _______ _______ _______ _____ _____    ______ ____
ROOT
ATOM      1  C   LIG    1       -3.412  -1.712  -1.322  0.00  0.00    +0.080 C 
ATOM      2  C   LIG    1       -2.054  -2.418  -1.342  0.00  0.00    +0.030 C 
ATOM      3  C   LIG    1       -1.248  -2.002  -0.108  0.00  0.00    +0.260 C 
ATOM      4  N   LIG    1       -1.165  -0.536  -0.069  0.00  0.00    -0.630 N 
ATOM      5  C   LIG    1       -2.409   0.244  -0.130  0.00  0.00    +0.290 C 
ATOM      6  C   LIG    1        0.029   0.082   0.027  0.00  0.00    +0.710 C 
ATOM      7  N   LIG    1        1.166  -0.639  -0.017  0.00  0.00    -0.730 N 
ATOM      8  H   LIG    1        1.126  -1.609  -0.033  0.00  0.00    +0.400 HD
ATOM      9  O   LIG    1        0.080   1.290   0.152  0.00  0.00    -0.590 OA
ATOM     10  C   LIG    1       -3.201  -0.196  -1.370  0.00  0.00    +0.030 C 
ENDROOT
BRANCH   7  11
ATOM     11  C   LIG    1        2.464   0.040  -0.033  0.00  0.00    +0.310 C 
ATOM     12  C   LIG    1        2.939   0.273   1.401  0.00  0.00    +0.020 C 
ATOM     13  C   LIG    1        2.545  -0.891   2.298  0.00  0.00    +0.000 C 
ATOM     14  C   LIG    1        3.273  -2.178   1.972  0.00  0.00    +0.230 C 
ATOM     15  O   LIG    1        2.911  -2.652   0.670  0.00  0.00    -0.330 OA
ATOM     16  C   LIG    1        3.637  -2.145  -0.363  0.00  0.00    +0.130 A 
ATOM     17  C   LIG    1        4.543  -2.957  -1.032  0.00  0.00    -0.020 A 
ATOM     18  C   LIG    1        5.299  -2.433  -2.066  0.00  0.00    +0.120 A 
ATOM     19  C   LIG    1        5.153  -1.106  -2.434  0.00  0.00    -0.020 A 
ATOM     20  C   LIG    1        4.242  -0.301  -1.773  0.00  0.00    +0.080 A 
ATOM     21  F   LIG    1        6.182  -3.220  -2.720  0.00  0.00    -0.130 F 
ATOM     22  C   LIG    1        3.484  -0.828  -0.748  0.00  0.00    -0.140 A 
ENDBRANCH   7  11
BRANCH   1  26
ATOM     23  C   LIG    1       -7.055  -3.628  -4.182  0.00  0.00    +0.350 C 
ATOM     24  N   LIG    1       -5.811  -2.981  -3.757  0.00  0.00    -0.380 N 
ATOM     25  C   LIG    1       -5.421  -2.769  -2.483  0.00  0.00    +0.230 A 
ATOM     26  C   LIG    1       -4.221  -2.144  -2.518  0.00  0.00    -0.230 A 
ATOM     27  C   LIG    1       -3.861  -1.977  -3.859  0.00  0.00    +0.240 A 
ATOM     28  N   LIG    1       -4.814  -2.478  -4.603  0.00  0.00    -0.300 NA
ENDBRANCH   1  26
TORSDOF 2
