REMARK  Name = ZINCpe000000UiO2.0
REMARK                            x       y       z     vdW  Elec       q    Type
REMARK                         _______ _______ _______ _____ _____    ______ ____
ROOT
ATOM      1  C   LIG    1        1.269  -0.731  -0.114  0.00  0.00    +0.360 C 
ATOM      2  C   LIG    1        0.759  -0.959  -1.535  0.00  0.00    -0.320 C 
ATOM      3  S   LIG    1       -0.633  -2.126  -1.484  0.00  0.00    +2.420 S 
ATOM      4  C   LIG    1       -1.751  -1.298  -0.316  0.00  0.00    -0.340 C 
ATOM      5  C   LIG    1       -1.000  -1.040   0.994  0.00  0.00    +0.320 C 
ATOM      6  O   LIG    1       -1.251  -2.152  -2.764  0.00  0.00    -0.930 OA
ATOM      7  O   LIG    1       -0.186  -3.342  -0.902  0.00  0.00    -0.930 OA
ATOM      8  N   LIG    1        0.183  -0.220   0.725  0.00  0.00    -0.640 N 
ATOM      9  C   LIG    1        0.271   1.018   1.250  0.00  0.00    +0.710 C 
ATOM     10  N   LIG    1       -0.777   1.544   1.914  0.00  0.00    -0.740 N 
ATOM     11  H   LIG    1       -1.573   1.011   2.064  0.00  0.00    +0.400 HD
ATOM     12  O   LIG    1        1.295   1.661   1.122  0.00  0.00    -0.540 OA
ENDROOT
BRANCH   1  15
ATOM     13  N   LIG    1        4.339   1.218   0.152  0.00  0.00    -0.380 N 
ATOM     14  C   LIG    1        3.628   0.095   0.386  0.00  0.00    +0.220 A 
ATOM     15  C   LIG    1        2.395   0.270  -0.142  0.00  0.00    -0.210 A 
ATOM     16  C   LIG    1        2.352   1.541  -0.724  0.00  0.00    +0.290 A 
ATOM     17  N   LIG    1        3.515   2.112  -0.543  0.00  0.00    -0.300 NA
BRANCH  13  19
ATOM     18  C   LIG    1        6.554   1.844  -0.674  0.00  0.00    +0.040 C 
ATOM     19  C   LIG    1        5.727   1.460   0.554  0.00  0.00    +0.310 C 
ENDBRANCH  13  19
ENDBRANCH   1  15
BRANCH  10  20
ATOM     20  C   LIG    1       -0.714   2.922   2.409  0.00  0.00    +0.300 C 
BRANCH  20  21
ATOM     21  C   LIG    1       -0.027   2.941   3.776  0.00  0.00    -0.060 C 
ATOM     22  C   LIG    1        1.133   3.921   3.970  0.00  0.00    +0.010 C 
ATOM     23  C   LIG    1        1.410   2.420   3.852  0.00  0.00    +0.030 C 
ENDBRANCH  20  21
BRANCH  20  24
ATOM     24  C   LIG    1       -2.131   3.482   2.542  0.00  0.00    +0.180 C 
BRANCH  24  25
ATOM     25  O   LIG    1       -2.839   2.751   3.546  0.00  0.00    -0.390 OA
ATOM     26  C   LIG    1       -4.181   3.197   3.751  0.00  0.00    +0.200 C 
ENDBRANCH  24  25
ENDBRANCH  20  24
ENDBRANCH  10  20
TORSDOF 6
