REMARK  Name = ZINCpk00000ebcrp.0
REMARK                            x       y       z     vdW  Elec       q    Type
REMARK                         _______ _______ _______ _____ _____    ______ ____
ROOT
ATOM      1  N   LIG    1        1.143   1.901  -0.014  0.00  0.00    -0.720 N 
ATOM      2  H   LIG    1        1.130   2.871  -0.019  0.00  0.00    +0.400 HD
ATOM      3  C   LIG    1       -0.014   1.212   0.009  0.00  0.00    +0.570 C 
ATOM      4  O   LIG    1        0.002  -0.004   0.016  0.00  0.00    -0.530 OA
ENDROOT
BRANCH   1  12
ATOM      5  C   LIG    1        6.188   2.707  -2.197  0.00  0.00    +0.200 C 
ATOM      6  C   LIG    1        5.964   1.695  -1.103  0.00  0.00    +0.180 A 
ATOM      7  N   LIG    1        6.860   0.890  -0.592  0.00  0.00    -0.290 NA
ATOM      8  N   LIG    1        6.320   0.162   0.324  0.00  0.00    -0.290 NA
ATOM      9  C   LIG    1        5.064   0.469   0.437  0.00  0.00    +0.180 A 
ATOM     10  C   LIG    1        4.034  -0.113   1.373  0.00  0.00    +0.180 C 
ATOM     11  C   LIG    1        2.828   0.835   1.405  0.00  0.00    +0.030 C 
ATOM     12  C   LIG    1        2.422   1.186  -0.030  0.00  0.00    +0.250 C 
ATOM     13  C   LIG    1        3.497   2.076  -0.664  0.00  0.00    +0.300 C 
ATOM     14  N   LIG    1        4.803   1.449  -0.466  0.00  0.00    -0.470 N 
ENDBRANCH   1  12
BRANCH   3  15
ATOM     15  C   LIG    1       -1.302   1.932   0.019  0.00  0.00    -0.170 A 
ATOM     16  C   LIG    1       -1.323   3.329   0.017  0.00  0.00    +0.080 A 
ATOM     17  C   LIG    1       -2.527   3.998   0.021  0.00  0.00    -0.040 A 
ATOM     18  C   LIG    1       -3.721   3.285   0.038  0.00  0.00    +0.200 A 
ATOM     19  C   LIG    1       -3.704   1.894   0.046  0.00  0.00    -0.010 A 
ATOM     20  C   LIG    1       -2.504   1.219   0.036  0.00  0.00    +0.120 A 
BRANCH  18  21
ATOM     21  N   LIG    1       -4.938   3.966   0.048  0.00  0.00    -0.560 N 
ATOM     22  C   LIG    1       -5.071   5.422   0.169  0.00  0.00    +0.270 C 
ATOM     23  C   LIG    1       -6.508   5.743  -0.303  0.00  0.00    +0.060 C 
ATOM     24  C   LIG    1       -7.238   4.412  -0.013  0.00  0.00    +0.070 C 
ATOM     25  C   LIG    1       -6.140   3.372  -0.047  0.00  0.00    +0.520 C 
ATOM     26  O   LIG    1       -6.318   2.176  -0.144  0.00  0.00    -0.500 OA
ENDBRANCH  18  21
ENDBRANCH   3  15
TORSDOF 3
