REMARK  Name = ZINCrH00000No4YR.0
REMARK                            x       y       z     vdW  Elec       q    Type
REMARK                         _______ _______ _______ _____ _____    ______ ____
ROOT
ATOM      1  S   LIG    1        0.003   0.020   0.008  0.00  0.00    +2.670 S 
ATOM      2  O   LIG    1        1.229  -0.289  -0.640  0.00  0.00    -0.920 OA
ATOM      3  O   LIG    1       -1.257  -0.458  -0.443  0.00  0.00    -0.960 OA
ENDROOT
BRANCH   1   4
ATOM      4  N   LIG    1        0.161  -0.488   1.576  0.00  0.00    -0.980 NA
ATOM      5  C   LIG    1        1.489  -0.608   2.194  0.00  0.00    +0.290 C 
ATOM      6  C   LIG    1        1.645  -2.015   2.769  0.00  0.00    +0.020 C 
ATOM      7  C   LIG    1        0.481  -2.307   3.719  0.00  0.00    +0.020 C 
ATOM      8  C   LIG    1       -0.839  -2.242   2.946  0.00  0.00    +0.020 C 
ATOM      9  C   LIG    1       -1.023  -0.833   2.375  0.00  0.00    +0.240 C 
ATOM     10  C   LIG    1       -1.180   0.171   3.519  0.00  0.00    +0.030 C 
BRANCH   5  11
ATOM     11  C   LIG    1        2.553  -0.369   1.154  0.00  0.00    -0.110 A 
ATOM     12  C   LIG    1        2.992  -1.414   0.361  0.00  0.00    +0.080 A 
ATOM     13  C   LIG    1        3.965  -1.194  -0.596  0.00  0.00    +0.010 A 
ATOM     14  C   LIG    1        4.506   0.069  -0.754  0.00  0.00    +0.020 A 
ATOM     15  C   LIG    1        4.071   1.112   0.042  0.00  0.00    -0.010 A 
ATOM     16  C   LIG    1        3.095   0.893   0.996  0.00  0.00    +0.000 A 
ENDBRANCH   5  11
ENDBRANCH   1   4
BRANCH   1  20
ATOM     17  C   LIG    1       -0.298   4.536   0.087  0.00  0.00    -0.610 A 
ATOM     18  C   LIG    1        0.912   3.929  -0.189  0.00  0.00    +0.100 A 
ATOM     19  C   LIG    1        1.004   2.550  -0.212  0.00  0.00    +0.110 A 
ATOM     20  C   LIG    1       -0.114   1.778   0.039  0.00  0.00    -0.630 A 
ATOM     21  C   LIG    1       -1.326   2.385   0.309  0.00  0.00    +0.110 A 
ATOM     22  C   LIG    1       -1.417   3.764   0.339  0.00  0.00    +0.100 A 
BRANCH  17  23
ATOM     23  S   LIG    1       -0.416   6.294   0.117  0.00  0.00    +2.490 S 
ATOM     24  O   LIG    1        0.898   6.728   0.440  0.00  0.00    -0.930 OA
ATOM     25  O   LIG    1       -1.509   6.558   0.985  0.00  0.00    -0.930 OA
BRANCH  23  27
ATOM     26  C   LIG    1       -0.965   8.270  -1.694  0.00  0.00    +0.100 C 
ATOM     27  C   LIG    1       -0.834   6.749  -1.589  0.00  0.00    -0.320 C 
ENDBRANCH  23  27
ENDBRANCH  17  23
ENDBRANCH   1  20
TORSDOF 5
