REMARK  Name = ZINCvU0000000GUR.0
REMARK                            x       y       z     vdW  Elec       q    Type
REMARK                         _______ _______ _______ _____ _____    ______ ____
ROOT
ATOM      1  C   LIG    1       -2.666   5.963   6.806  0.00  0.00    +0.170 A 
ATOM      2  C   LIG    1       -1.519   6.610   6.360  0.00  0.00    -0.020 A 
ATOM      3  C   LIG    1       -0.879   6.173   5.222  0.00  0.00    +0.130 A 
ATOM      4  C   LIG    1       -1.383   5.078   4.515  0.00  0.00    -0.180 A 
ATOM      5  C   LIG    1       -2.539   4.434   4.964  0.00  0.00    +0.090 A 
ATOM      6  C   LIG    1       -3.171   4.874   6.105  0.00  0.00    -0.080 A 
ENDROOT
BRANCH   4   7
ATOM      7  C   LIG    1       -0.700   4.607   3.295  0.00  0.00    +0.570 C 
ATOM      8  N   LIG    1       -1.187   3.550   2.614  0.00  0.00    -0.720 N 
ATOM      9  H   LIG    1       -1.987   3.100   2.927  0.00  0.00    +0.400 HD
ATOM     10  O   LIG    1        0.303   5.171   2.903  0.00  0.00    -0.530 OA
BRANCH   8  11
ATOM     11  C   LIG    1       -0.509   3.083   1.403  0.00  0.00    +0.290 C 
ATOM     12  C   LIG    1       -0.752   1.591   1.255  0.00  0.00    +0.050 C 
ATOM     13  C   LIG    1       -0.013   1.086   0.008  0.00  0.00    +0.120 C 
ATOM     14  S   LIG    1       -0.915   1.699  -1.444  0.00  0.00    -0.120 S 
ATOM     15  C   LIG    1       -1.188   3.395  -1.040  0.00  0.00    -0.070 A 
ATOM     16  C   LIG    1       -1.611   4.247  -2.062  0.00  0.00    +0.030 A 
ATOM     17  C   LIG    1       -1.852   5.580  -1.811  0.00  0.00    +0.030 A 
ATOM     18  C   LIG    1       -1.673   6.075  -0.532  0.00  0.00    +0.000 A 
ATOM     19  C   LIG    1       -1.252   5.238   0.479  0.00  0.00    +0.040 A 
ATOM     20  C   LIG    1       -0.998   3.890   0.237  0.00  0.00    -0.100 A 
ENDBRANCH   8  11
ENDBRANCH   4   7
BRANCH   1  21
ATOM     21  O   LIG    1       -3.295   6.397   7.927  0.00  0.00    -0.310 OA
BRANCH  21  22
ATOM     22  C   LIG    1       -4.468   5.687   8.329  0.00  0.00    +0.330 C 
BRANCH  22  28
ATOM     23  C   LIG    1       -6.125   9.603  14.374  0.00  0.00    +0.120 C 
ATOM     24  C   LIG    1       -6.194   8.563  13.286  0.00  0.00    -0.100 A 
ATOM     25  C   LIG    1       -5.257   8.545  12.314  0.00  0.00    +0.210 A 
ATOM     26  N   LIG    1       -5.304   7.610  11.321  0.00  0.00    -0.360 N 
ATOM     27  C   LIG    1       -4.500   7.365  10.241  0.00  0.00    +0.120 A 
ATOM     28  C   LIG    1       -5.025   6.306   9.585  0.00  0.00    +0.050 A 
ATOM     29  N   LIG    1       -6.115   5.897  10.238  0.00  0.00    -0.480 NA
ATOM     30  C   LIG    1       -6.305   6.673  11.296  0.00  0.00    +0.230 A 
ATOM     31  C   LIG    1       -7.290   6.679  12.304  0.00  0.00    +0.070 A 
ATOM     32  C   LIG    1       -7.232   7.617  13.287  0.00  0.00    +0.050 A 
ENDBRANCH  22  28
ENDBRANCH  21  22
ENDBRANCH   1  21
TORSDOF 5
