REMARK  Name = ZINCrH000004uFKc.0
REMARK                            x       y       z     vdW  Elec       q    Type
REMARK                         _______ _______ _______ _____ _____    ______ ____
ROOT
ATOM      1  C   LIG    1        1.278   2.115   0.001  0.00  0.00    -0.010 C 
ATOM      2  C   LIG    1        2.096   1.756   1.245  0.00  0.00    +0.050 C 
ATOM      3  C   LIG    1        3.381   2.587   1.263  0.00  0.00    +0.200 C 
ATOM      4  N   LIG    1        3.041   4.015   1.273  0.00  0.00    -0.470 N 
ATOM      5  C   LIG    1        2.297   4.393   0.065  0.00  0.00    +0.220 C 
ATOM      6  C   LIG    1        0.980   3.616   0.012  0.00  0.00    +0.060 C 
ENDROOT
BRANCH   4   7
ATOM      7  C   LIG    1        4.181   4.797   1.421  0.00  0.00    +0.340 A 
ATOM      8  C   LIG    1        5.022   4.591   2.510  0.00  0.00    -0.040 A 
ATOM      9  C   LIG    1        6.153   5.376   2.644  0.00  0.00    +0.150 A 
ATOM     10  C   LIG    1        6.406   6.344   1.682  0.00  0.00    -0.270 A 
ATOM     11  C   LIG    1        5.529   6.494   0.627  0.00  0.00    +0.360 A 
ATOM     12  N   LIG    1        4.460   5.728   0.521  0.00  0.00    -0.520 NA
BRANCH  10  13
ATOM     13  C   LIG    1        7.627   7.222   1.788  0.00  0.00    +0.520 C 
ATOM     14  F   LIG    1        7.959   7.398   3.135  0.00  0.00    -0.180 F 
ATOM     15  F   LIG    1        7.359   8.466   1.207  0.00  0.00    -0.170 F 
ATOM     16  F   LIG    1        8.696   6.616   1.120  0.00  0.00    -0.180 F 
ENDBRANCH  10  13
ENDBRANCH   4   7
BRANCH   1  18
ATOM     17  O   LIG    1       -1.075   1.936   0.018  0.00  0.00    -0.530 OA
ATOM     18  C   LIG    1       -0.016   1.344   0.009  0.00  0.00    +0.520 C 
ATOM     19  N   LIG    1        0.002  -0.004   0.002  0.00  0.00    -0.730 N 
ATOM     20  H   LIG    1        0.849  -0.478  -0.009  0.00  0.00    +0.400 HD
BRANCH  19  21
ATOM     21  C   LIG    1       -1.256  -0.754   0.010  0.00  0.00    +0.320 C 
BRANCH  21  22
ATOM     22  C   LIG    1       -0.961  -2.232  -0.001  0.00  0.00    -0.150 A 
ATOM     23  C   LIG    1       -1.118  -2.976   1.153  0.00  0.00    +0.070 A 
ATOM     24  C   LIG    1       -0.848  -4.332   1.143  0.00  0.00    +0.000 A 
ATOM     25  C   LIG    1       -0.419  -4.944  -0.020  0.00  0.00    +0.060 A 
ATOM     26  C   LIG    1       -0.261  -4.201  -1.175  0.00  0.00    -0.020 A 
ATOM     27  C   LIG    1       -0.537  -2.845  -1.168  0.00  0.00    +0.110 A 
ATOM     28  F   LIG    1       -0.389  -2.119  -2.298  0.00  0.00    -0.130 F 
ENDBRANCH  21  22
ENDBRANCH  19  21
ENDBRANCH   1  18
TORSDOF 5
