REMARK  Name = ZINCnE000001TCRu.0
REMARK                            x       y       z     vdW  Elec       q    Type
REMARK                         _______ _______ _______ _____ _____    ______ ____
ROOT
ATOM      1  C   LIG    1       -5.017   4.017   0.049  0.00  0.00    +0.580 C 
ATOM      2  N   LIG    1       -5.036   5.364   0.056  0.00  0.00    -0.640 N 
ATOM      3  H   LIG    1       -4.202   5.861   0.055  0.00  0.00    +0.420 HD
ATOM      4  O   LIG    1       -6.062   3.395   0.050  0.00  0.00    -0.520 OA
ENDROOT
BRANCH   1   8
ATOM      5  C   LIG    1       -1.304   1.940   0.019  0.00  0.00    -0.100 A 
ATOM      6  C   LIG    1       -1.323   3.336   0.032  0.00  0.00    +0.050 A 
ATOM      7  C   LIG    1       -2.526   4.009   0.036  0.00  0.00    +0.020 A 
ATOM      8  C   LIG    1       -3.725   3.294   0.038  0.00  0.00    -0.150 A 
ATOM      9  C   LIG    1       -3.707   1.899   0.030  0.00  0.00    +0.060 A 
ATOM     10  C   LIG    1       -2.504   1.225   0.021  0.00  0.00    +0.040 A 
BRANCH   5  12
ATOM     11  O   LIG    1        0.002  -0.004   0.002  0.00  0.00    -0.680 OA
ATOM     12  C   LIG    1       -0.015   1.218   0.009  0.00  0.00    +0.520 C 
ATOM     13  O   LIG    1        1.036   1.844   0.002  0.00  0.00    -0.680 OA
ENDBRANCH   5  12
ENDBRANCH   1   8
BRANCH   2  14
ATOM     14  C   LIG    1       -6.258   6.048   0.066  0.00  0.00    +0.310 A 
ATOM     15  N   LIG    1       -6.412   7.351   0.080  0.00  0.00    -0.330 NA
ATOM     16  N   LIG    1       -7.785   7.629   0.083  0.00  0.00    -0.470 N 
ATOM     17  H   LIG    1       -8.189   8.511   0.089  0.00  0.00    +0.440 HD
ATOM     18  C   LIG    1       -8.449   6.454   0.079  0.00  0.00    +0.100 A 
ATOM     19  C   LIG    1       -7.533   5.459   0.069  0.00  0.00    -0.090 A 
BRANCH  18  20
ATOM     20  C   LIG    1       -9.946   6.280   0.086  0.00  0.00    +0.080 C 
ATOM     21  C   LIG    1      -10.475   6.354  -1.348  0.00  0.00    +0.020 C 
ATOM     22  C   LIG    1      -11.995   6.178  -1.341  0.00  0.00    +0.010 C 
ATOM     23  C   LIG    1      -12.633   7.289  -0.504  0.00  0.00    +0.000 C 
ATOM     24  C   LIG    1      -12.104   7.215   0.930  0.00  0.00    +0.010 C 
ATOM     25  C   LIG    1      -10.584   7.391   0.923  0.00  0.00    +0.010 C 
ENDBRANCH  18  20
ENDBRANCH   2  14
TORSDOF 4
