REMARK  Name = ZINCkj000005jpjP.0
REMARK                            x       y       z     vdW  Elec       q    Type
REMARK                         _______ _______ _______ _____ _____    ______ ____
ROOT
ATOM      1  C   LIG    1       -4.483  -0.848  -0.493  0.00  0.00    +0.080 C 
ATOM      2  C   LIG    1       -4.368   0.554  -1.096  0.00  0.00    +0.160 C 
ATOM      3  C   LIG    1       -3.201   0.596  -2.111  0.00  0.00    +0.080 C 
ATOM      4  C   LIG    1       -2.607   2.003  -1.866  0.00  0.00    +0.000 C 
ATOM      5  C   LIG    1       -1.215   2.132  -2.404  0.00  0.00    +0.040 C 
ATOM      6  C   LIG    1       -0.127   1.468  -1.598  0.00  0.00    +0.020 C 
ATOM      7  C   LIG    1       -0.283   1.683  -0.103  0.00  0.00    +0.040 C 
ATOM      8  C   LIG    1       -1.674   1.274   0.354  0.00  0.00    +0.030 C 
ATOM      9  C   LIG    1       -2.730   2.137  -0.340  0.00  0.00    +0.210 C 
ATOM     10  N   LIG    1       -4.057   1.537  -0.038  0.00  0.00    -0.380 N 
ATOM     11  H   LIG    1       -4.762   2.259  -0.026  0.00  0.00    +0.420 HD
ENDROOT
BRANCH  10  12
ATOM     12  C   LIG    1       -4.013   0.865   1.267  0.00  0.00    +0.220 C 
BRANCH  12  13
ATOM     13  C   LIG    1       -4.067   1.911   2.382  0.00  0.00    +0.210 C 
BRANCH  13  14
ATOM     14  O   LIG    1       -2.944   2.787   2.269  0.00  0.00    -0.540 OA
ATOM     15  H   LIG    1       -2.111   2.399   2.573  0.00  0.00    +0.390 HD
ENDBRANCH  13  14
BRANCH  13  16
ATOM     16  C   LIG    1       -4.033   1.210   3.742  0.00  0.00    +0.170 C 
BRANCH  16  17
ATOM     17  N   LIG    1       -4.104   2.213   4.812  0.00  0.00    -0.530 NA
ATOM     18  C   LIG    1       -3.620   1.661   6.085  0.00  0.00    +0.160 C 
ATOM     19  C   LIG    1       -3.655   2.754   7.156  0.00  0.00    +0.220 C 
ATOM     20  O   LIG    1       -4.985   3.270   7.261  0.00  0.00    -0.380 OA
ATOM     21  C   LIG    1       -5.488   3.817   6.039  0.00  0.00    +0.220 C 
ATOM     22  C   LIG    1       -5.471   2.734   4.957  0.00  0.00    +0.150 C 
ENDBRANCH  16  17
ENDBRANCH  13  16
ENDBRANCH  12  13
ENDBRANCH  10  12
TORSDOF 5
