REMARK  Name = ZINCkj000005jpjP.1
REMARK                            x       y       z     vdW  Elec       q    Type
REMARK                         _______ _______ _______ _____ _____    ______ ____
ROOT
ATOM      1  C   LIG    1        3.233  -3.123   5.393  0.00  0.00    +0.090 C 
ATOM      2  C   LIG    1        2.339  -4.082   4.603  0.00  0.00    +0.160 C 
ATOM      3  C   LIG    1        2.309  -5.463   5.295  0.00  0.00    +0.080 C 
ATOM      4  C   LIG    1        2.330  -6.430   4.094  0.00  0.00    +0.000 C 
ATOM      5  C   LIG    1        2.784  -7.818   4.474  0.00  0.00    +0.050 C 
ATOM      6  C   LIG    1        4.231  -7.823   4.964  0.00  0.00    +0.020 C 
ATOM      7  C   LIG    1        5.118  -7.272   3.841  0.00  0.00    +0.040 C 
ATOM      8  C   LIG    1        4.737  -5.814   3.563  0.00  0.00    +0.030 C 
ATOM      9  C   LIG    1        3.277  -5.715   3.114  0.00  0.00    +0.180 C 
ATOM     10  N   LIG    1        2.892  -4.282   3.249  0.00  0.00    -0.390 N 
ATOM     11  H   LIG    1        3.705  -3.698   3.123  0.00  0.00    +0.430 HD
ENDROOT
BRANCH  10  12
ATOM     12  C   LIG    1        1.876  -3.945   2.243  0.00  0.00    +0.230 C 
BRANCH  12  13
ATOM     13  C   LIG    1        2.490  -4.044   0.845  0.00  0.00    +0.200 C 
BRANCH  13  14
ATOM     14  O   LIG    1        3.591  -3.139   0.742  0.00  0.00    -0.540 OA
ATOM     15  H   LIG    1        3.341  -2.207   0.808  0.00  0.00    +0.390 HD
ENDBRANCH  13  14
BRANCH  13  16
ATOM     16  C   LIG    1        1.434  -3.685  -0.202  0.00  0.00    +0.160 C 
BRANCH  16  17
ATOM     17  N   LIG    1        1.987  -3.896  -1.547  0.00  0.00    -0.530 NA
ATOM     18  C   LIG    1        0.936  -3.790  -2.570  0.00  0.00    +0.160 C 
ATOM     19  C   LIG    1        1.564  -3.957  -3.957  0.00  0.00    +0.230 C 
ATOM     20  O   LIG    1        2.254  -5.208  -4.015  0.00  0.00    -0.380 OA
ATOM     21  C   LIG    1        3.284  -5.344  -3.033  0.00  0.00    +0.220 C 
ATOM     22  C   LIG    1        2.674  -5.192  -1.637  0.00  0.00    +0.140 C 
ENDBRANCH  16  17
ENDBRANCH  13  16
ENDBRANCH  12  13
ENDBRANCH  10  12
TORSDOF 5
