REMARK  Name = ZINCpk00000xI25c.0
REMARK                            x       y       z     vdW  Elec       q    Type
REMARK                         _______ _______ _______ _____ _____    ______ ____
ROOT
ATOM      1  C   LIG    1       -0.047   1.107  -2.471  0.00  0.00    +0.510 C 
ATOM      2  N   LIG    1       -0.524   1.433  -3.689  0.00  0.00    -0.730 N 
ATOM      3  H   LIG    1       -1.321   1.980  -3.768  0.00  0.00    +0.400 HD
ATOM      4  O   LIG    1        0.949   0.422  -2.373  0.00  0.00    -0.540 OA
ENDROOT
BRANCH   1   5
ATOM      5  C   LIG    1       -0.753   1.593  -1.232  0.00  0.00    +0.060 C 
BRANCH   5   6
ATOM      6  C   LIG    1       -0.013   1.086   0.008  0.00  0.00    +0.040 C 
BRANCH   6   7
ATOM      7  C   LIG    1       -0.729   1.579   1.267  0.00  0.00    +0.320 C 
BRANCH   7  13
ATOM      8  C   LIG    1        2.862   0.465   4.083  0.00  0.00    +0.090 C 
ATOM      9  C   LIG    1        1.400   0.890   4.232  0.00  0.00    +0.120 C 
ATOM     10  N   LIG    1        0.507  -0.278   4.131  0.00  0.00    -0.720 N 
ATOM     11  H   LIG    1        0.494  -1.049   4.720  0.00  0.00    +0.440 HD
ATOM     12  C   LIG    1       -0.287  -0.065   3.067  0.00  0.00    +0.700 C 
ATOM     13  N   LIG    1       -0.020   1.094   2.454  0.00  0.00    -0.580 N 
ATOM     14  O   LIG    1       -1.149  -0.840   2.702  0.00  0.00    -0.540 OA
ATOM     15  C   LIG    1        1.185   1.623   5.558  0.00  0.00    +0.090 C 
ATOM     16  C   LIG    1        0.977   1.762   3.066  0.00  0.00    +0.530 C 
ATOM     17  O   LIG    1        1.441   2.837   2.750  0.00  0.00    -0.460 OA
ENDBRANCH   7  13
ENDBRANCH   6   7
ENDBRANCH   5   6
ENDBRANCH   1   5
BRANCH   2  18
ATOM     18  C   LIG    1        0.162   0.960  -4.895  0.00  0.00    +0.260 C 
BRANCH  18  19
ATOM     19  C   LIG    1       -0.578   1.467  -6.134  0.00  0.00    +0.030 C 
BRANCH  19  20
ATOM     20  C   LIG    1        0.138   0.974  -7.393  0.00  0.00    +0.190 C 
BRANCH  20  21
ATOM     21  O   LIG    1       -0.553   1.447  -8.551  0.00  0.00    -0.380 OA
BRANCH  21  22
ATOM     22  C   LIG    1        0.037   1.040  -9.787  0.00  0.00    +0.300 C 
BRANCH  22  23
ATOM     23  C   LIG    1       -0.769   1.592 -10.934  0.00  0.00    -0.020 A 
ATOM     24  C   LIG    1       -0.575   2.782 -11.531  0.00  0.00    -0.030 A 
ATOM     25  C   LIG    1       -1.547   2.892 -12.551  0.00  0.00    -0.070 A 
ATOM     26  C   LIG    1       -2.282   1.766 -12.512  0.00  0.00    +0.180 A 
ATOM     27  O   LIG    1       -1.806   0.982 -11.531  0.00  0.00    -0.170 OA
ENDBRANCH  22  23
ENDBRANCH  21  22
ENDBRANCH  20  21
ENDBRANCH  19  20
ENDBRANCH  18  19
ENDBRANCH   2  18
TORSDOF 10
