REMARK  Name = ZINCvU00000004wD.0
REMARK                            x       y       z     vdW  Elec       q    Type
REMARK                         _______ _______ _______ _____ _____    ______ ____
ROOT
ATOM      1  N   LIG    1       -4.848   1.748   0.036  0.00  0.00    -0.510 N 
ATOM      2  C   LIG    1       -5.081   0.421   0.031  0.00  0.00    +0.540 C 
ATOM      3  O   LIG    1       -4.152  -0.358   0.022  0.00  0.00    -0.450 OA
ENDROOT
BRANCH   1   4
ATOM      4  C   LIG    1       -3.543   2.224   0.032  0.00  0.00    +0.300 A 
ATOM      5  N   LIG    1       -2.476   1.487   0.022  0.00  0.00    -0.460 NA
ATOM      6  C   LIG    1       -1.310   2.116   0.020  0.00  0.00    +0.140 A 
ATOM      7  C   LIG    1       -1.379   3.460   0.033  0.00  0.00    -0.080 A 
ATOM      8  S   LIG    1       -3.079   3.923   0.039  0.00  0.00    +0.100 S 
BRANCH   6   9
ATOM      9  C   LIG    1       -0.017   1.390   0.010  0.00  0.00    -0.030 A 
ATOM     10  C   LIG    1        1.184   2.098   0.002  0.00  0.00    +0.020 A 
ATOM     11  C   LIG    1        2.384   1.416  -0.014  0.00  0.00    +0.010 A 
ATOM     12  C   LIG    1        2.396   0.033  -0.021  0.00  0.00    +0.010 A 
ATOM     13  C   LIG    1        1.208  -0.675  -0.013  0.00  0.00    +0.010 A 
ATOM     14  C   LIG    1        0.002  -0.004   0.002  0.00  0.00    +0.060 A 
ENDBRANCH   6   9
ENDBRANCH   1   4
BRANCH   1  15
ATOM     15  C   LIG    1       -5.971   2.689   0.047  0.00  0.00    +0.330 C 
BRANCH  15  17
ATOM     16  C   LIG    1       -7.600   2.843  -1.765  0.00  0.00    +0.070 C 
ATOM     17  C   LIG    1       -6.364   3.019  -1.370  0.00  0.00    -0.080 C 
ENDBRANCH  15  17
ENDBRANCH   1  15
BRANCH   2  18
ATOM     18  C   LIG    1       -6.497  -0.096   0.036  0.00  0.00    +0.120 C 
BRANCH  18  19
ATOM     19  S   LIG    1       -6.479  -1.906   0.026  0.00  0.00    +0.160 S 
BRANCH  19  20
ATOM     20  C   LIG    1       -8.211  -2.229   0.034  0.00  0.00    +0.120 A 
ATOM     21  N   LIG    1       -9.169  -1.331   0.049  0.00  0.00    -0.290 NA
ATOM     22  N   LIG    1      -10.311  -1.924   0.047  0.00  0.00    -0.260 NA
ATOM     23  C   LIG    1      -10.129  -3.222   0.039  0.00  0.00    +0.210 A 
ATOM     24  O   LIG    1       -8.795  -3.442   0.031  0.00  0.00    -0.200 OA
BRANCH  23  25
ATOM     25  C   LIG    1      -11.186  -4.253   0.039  0.00  0.00    -0.010 A 
ATOM     26  C   LIG    1      -10.845  -5.607   0.024  0.00  0.00    +0.060 A 
ATOM     27  C   LIG    1      -11.837  -6.566   0.028  0.00  0.00    +0.050 A 
ATOM     28  C   LIG    1      -13.168  -6.189   0.038  0.00  0.00    +0.060 A 
ATOM     29  C   LIG    1      -13.514  -4.848   0.048  0.00  0.00    -0.040 A 
ATOM     30 CL   LIG    1      -15.187  -4.386   0.059  0.00  0.00    -0.050 Cl
ATOM     31  C   LIG    1      -12.531  -3.879   0.048  0.00  0.00    +0.090 A 
ENDBRANCH  23  25
ENDBRANCH  19  20
ENDBRANCH  18  19
ENDBRANCH   2  18
TORSDOF 8
