REMARK  Name = ZINCvU00000005bN.0
REMARK                            x       y       z     vdW  Elec       q    Type
REMARK                         _______ _______ _______ _____ _____    ______ ____
ROOT
ATOM      1  C   LIG    1        5.932  -0.874  -1.058  0.00  0.00    +0.560 C 
ATOM      2  N   LIG    1        6.060  -1.918  -2.094  0.00  0.00    -0.740 N 
ATOM      3  H   LIG    1        6.065  -2.862  -1.871  0.00  0.00    +0.430 HD
ATOM      4  C   LIG    1        6.173  -1.469  -3.411  0.00  0.00    +0.240 A 
ATOM      5  C   LIG    1        5.606  -2.138  -4.476  0.00  0.00    -0.010 A 
ATOM      6  C   LIG    1        5.739  -1.623  -5.753  0.00  0.00    +0.130 A 
ATOM      7  C   LIG    1        6.436  -0.444  -5.968  0.00  0.00    -0.130 A 
ATOM      8  C   LIG    1        7.015   0.233  -4.912  0.00  0.00    +0.170 A 
ATOM      9 BR   LIG    1        6.596   0.244  -7.722  0.00  0.00    -0.030 Br
ATOM     10  C   LIG    1        6.893  -0.277  -3.624  0.00  0.00    -0.130 A 
ATOM     11  C   LIG    1        7.498   0.391  -2.456  0.00  0.00    +0.450 A 
ATOM     12  N   LIG    1        8.466   1.271  -2.635  0.00  0.00    -0.560 NA
ATOM     13  C   LIG    1        9.038   1.849  -1.567  0.00  0.00    +0.490 A 
ATOM     14  C   LIG    1        8.557   1.453  -0.231  0.00  0.00    +0.060 A 
ATOM     15  N   LIG    1        7.584   0.577  -0.149  0.00  0.00    -0.210 NA
ATOM     16  O   LIG    1        9.928   2.675  -1.698  0.00  0.00    -0.470 OA
ATOM     17  N   LIG    1        7.052   0.070  -1.206  0.00  0.00    -0.370 N 
ENDROOT
BRANCH  14  18
ATOM     18  C   LIG    1        9.159   2.032   0.993  0.00  0.00    -0.040 A 
ATOM     19  C   LIG    1        8.405   2.139   2.161  0.00  0.00    +0.050 A 
ATOM     20  C   LIG    1        8.973   2.674   3.299  0.00  0.00    +0.000 A 
ATOM     21  C   LIG    1       10.284   3.114   3.280  0.00  0.00    +0.030 A 
ATOM     22  C   LIG    1       11.036   3.016   2.122  0.00  0.00    +0.010 A 
ATOM     23  C   LIG    1       10.480   2.477   0.980  0.00  0.00    +0.070 A 
ENDBRANCH  14  18
BRANCH   1  26
ATOM     24  C   LIG    1        4.175  -0.549   1.143  0.00  0.00    +0.100 C 
ATOM     25  C   LIG    1        3.780  -0.043  -0.220  0.00  0.00    -0.020 C 
ATOM     26  C   LIG    1        4.627  -0.142  -1.235  0.00  0.00    -0.070 C 
BRANCH  25  27
ATOM     27  C   LIG    1        2.448   0.564  -0.425  0.00  0.00    -0.060 A 
ATOM     28  C   LIG    1        1.295  -0.209  -0.277  0.00  0.00    +0.020 A 
ATOM     29  C   LIG    1        0.055   0.364  -0.471  0.00  0.00    +0.010 A 
ATOM     30  C   LIG    1       -0.047   1.701  -0.811  0.00  0.00    +0.010 A 
ATOM     31  C   LIG    1        1.091   2.472  -0.960  0.00  0.00    +0.010 A 
ATOM     32  C   LIG    1        2.338   1.912  -0.769  0.00  0.00    +0.020 A 
ENDBRANCH  25  27
ENDBRANCH   1  26
TORSDOF 3
