REMARK  Name = ZINCpk00000y6u9A.1
REMARK                            x       y       z     vdW  Elec       q    Type
REMARK                         _______ _______ _______ _____ _____    ______ ____
ROOT
ATOM      1  C   LIG    1        3.148  -0.964  -1.217  0.00  0.00    +0.170 C 
ATOM      2  C   LIG    1        2.620  -1.427   0.160  0.00  0.00    +0.060 C 
ATOM      3  C   LIG    1        2.095  -0.149   0.841  0.00  0.00    +0.250 C 
ATOM      4  N   LIG    1        2.345   0.972  -0.091  0.00  0.00    -0.490 NA
ATOM      5  C   LIG    1        2.392   0.369  -1.448  0.00  0.00    +0.180 C 
ENDROOT
BRANCH   3   6
ATOM      6  C   LIG    1        2.834   0.084   2.134  0.00  0.00    +0.230 A 
ATOM      7  N   LIG    1        4.074   0.482   2.239  0.00  0.00    -0.280 NA
ATOM      8  N   LIG    1        4.357   0.571   3.612  0.00  0.00    -0.490 N 
ATOM      9  H   LIG    1        5.196   0.843   4.016  0.00  0.00    +0.440 HD
ATOM     10  C   LIG    1        3.235   0.202   4.254  0.00  0.00    +0.280 A 
ATOM     11  C   LIG    1        3.052   0.133   5.748  0.00  0.00    +0.190 C 
ATOM     12  N   LIG    1        2.329  -0.088   3.355  0.00  0.00    -0.540 NA
ENDBRANCH   3   6
BRANCH   1  14
ATOM     13  C   LIG    1        3.693  -1.889  -3.360  0.00  0.00    +0.200 C 
ATOM     14  O   LIG    1        2.817  -1.915  -2.231  0.00  0.00    -0.380 OA
ENDBRANCH   1  14
BRANCH   4  15
ATOM     15  C   LIG    1        1.280   1.980   0.001  0.00  0.00    +0.220 C 
BRANCH  15  16
ATOM     16  C   LIG    1        1.620   3.151  -0.884  0.00  0.00    +0.530 C 
ATOM     17  N   LIG    1        0.749   4.171  -1.017  0.00  0.00    -0.560 N 
ATOM     18  C   LIG    1        0.971   5.365  -1.836  0.00  0.00    +0.270 C 
ATOM     19  C   LIG    1       -0.297   6.216  -1.661  0.00  0.00    +0.090 C 
ATOM     20  C   LIG    1       -1.166   5.415  -0.718  0.00  0.00    -0.130 A 
ATOM     21  C   LIG    1       -2.418   5.678  -0.196  0.00  0.00    +0.060 A 
ATOM     22  C   LIG    1       -3.016   4.774   0.662  0.00  0.00    -0.010 A 
ATOM     23  C   LIG    1       -2.358   3.605   0.997  0.00  0.00    +0.050 A 
ATOM     24  C   LIG    1       -1.108   3.339   0.480  0.00  0.00    -0.030 A 
ATOM     25  C   LIG    1       -0.498   4.247  -0.388  0.00  0.00    +0.140 A 
ATOM     26  O   LIG    1        2.680   3.179  -1.474  0.00  0.00    -0.490 OA
ENDBRANCH  15  16
ENDBRANCH   4  15
TORSDOF 4
