REMARK  Name = ZINCpk00000y6u9A.0
REMARK                            x       y       z     vdW  Elec       q    Type
REMARK                         _______ _______ _______ _____ _____    ______ ____
ROOT
ATOM      1  C   LIG    1        0.111  -0.433  -5.997  0.00  0.00    +0.180 C 
ATOM      2  C   LIG    1        1.345   0.392  -5.565  0.00  0.00    +0.050 C 
ATOM      3  C   LIG    1        0.775   1.586  -4.776  0.00  0.00    +0.240 C 
ATOM      4  N   LIG    1       -0.698   1.453  -4.793  0.00  0.00    -0.470 NA
ATOM      5  C   LIG    1       -0.972   0.005  -4.979  0.00  0.00    +0.180 C 
ENDROOT
BRANCH   3   6
ATOM      6  C   LIG    1        1.182   2.878  -5.436  0.00  0.00    +0.170 A 
ATOM      7  N   LIG    1        0.500   3.536  -6.334  0.00  0.00    -0.250 NA
ATOM      8  N   LIG    1        1.143   4.596  -6.674  0.00  0.00    -0.290 NA
ATOM      9  C   LIG    1        2.268   4.658  -6.017  0.00  0.00    +0.180 A 
ATOM     10  C   LIG    1        3.312   5.740  -6.131  0.00  0.00    +0.200 C 
ATOM     11  N   LIG    1        2.325   3.570  -5.212  0.00  0.00    -0.580 N 
ATOM     12  H   LIG    1        3.039   3.333  -4.600  0.00  0.00    +0.430 HD
ENDBRANCH   3   6
BRANCH   1  14
ATOM     13  C   LIG    1       -0.429  -2.643  -6.750  0.00  0.00    +0.220 C 
ATOM     14  O   LIG    1        0.372  -1.834  -5.887  0.00  0.00    -0.380 OA
ENDBRANCH   1  14
BRANCH   4  15
ATOM     15  C   LIG    1       -1.285   1.943  -3.538  0.00  0.00    +0.220 C 
BRANCH  15  16
ATOM     16  C   LIG    1       -2.788   1.888  -3.632  0.00  0.00    +0.530 C 
ATOM     17  N   LIG    1       -3.542   2.213  -2.563  0.00  0.00    -0.560 N 
ATOM     18  C   LIG    1       -5.007   2.198  -2.533  0.00  0.00    +0.280 C 
ATOM     19  C   LIG    1       -5.387   2.641  -1.111  0.00  0.00    +0.090 C 
ATOM     20  C   LIG    1       -4.061   2.884  -0.422  0.00  0.00    -0.130 A 
ATOM     21  C   LIG    1       -3.770   3.297   0.864  0.00  0.00    +0.060 A 
ATOM     22  C   LIG    1       -2.455   3.447   1.264  0.00  0.00    -0.010 A 
ATOM     23  C   LIG    1       -1.431   3.183   0.375  0.00  0.00    +0.050 A 
ATOM     24  C   LIG    1       -1.716   2.769  -0.909  0.00  0.00    -0.040 A 
ATOM     25  C   LIG    1       -3.041   2.616  -1.321  0.00  0.00    +0.140 A 
ATOM     26  O   LIG    1       -3.319   1.550  -4.669  0.00  0.00    -0.490 OA
ENDBRANCH  15  16
ENDBRANCH   4  15
TORSDOF 4
