REMARK  Name = ZINCqH00000074Pj.0
REMARK                            x       y       z     vdW  Elec       q    Type
REMARK                         _______ _______ _______ _____ _____    ______ ____
ROOT
ATOM      1  N   LIG    1       -1.252   6.408   0.045  0.00  0.00    -0.660 N 
ATOM      2  H   LIG    1       -2.008   5.914   0.400  0.00  0.00    +0.410 HD
ATOM      3  C   LIG    1       -0.234   5.750  -0.543  0.00  0.00    +0.560 C 
ATOM      4  O   LIG    1        0.664   6.372  -1.077  0.00  0.00    -0.510 OA
ENDROOT
BRANCH   1  10
ATOM      5  C   LIG    1       -2.407   8.524   0.259  0.00  0.00    +0.090 A 
ATOM      6  C   LIG    1       -2.369   9.905   0.357  0.00  0.00    -0.050 A 
ATOM      7  C   LIG    1       -1.155  10.567   0.340  0.00  0.00    +0.030 A 
ATOM      8  C   LIG    1        0.024   9.853   0.227  0.00  0.00    -0.080 A 
ATOM      9  C   LIG    1       -0.005   8.474   0.133  0.00  0.00    +0.060 A 
ATOM     10  C   LIG    1       -1.220   7.804   0.144  0.00  0.00    +0.120 A 
BRANCH   8  11
ATOM     11  C   LIG    1        1.344  10.580   0.209  0.00  0.00    -0.020 C 
ATOM     12  C   LIG    1        2.071  10.286  -1.105  0.00  0.00    +0.040 C 
ATOM     13  C   LIG    1        2.202  10.107   1.384  0.00  0.00    +0.040 C 
ATOM     14  C   LIG    1        1.099  12.085   0.330  0.00  0.00    +0.040 C 
ENDBRANCH   8  11
BRANCH   5  16
ATOM     15  C   LIG    1       -4.777   8.675   0.396  0.00  0.00    +0.250 C 
ATOM     16  O   LIG    1       -3.601   7.873   0.275  0.00  0.00    -0.320 OA
ENDBRANCH   5  16
ENDBRANCH   1  10
BRANCH   3  17
ATOM     17  C   LIG    1       -0.208   4.272  -0.539  0.00  0.00    -0.130 A 
ATOM     18  C   LIG    1        0.846   3.588  -1.148  0.00  0.00    +0.100 A 
ATOM     19  C   LIG    1        0.864   2.208  -1.141  0.00  0.00    +0.030 A 
ATOM     20  C   LIG    1       -0.160   1.503  -0.533  0.00  0.00    -0.070 A 
ATOM     21  C   LIG    1       -1.210   2.175   0.067  0.00  0.00    +0.030 A 
ATOM     22  C   LIG    1       -1.237   3.554   0.072  0.00  0.00    +0.050 A 
BRANCH  20  23
ATOM     23  C   LIG    1       -0.135  -0.004  -0.530  0.00  0.00    -0.270 C 
BRANCH  23  24
ATOM     24  S   LIG    1        0.740  -0.591   0.946  0.00  0.00    +2.420 S 
ATOM     25  O   LIG    1       -0.014  -0.226   2.094  0.00  0.00    -0.930 OA
ATOM     26  O   LIG    1        2.101  -0.193   0.855  0.00  0.00    -0.930 OA
ATOM     27  C   LIG    1        0.650  -2.391   0.744  0.00  0.00    -0.270 C 
ENDBRANCH  23  24
ENDBRANCH  20  23
ENDBRANCH   3  17
TORSDOF 6
