REMARK  Name = ZINCpk00001AZiVR.0
REMARK                            x       y       z     vdW  Elec       q    Type
REMARK                         _______ _______ _______ _____ _____    ______ ____
ROOT
ATOM      1  C   LIG    1        1.790   5.805   0.760  0.00  0.00    +0.160 A 
ATOM      2  C   LIG    1        2.680   4.792   0.775  0.00  0.00    -0.040 A 
ATOM      3  S   LIG    1        1.786   3.274   0.834  0.00  0.00    +0.160 S 
ATOM      4  C   LIG    1        0.268   4.168   0.833  0.00  0.00    +0.090 A 
ATOM      5  N   LIG    1        0.520   5.446   0.786  0.00  0.00    -0.470 NA
ENDROOT
BRANCH   1   9
ATOM      6  C   LIG    1        5.351   9.242   0.764  0.00  0.00    +0.340 C 
ATOM      7  N   LIG    1        3.933   8.876   0.714  0.00  0.00    -0.560 N 
ATOM      8  C   LIG    1        3.579   7.577   0.760  0.00  0.00    +0.580 A 
ATOM      9  C   LIG    1        2.210   7.227   0.711  0.00  0.00    -0.310 A 
ATOM     10  C   LIG    1        1.267   8.241   0.611  0.00  0.00    +0.510 A 
ATOM     11  N   LIG    1        1.690   9.547   0.574  0.00  0.00    -0.550 N 
ATOM     12  C   LIG    1        0.706  10.627   0.474  0.00  0.00    +0.330 C 
ATOM     13  O   LIG    1        4.432   6.710   0.844  0.00  0.00    -0.520 OA
ATOM     14  C   LIG    1        3.001   9.841   0.623  0.00  0.00    +0.710 A 
ATOM     15  O   LIG    1        3.352  11.005   0.584  0.00  0.00    -0.530 OA
BRANCH  10  16
ATOM     16  N   LIG    1       -0.070   7.943   0.556  0.00  0.00    -0.820 N 
ATOM     17  H   LIG    1       -0.690   8.569   0.150  0.00  0.00    +0.400 HD
ATOM     18  H   LIG    1       -0.395   7.106   0.922  0.00  0.00    +0.440 HD
ENDBRANCH  10  16
ENDBRANCH   1   9
BRANCH   4  19
ATOM     19  C   LIG    1       -1.075   3.565   0.871  0.00  0.00    +0.030 C 
ATOM     20  C   LIG    1       -1.224   2.199   0.732  0.00  0.00    +0.200 C 
BRANCH  20  21
ATOM     21  C   LIG    1       -0.142   1.415   0.276  0.00  0.00    -0.050 A 
ATOM     22  C   LIG    1        0.336   0.263   0.870  0.00  0.00    +0.030 A 
ATOM     23  C   LIG    1        1.406  -0.180   0.077  0.00  0.00    -0.060 A 
ATOM     24  C   LIG    1        1.536   0.696  -0.944  0.00  0.00    +0.210 A 
ATOM     25  O   LIG    1        0.605   1.653  -0.823  0.00  0.00    -0.150 OA
ENDBRANCH  20  21
BRANCH  19  26
ATOM     26  C   LIG    1       -2.228   4.395   1.053  0.00  0.00    +0.260 C 
ATOM     27  N   LIG    1       -3.142   5.054   1.198  0.00  0.00    -0.390 NA
ENDBRANCH  19  26
ENDBRANCH   4  19
TORSDOF 5
