REMARK  Name = ZINCrg00000xaeNF.0
REMARK                            x       y       z     vdW  Elec       q    Type
REMARK                         _______ _______ _______ _____ _____    ______ ____
ROOT
ATOM      1  C   LIG    1       -0.821   0.682   2.263  0.00  0.00    +0.510 C 
ATOM      2  N   LIG    1       -0.678   1.549   1.241  0.00  0.00    -0.600 N 
ATOM      3  C   LIG    1       -0.013   1.086   0.008  0.00  0.00    +0.260 C 
ATOM      4  C   LIG    1       -0.731   1.583  -1.259  0.00  0.00    +0.020 C 
ATOM      5  C   LIG    1       -2.227   1.500  -1.074  0.00  0.00    +0.030 C 
ATOM      6  C   LIG    1       -2.742   2.827  -0.526  0.00  0.00    +0.000 C 
ATOM      7  C   LIG    1       -2.659   2.952   0.938  0.00  0.00    +0.010 C 
ATOM      8  C   LIG    1       -1.182   2.895   1.399  0.00  0.00    +0.290 C 
ATOM      9  O   LIG    1       -1.364   1.037   3.288  0.00  0.00    -0.530 OA
ENDROOT
BRANCH   1  10
ATOM     10  C   LIG    1       -0.305  -0.728   2.133  0.00  0.00    +0.300 C 
BRANCH  10  13
ATOM     11  C   LIG    1       -0.488  -3.511   4.754  0.00  0.00    +0.110 C 
ATOM     12  C   LIG    1       -0.205  -2.754   3.483  0.00  0.00    +0.510 C 
ATOM     13  N   LIG    1       -0.580  -1.464   3.369  0.00  0.00    -0.720 N 
ATOM     14  H   LIG    1       -1.031  -1.024   4.106  0.00  0.00    +0.410 HD
ATOM     15  O   LIG    1        0.359  -3.305   2.561  0.00  0.00    -0.550 OA
ENDBRANCH  10  13
ENDBRANCH   1  10
BRANCH   6  16
ATOM     16  C   LIG    1       -4.206   2.988  -0.942  0.00  0.00    +0.020 C 
BRANCH  16  17
ATOM     17  C   LIG    1       -4.709   4.367  -0.511  0.00  0.00    +0.320 C 
BRANCH  17  18
ATOM     18  N   LIG    1       -6.111   4.522  -0.909  0.00  0.00    -0.290 N 
ATOM     19  C   LIG    1       -7.138   4.841  -0.088  0.00  0.00    +0.140 A 
ATOM     20  C   LIG    1       -8.245   4.878  -0.865  0.00  0.00    -0.010 A 
ATOM     21  N   LIG    1       -7.846   4.582  -2.108  0.00  0.00    -0.260 NA
ATOM     22  N   LIG    1       -6.576   4.383  -2.101  0.00  0.00    -0.080 NA
BRANCH  20  23
ATOM     23  C   LIG    1       -9.650   5.190  -0.419  0.00  0.00    +0.100 C 
ATOM     24  C   LIG    1       -9.623   6.197   0.749  0.00  0.00    +0.030 C 
ATOM     25  C   LIG    1      -10.777   5.738   1.674  0.00  0.00    +0.020 C 
ATOM     26  C   LIG    1      -10.690   4.194   1.588  0.00  0.00    -0.020 C 
ATOM     27  C   LIG    1      -10.329   3.916   0.115  0.00  0.00    +0.170 C 
BRANCH  27  28
ATOM     28  O   LIG    1      -11.513   3.640  -0.637  0.00  0.00    -0.560 OA
ATOM     29  H   LIG    1      -11.986   2.849  -0.348  0.00  0.00    +0.380 HD
ENDBRANCH  27  28
ENDBRANCH  20  23
ENDBRANCH  17  18
ENDBRANCH  16  17
ENDBRANCH   6  16
TORSDOF 7
