REMARK  Name = ZINCrD00000hQ4na.1
REMARK                            x       y       z     vdW  Elec       q    Type
REMARK                         _______ _______ _______ _____ _____    ______ ____
ROOT
ATOM      1  C   LIG    1        2.434  -6.727   2.033  0.00  0.00    +0.290 C 
ENDROOT
BRANCH   1   2
ATOM      2  C   LIG    1        0.987  -7.098   2.364  0.00  0.00    +0.000 C 
ATOM      3  C   LIG    1        0.136  -5.827   2.440  0.00  0.00    +0.010 C 
ATOM      4  C   LIG    1       -1.291  -6.201   2.849  0.00  0.00    +0.210 C 
ATOM      5  O   LIG    1       -1.262  -6.890   4.100  0.00  0.00    -0.380 OA
ATOM      6  C   LIG    1       -0.520  -8.111   4.077  0.00  0.00    +0.210 C 
ATOM      7  C   LIG    1        0.938  -7.814   3.718  0.00  0.00    +0.000 C 
ENDBRANCH   1   2
BRANCH   1  11
ATOM      8  C   LIG    1        4.682  -9.445   2.700  0.00  0.00    +0.170 A 
ATOM      9  N   LIG    1        4.148  -9.788   1.566  0.00  0.00    -0.380 NA
ATOM     10  O   LIG    1        3.346  -8.951   1.210  0.00  0.00    +0.100 OA
ATOM     11  C   LIG    1        3.298  -7.959   2.104  0.00  0.00    +0.190 A 
ATOM     12  N   LIG    1        4.142  -8.267   3.059  0.00  0.00    -0.480 NA
BRANCH   8  14
ATOM     13  C   LIG    1        5.151 -11.601   3.832  0.00  0.00    +0.040 C 
ATOM     14  C   LIG    1        5.715 -10.225   3.471  0.00  0.00    +0.100 C 
ATOM     15  C   LIG    1        6.970 -10.397   2.613  0.00  0.00    +0.040 C 
ENDBRANCH   8  14
ENDBRANCH   1  11
BRANCH   1  16
ATOM     16  N   LIG    1        2.497  -6.162   0.678  0.00  0.00    -0.670 NA
ATOM     17  H   LIG    1        1.651  -5.657   0.457  0.00  0.00    +0.360 HD
BRANCH  16  18
ATOM     18  C   LIG    1        3.679  -5.305   0.519  0.00  0.00    +0.160 C 
ATOM     19  C   LIG    1        4.091  -5.269  -0.955  0.00  0.00    +0.070 C 
ATOM     20  C   LIG    1        5.286  -4.328  -1.123  0.00  0.00    +0.190 C 
ATOM     21  N   LIG    1        4.918  -2.982  -0.666  0.00  0.00    -0.440 N 
ATOM     22  C   LIG    1        4.565  -2.983   0.760  0.00  0.00    +0.220 C 
ATOM     23  C   LIG    1        3.348  -3.884   0.984  0.00  0.00    +0.010 C 
BRANCH  21  24
ATOM     24  C   LIG    1        5.934  -2.075  -0.925  0.00  0.00    +0.230 A 
ATOM     25  N   LIG    1        5.895  -0.812  -0.633  0.00  0.00    -0.500 NA
ATOM     26  C   LIG    1        6.955  -0.092  -0.952  0.00  0.00    +0.240 A 
ATOM     27  C   LIG    1        7.935  -0.778  -1.541  0.00  0.00    -0.090 A 
ATOM     28  S   LIG    1        7.422  -2.458  -1.675  0.00  0.00    +0.090 S 
ENDBRANCH  21  24
ENDBRANCH  16  18
ENDBRANCH   1  16
TORSDOF 6
