REMARK  Name = ZINCbu0000000GKZ.0
REMARK                            x       y       z     vdW  Elec       q    Type
REMARK                         _______ _______ _______ _____ _____    ______ ____
ROOT
ATOM      1  C   LIG    1        1.172   2.087   0.002  0.00  0.00    -0.090 A 
ATOM      2  C   LIG    1        2.378   1.412  -0.013  0.00  0.00    +0.050 A 
ATOM      3  C   LIG    1        2.397   0.029  -0.021  0.00  0.00    +0.060 A 
ATOM      4  C   LIG    1        1.210  -0.679  -0.013  0.00  0.00    +0.070 A 
ATOM      5  C   LIG    1        0.002  -0.004   0.002  0.00  0.00    -0.030 A 
ATOM      6 CL   LIG    1       -1.489  -0.893   0.011  0.00  0.00    -0.030 Cl
ATOM      7  C   LIG    1       -0.017   1.380   0.010  0.00  0.00    -0.030 A 
ATOM      8 CL   LIG    1       -1.532   2.228   0.021  0.00  0.00    -0.040 Cl
ENDROOT
BRANCH   1   9
ATOM      9  C   LIG    1        1.153   3.594   0.010  0.00  0.00    +0.100 C 
BRANCH   9  10
ATOM     10  C   LIG    1        1.034   4.095   1.451  0.00  0.00    +0.260 C 
BRANCH  10  11
ATOM     11  N   LIG    1        1.015   5.564   1.458  0.00  0.00    -0.640 N 
ATOM     12  H   LIG    1        0.937   5.895   2.408  0.00  0.00    +0.440 HD
ATOM     13  H   LIG    1        0.227   5.893   0.921  0.00  0.00    +0.440 HD
ATOM     14  H   LIG    1        1.869   5.914   1.050  0.00  0.00    +0.440 HD
ENDBRANCH  10  11
ENDBRANCH   9  10
ENDBRANCH   1   9
TORSDOF 3
