REMARK  Name = ZINCvU0000000Jxv.0
REMARK                            x       y       z     vdW  Elec       q    Type
REMARK                         _______ _______ _______ _____ _____    ______ ____
ROOT
ATOM      1  C   LIG    1        1.634  -4.636  -1.753  0.00  0.00    +0.350 C 
ENDROOT
BRANCH   1   4
ATOM      2  C   LIG    1       -0.546  -7.303  -0.563  0.00  0.00    +0.270 A 
ATOM      3  N   LIG    1        0.551  -6.650  -0.785  0.00  0.00    -0.470 NA
ATOM      4  C   LIG    1        0.444  -5.501  -1.427  0.00  0.00    +0.080 A 
ATOM      5  C   LIG    1       -0.805  -5.165  -1.758  0.00  0.00    -0.060 A 
ATOM      6  S   LIG    1       -1.881  -6.443  -1.198  0.00  0.00    +0.150 S 
BRANCH   2   9
ATOM      7  C   LIG    1        0.422 -10.497   1.160  0.00  0.00    +0.110 C 
ATOM      8  C   LIG    1        0.494  -9.121   0.550  0.00  0.00    +0.510 C 
ATOM      9  N   LIG    1       -0.627  -8.526   0.095  0.00  0.00    -0.480 N 
ATOM     10  O   LIG    1        1.560  -8.550   0.467  0.00  0.00    -0.470 OA
BRANCH   9  11
ATOM     11  C   LIG    1       -1.872  -9.139   0.286  0.00  0.00    +0.100 A 
ATOM     12  C   LIG    1       -2.608  -8.876   1.433  0.00  0.00    +0.030 A 
ATOM     13  C   LIG    1       -3.838  -9.477   1.616  0.00  0.00    +0.030 A 
ATOM     14  C   LIG    1       -4.331 -10.349   0.662  0.00  0.00    +0.030 A 
ATOM     15  C   LIG    1       -3.598 -10.617  -0.479  0.00  0.00    +0.030 A 
ATOM     16  C   LIG    1       -2.370 -10.014  -0.670  0.00  0.00    +0.030 A 
ENDBRANCH   9  11
ENDBRANCH   2   9
ENDBRANCH   1   4
BRANCH   1  17
ATOM     17  O   LIG    1        1.189  -3.447  -2.458  0.00  0.00    -0.330 OA
BRANCH  17  18
ATOM     18  C   LIG    1        2.137  -2.563  -2.825  0.00  0.00    +0.560 C 
ATOM     19  O   LIG    1        3.304  -2.780  -2.563  0.00  0.00    -0.490 OA
BRANCH  18  20
ATOM     20  C   LIG    1        1.760  -1.333  -3.543  0.00  0.00    -0.060 A 
ATOM     21  C   LIG    1        2.607  -0.356  -3.973  0.00  0.00    +0.070 A 
ATOM     22  O   LIG    1        1.857   0.579  -4.577  0.00  0.00    -0.180 OA
ATOM     23  C   LIG    1        0.571   0.187  -4.521  0.00  0.00    +0.240 A 
ATOM     24  C   LIG    1        4.104  -0.330  -3.803  0.00  0.00    +0.220 C 
ATOM     25  N   LIG    1        0.503  -0.963  -3.900  0.00  0.00    -0.430 NA
BRANCH  23  26
ATOM     26  C   LIG    1       -0.579   0.932  -5.077  0.00  0.00    -0.030 A 
ATOM     27  C   LIG    1       -0.377   2.157  -5.716  0.00  0.00    +0.040 A 
ATOM     28  C   LIG    1       -1.454   2.844  -6.237  0.00  0.00    +0.010 A 
ATOM     29  C   LIG    1       -2.732   2.328  -6.118  0.00  0.00    +0.030 A 
ATOM     30  C   LIG    1       -2.939   1.117  -5.481  0.00  0.00    +0.010 A 
ATOM     31  C   LIG    1       -1.870   0.417  -4.960  0.00  0.00    +0.070 A 
ENDBRANCH  23  26
ENDBRANCH  18  20
ENDBRANCH  17  18
ENDBRANCH   1  17
TORSDOF 7
