REMARK  Name = ZINCrD00000F5LGc.0
REMARK                            x       y       z     vdW  Elec       q    Type
REMARK                         _______ _______ _______ _____ _____    ______ ____
ROOT
ATOM      1  C   LIG    1       -4.242   2.969  -1.297  0.00  0.00    +0.510 C 
ATOM      2  N   LIG    1       -2.896   2.922  -1.242  0.00  0.00    -0.720 N 
ATOM      3  H   LIG    1       -2.370   3.652  -1.605  0.00  0.00    +0.400 HD
ATOM      4  O   LIG    1       -4.900   2.057  -0.844  0.00  0.00    -0.520 OA
ENDROOT
BRANCH   2   5
ATOM      5  C   LIG    1       -2.228   1.769  -0.635  0.00  0.00    +0.290 C 
ATOM      6  C   LIG    1       -0.804   1.611  -1.209  0.00  0.00    +0.050 C 
ATOM      7  C   LIG    1       -0.012   1.087   0.007  0.00  0.00    +0.090 C 
ATOM      8  C   LIG    1       -0.758   1.602   1.220  0.00  0.00    -0.100 A 
ATOM      9  C   LIG    1       -0.351   1.718   2.539  0.00  0.00    +0.040 A 
ATOM     10  C   LIG    1       -1.215   2.224   3.492  0.00  0.00    +0.080 A 
ATOM     11  C   LIG    1       -2.495   2.618   3.125  0.00  0.00    +0.090 A 
ATOM     12  C   LIG    1       -2.903   2.501   1.800  0.00  0.00    -0.020 A 
ATOM     13  F   LIG    1       -0.814   2.336   4.778  0.00  0.00    -0.130 F 
ATOM     14  C   LIG    1       -2.034   1.994   0.850  0.00  0.00    -0.080 A 
BRANCH  11  15
ATOM     15  O   LIG    1       -3.349   3.117   4.058  0.00  0.00    -0.300 OA
ATOM     16  C   LIG    1       -4.649   3.501   3.608  0.00  0.00    +0.250 C 
ENDBRANCH  11  15
ENDBRANCH   2   5
BRANCH   1  17
ATOM     17  C   LIG    1       -4.930   4.156  -1.922  0.00  0.00    +0.110 C 
BRANCH  17  23
ATOM     18  C   LIG    1       -7.122   4.329  -0.714  0.00  0.00    +0.160 A 
ATOM     19  C   LIG    1       -8.498   4.150  -0.658  0.00  0.00    +0.020 A 
ATOM     20  C   LIG    1       -9.167   3.609  -1.739  0.00  0.00    +0.030 A 
ATOM     21  C   LIG    1       -8.468   3.245  -2.875  0.00  0.00    -0.010 A 
ATOM     22  C   LIG    1       -7.098   3.428  -2.936  0.00  0.00    +0.030 A 
ATOM     23  C   LIG    1       -6.423   3.963  -1.857  0.00  0.00    -0.090 A 
BRANCH  18  25
ATOM     24  C   LIG    1       -7.031   5.824   1.134  0.00  0.00    +0.540 C 
ATOM     25  N   LIG    1       -6.442   4.876   0.378  0.00  0.00    -0.670 N 
ATOM     26  H   LIG    1       -5.545   4.573   0.593  0.00  0.00    +0.400 HD
ATOM     27  O   LIG    1       -8.185   6.144   0.917  0.00  0.00    -0.520 OA
BRANCH  24  29
ATOM     28  C   LIG    1       -6.863   7.406   2.966  0.00  0.00    +0.170 C 
ATOM     29  C   LIG    1       -6.281   6.471   2.220  0.00  0.00    -0.100 C 
ENDBRANCH  24  29
ENDBRANCH  18  25
ENDBRANCH  17  23
ENDBRANCH   1  17
TORSDOF 6
