REMARK  Name = ZINCpe00000FUbg7.0
REMARK                            x       y       z     vdW  Elec       q    Type
REMARK                         _______ _______ _______ _____ _____    ______ ____
ROOT
ATOM      1  C   LIG    1        0.690   4.349   3.143  0.00  0.00    +0.140 C 
ATOM      2  C   LIG    1        0.916   3.551   1.834  0.00  0.00    +0.050 C 
ATOM      3  C   LIG    1       -0.094   4.197   0.857  0.00  0.00    +0.170 C 
ATOM      4  C   LIG    1       -0.383   5.592   1.441  0.00  0.00    +0.170 C 
ATOM      5  F   LIG    1        0.469   4.312  -0.418  0.00  0.00    -0.200 F 
ATOM      6  N   LIG    1        0.443   5.732   2.660  0.00  0.00    -0.490 NA
ENDROOT
BRANCH   1   7
ATOM      7  C   LIG    1        1.938   4.301   4.027  0.00  0.00    +0.220 C 
BRANCH   7   8
ATOM      8  N   LIG    1        2.089   2.951   4.586  0.00  0.00    -0.540 NA
ATOM      9  C   LIG    1        1.079   2.692   5.621  0.00  0.00    +0.200 C 
BRANCH   8  10
ATOM     10  C   LIG    1        3.446   2.748   5.113  0.00  0.00    +0.310 C 
BRANCH  10  15
ATOM     11  N   LIG    1        4.215   0.422   4.404  0.00  0.00    -0.290 N 
ATOM     12  N   LIG    1        4.264  -0.739   4.963  0.00  0.00    -0.090 NA
ATOM     13  N   LIG    1        3.794  -0.645   6.158  0.00  0.00    -0.080 NA
ATOM     14  N   LIG    1        3.442   0.574   6.385  0.00  0.00    -0.300 NA
ATOM     15  C   LIG    1        3.695   1.275   5.306  0.00  0.00    +0.190 A 
BRANCH  11  16
ATOM     16  C   LIG    1        4.647   0.752   3.043  0.00  0.00    +0.340 C 
BRANCH  16  18
ATOM     17  C   LIG    1        6.581   1.492   1.645  0.00  0.00    +0.040 C 
ATOM     18  C   LIG    1        6.151   1.033   3.040  0.00  0.00    +0.010 C 
ENDBRANCH  16  18
ENDBRANCH  11  16
ENDBRANCH  10  15
ENDBRANCH   8  10
ENDBRANCH   7   8
ENDBRANCH   1   7
BRANCH   6  19
ATOM     19  C   LIG    1       -0.253   6.529   3.679  0.00  0.00    +0.350 C 
BRANCH  19  20
ATOM     20  C   LIG    1       -1.480   5.787   4.145  0.00  0.00    +0.130 A 
ATOM     21  N   LIG    1       -2.671   5.873   3.633  0.00  0.00    -0.370 NA
ATOM     22  O   LIG    1       -3.438   5.147   4.230  0.00  0.00    +0.080 OA
ATOM     23  C   LIG    1       -2.791   4.517   5.215  0.00  0.00    +0.180 A 
ATOM     24  C   LIG    1       -3.382   3.532   6.190  0.00  0.00    +0.240 C 
ATOM     25  N   LIG    1       -1.542   4.915   5.167  0.00  0.00    -0.480 NA
ENDBRANCH  19  20
ENDBRANCH   6  19
TORSDOF 8
