REMARK  Name = ZINCpk00000xI2eX.0
REMARK                            x       y       z     vdW  Elec       q    Type
REMARK                         _______ _______ _______ _____ _____    ______ ____
ROOT
ATOM      1  C   LIG    1       -2.287  -0.181  -0.778  0.00  0.00    +0.510 C 
ATOM      2  N   LIG    1       -2.425   0.986  -0.118  0.00  0.00    -0.610 N 
ATOM      3  C   LIG    1       -3.693   1.399   0.500  0.00  0.00    +0.350 C 
ATOM      4  S   LIG    1       -3.311   2.975   1.360  0.00  0.00    -0.230 S 
ATOM      5  C   LIG    1       -1.488   2.707   1.375  0.00  0.00    +0.170 C 
ATOM      6  C   LIG    1       -1.324   1.936   0.035  0.00  0.00    +0.230 C 
ATOM      7  O   LIG    1       -1.202  -0.510  -1.208  0.00  0.00    -0.480 OA
ENDROOT
BRANCH   6   8
ATOM      8  C   LIG    1       -0.015   1.190   0.042  0.00  0.00    +0.530 C 
ATOM      9  N   LIG    1        1.042   1.678  -0.636  0.00  0.00    -0.720 N 
ATOM     10  H   LIG    1        0.962   2.512  -1.126  0.00  0.00    +0.400 HD
ATOM     11  O   LIG    1        0.086   0.147   0.654  0.00  0.00    -0.510 OA
BRANCH   9  12
ATOM     12  C   LIG    1        2.314   0.950  -0.635  0.00  0.00    +0.330 C 
BRANCH  12  13
ATOM     13  C   LIG    1        3.325   1.703  -1.461  0.00  0.00    -0.110 A 
ATOM     14  C   LIG    1        3.447   1.439  -2.813  0.00  0.00    +0.020 A 
ATOM     15  C   LIG    1        4.371   2.132  -3.572  0.00  0.00    +0.000 A 
ATOM     16  C   LIG    1        5.179   3.083  -2.977  0.00  0.00    +0.010 A 
ATOM     17  C   LIG    1        5.061   3.343  -1.625  0.00  0.00    +0.010 A 
ATOM     18  C   LIG    1        4.134   2.653  -0.867  0.00  0.00    +0.020 A 
ENDBRANCH  12  13
ENDBRANCH   9  12
ENDBRANCH   6   8
BRANCH   1  19
ATOM     19  C   LIG    1       -3.482  -1.076  -0.983  0.00  0.00    +0.350 C 
BRANCH  19  26
ATOM     20  C   LIG    1       -3.580  -1.134  -3.897  0.00  0.00    +0.150 C 
ATOM     21  C   LIG    1       -3.116  -2.315  -3.084  0.00  0.00    +0.100 A 
ATOM     22  C   LIG    1       -2.722  -3.443  -3.657  0.00  0.00    -0.040 A 
ATOM     23  S   LIG    1       -2.283  -4.520  -2.320  0.00  0.00    +0.020 S 
ATOM     24  C   LIG    1       -2.652  -3.377  -1.086  0.00  0.00    +0.480 A 
ATOM     25  O   LIG    1       -2.549  -3.537   0.117  0.00  0.00    -0.470 OA
ATOM     26  N   LIG    1       -3.075  -2.273  -1.722  0.00  0.00    -0.520 N 
ENDBRANCH  19  26
ENDBRANCH   1  19
TORSDOF 5
