REMARK  Name = ZINCtj00000mhS8E.1
REMARK                            x       y       z     vdW  Elec       q    Type
REMARK                         _______ _______ _______ _____ _____    ______ ____
ROOT
ATOM      1  N   LIG    1        4.039  -1.231  -0.083  0.00  0.00    -0.390 N 
ATOM      2  C   LIG    1        3.909  -0.433   1.143  0.00  0.00    +0.300 C 
ATOM      3  C   LIG    1        2.538   0.246   1.167  0.00  0.00    +0.230 C 
ATOM      4  N   LIG    1        2.401   1.108  -0.015  0.00  0.00    -0.500 N 
ATOM      5  C   LIG    1        2.553   0.327  -1.251  0.00  0.00    +0.230 C 
ATOM      6  C   LIG    1        3.924  -0.352  -1.255  0.00  0.00    +0.280 C 
ATOM      7  H   LIG    1        3.309  -1.926  -0.111  0.00  0.00    +0.420 HD
ENDROOT
BRANCH   4   8
ATOM      8  C   LIG    1        1.180   1.787   0.000  0.00  0.00    +0.190 A 
ATOM      9  C   LIG    1       -0.013   1.076   0.008  0.00  0.00    -0.010 A 
ATOM     10  C   LIG    1       -1.218   1.751   0.017  0.00  0.00    +0.220 A 
ATOM     11  C   LIG    1       -1.237   3.133   0.030  0.00  0.00    -0.660 A 
ATOM     12  C   LIG    1       -0.051   3.845   0.022  0.00  0.00    +0.240 A 
ATOM     13  C   LIG    1        1.157   3.176   0.008  0.00  0.00    -0.040 A 
BRANCH  11  14
ATOM     14  S   LIG    1       -2.776   3.990   0.048  0.00  0.00    +2.480 S 
ATOM     15  O   LIG    1       -2.475   5.239   0.657  0.00  0.00    -0.870 OA
ATOM     16  O   LIG    1       -3.679   3.077   0.657  0.00  0.00    -0.870 OA
BRANCH  14  17
ATOM     17  C   LIG    1       -3.188   4.220  -1.703  0.00  0.00    -0.030 C 
ATOM     18  F   LIG    1       -3.294   2.970  -2.325  0.00  0.00    -0.160 F 
ATOM     19  F   LIG    1       -2.182   4.966  -2.325  0.00  0.00    -0.160 F 
ENDBRANCH  14  17
ENDBRANCH  11  14
BRANCH  13  20
ATOM     20  N   LIG    1        2.425   3.939  -0.001  0.00  0.00    +0.030 N 
ATOM     21  O   LIG    1        3.491   3.348  -0.014  0.00  0.00    -0.110 OA
ATOM     22  O   LIG    1        2.404   5.157   0.005  0.00  0.00    -0.160 OA
ENDBRANCH  13  20
ENDBRANCH   4   8
BRANCH   1  23
ATOM     23  C   LIG    1        5.349  -1.896  -0.098  0.00  0.00    +0.290 C 
BRANCH  23  24
ATOM     24  C   LIG    1        5.436  -2.824  -1.311  0.00  0.00    +0.070 C 
BRANCH  24  26
ATOM     25  O   LIG    1        7.587  -3.274  -0.452  0.00  0.00    -0.530 OA
ATOM     26  C   LIG    1        6.779  -3.507  -1.326  0.00  0.00    +0.520 C 
ATOM     27  N   LIG    1        7.083  -4.376  -2.310  0.00  0.00    -0.690 N 
ATOM     28  H   LIG    1        6.436  -4.562  -3.009  0.00  0.00    +0.410 HD
BRANCH  27  29
ATOM     29  C   LIG    1        8.389  -5.040  -2.325  0.00  0.00    +0.210 C 
ATOM     30  C   LIG    1        9.119  -5.133  -3.666  0.00  0.00    +0.020 C 
ATOM     31  C   LIG    1        8.490  -6.384  -3.049  0.00  0.00    +0.030 C 
ENDBRANCH  27  29
ENDBRANCH  24  26
ENDBRANCH  23  24
ENDBRANCH   1  23
TORSDOF 8
