REMARK  Name = ZINCrH000004ouvM.0
REMARK                            x       y       z     vdW  Elec       q    Type
REMARK                         _______ _______ _______ _____ _____    ______ ____
ROOT
ATOM      1  N   LIG    1        3.332   2.039  -1.205  0.00  0.00    -0.620 N 
ATOM      2  C   LIG    1        2.484   1.063  -0.511  0.00  0.00    +0.300 C 
ATOM      3  C   LIG    1        1.270   1.866   0.007  0.00  0.00    +0.000 C 
ATOM      4  C   LIG    1        1.228   3.050  -0.986  0.00  0.00    +0.070 C 
ATOM      5  C   LIG    1        2.650   3.162  -1.490  0.00  0.00    +0.520 C 
ATOM      6  O   LIG    1        3.109   4.126  -2.067  0.00  0.00    -0.510 OA
ENDROOT
BRANCH   3   7
ATOM      7  C   LIG    1        0.008   1.047  -0.076  0.00  0.00    +0.530 C 
ATOM      8  N   LIG    1       -1.175   1.596   0.267  0.00  0.00    -0.660 N 
ATOM      9  H   LIG    1       -1.205   2.494   0.631  0.00  0.00    +0.420 HD
ATOM     10  O   LIG    1        0.055  -0.104  -0.455  0.00  0.00    -0.510 OA
BRANCH   8  11
ATOM     11  C   LIG    1       -2.359   0.869   0.096  0.00  0.00    +0.080 A 
ATOM     12  C   LIG    1       -2.370  -0.497   0.295  0.00  0.00    +0.090 A 
ATOM     13  C   LIG    1       -3.586  -1.182   0.115  0.00  0.00    -0.090 A 
ATOM     14  C   LIG    1       -3.676  -2.570   0.304  0.00  0.00    +0.030 A 
ATOM     15  C   LIG    1       -4.870  -3.199   0.115  0.00  0.00    +0.020 A 
ATOM     16  C   LIG    1       -6.003  -2.482  -0.264  0.00  0.00    +0.030 A 
ATOM     17  C   LIG    1       -5.951  -1.136  -0.454  0.00  0.00    +0.050 A 
ATOM     18  C   LIG    1       -4.737  -0.450  -0.270  0.00  0.00    +0.110 A 
ATOM     19  N   LIG    1       -4.661   0.872  -0.452  0.00  0.00    -0.450 NA
ATOM     20  C   LIG    1       -3.537   1.523  -0.284  0.00  0.00    +0.280 A 
ENDBRANCH   8  11
ENDBRANCH   3   7
BRANCH   1  22
ATOM     21  C   LIG    1        4.915   1.883  -3.063  0.00  0.00    +0.030 C 
ATOM     22  C   LIG    1        4.740   1.818  -1.544  0.00  0.00    +0.300 C 
BRANCH  22  23
ATOM     23  C   LIG    1        5.586   2.883  -0.895  0.00  0.00    -0.090 A 
ATOM     24  C   LIG    1        6.700   3.374  -1.549  0.00  0.00    +0.020 A 
ATOM     25  C   LIG    1        7.474   4.354  -0.955  0.00  0.00    +0.000 A 
ATOM     26  C   LIG    1        7.138   4.836   0.296  0.00  0.00    +0.000 A 
ATOM     27  C   LIG    1        6.027   4.341   0.952  0.00  0.00    +0.000 A 
ATOM     28  C   LIG    1        5.250   3.365   0.356  0.00  0.00    +0.000 A 
ENDBRANCH  22  23
ENDBRANCH   1  22
TORSDOF 4
