REMARK  Name = ZINCqH0000007Wvb.0
REMARK                            x       y       z     vdW  Elec       q    Type
REMARK                         _______ _______ _______ _____ _____    ______ ____
ROOT
ATOM      1  C   LIG    1       -2.476   3.857   0.045  0.00  0.00    +0.480 A 
ATOM      2  N   LIG    1       -3.584   3.131   0.051  0.00  0.00    -0.580 NA
ATOM      3  C   LIG    1       -3.541   1.800   0.043  0.00  0.00    +0.410 A 
ATOM      4  N   LIG    1       -2.409   1.122   0.029  0.00  0.00    -0.540 NA
ATOM      5  C   LIG    1       -1.234   1.765   0.017  0.00  0.00    +0.190 A 
ATOM      6  C   LIG    1       -0.013   1.076   0.008  0.00  0.00    +0.030 A 
ATOM      7  C   LIG    1        1.156   1.778   0.001  0.00  0.00    +0.060 A 
ATOM      8  C   LIG    1        1.157   3.169   0.008  0.00  0.00    +0.000 A 
ATOM      9  C   LIG    1       -0.013   3.871   0.023  0.00  0.00    +0.050 A 
ATOM     10  C   LIG    1       -1.230   3.182   0.030  0.00  0.00    -0.200 A 
ENDROOT
BRANCH   3  11
ATOM     11  C   LIG    1       -4.820   1.048   0.051  0.00  0.00    +0.000 A 
ATOM     12  C   LIG    1       -6.046   1.717   0.072  0.00  0.00    +0.030 A 
ATOM     13  C   LIG    1       -7.213   0.978   0.074  0.00  0.00    +0.250 A 
ATOM     14  N   LIG    1       -7.179  -0.340   0.066  0.00  0.00    -0.470 NA
ATOM     15  C   LIG    1       -6.043  -1.010   0.051  0.00  0.00    +0.250 A 
ATOM     16  C   LIG    1       -4.831  -0.350   0.043  0.00  0.00    +0.030 A 
ENDBRANCH   3  11
BRANCH   1  17
ATOM     17  N   LIG    1       -2.534   5.234   0.053  0.00  0.00    -0.690 N 
ATOM     18  H   LIG    1       -1.715   5.754   0.049  0.00  0.00    +0.410 HD
BRANCH  17  19
ATOM     19  C   LIG    1       -3.833   5.913   0.069  0.00  0.00    +0.350 C 
BRANCH  19  25
ATOM     20  C   LIG    1       -3.325   8.079  -1.103  0.00  0.00    +0.340 A 
ATOM     21  N   LIG    1       -3.138   9.388  -1.103  0.00  0.00    -0.540 NA
ATOM     22  C   LIG    1       -3.223  10.099   0.006  0.00  0.00    +0.310 A 
ATOM     23  C   LIG    1       -3.512   9.495   1.213  0.00  0.00    -0.070 A 
ATOM     24  C   LIG    1       -3.721   8.123   1.254  0.00  0.00    +0.120 A 
ATOM     25  C   LIG    1       -3.620   7.405   0.075  0.00  0.00    -0.190 A 
BRANCH  20  27
ATOM     26  C   LIG    1       -2.923   8.137  -3.444  0.00  0.00    +0.260 C 
ATOM     27  O   LIG    1       -3.228   7.387  -2.267  0.00  0.00    -0.300 OA
ENDBRANCH  20  27
ENDBRANCH  19  25
ENDBRANCH  17  19
ENDBRANCH   1  17
TORSDOF 5
