REMARK  Name = ZINCtj00000rmTBZ.1
REMARK                            x       y       z     vdW  Elec       q    Type
REMARK                         _______ _______ _______ _____ _____    ______ ____
ROOT
ATOM      1  C   LIG    1        0.010   0.017  -0.022  0.00  0.00    +0.340 C 
ATOM      2  N   LIG    1       -0.014   1.486  -0.007  0.00  0.00    -0.400 N 
ATOM      3  C   LIG    1       -0.784   2.003  -1.169  0.00  0.00    +0.290 C 
ATOM      4  C   LIG    1       -1.222   3.425  -0.746  0.00  0.00    +0.100 C 
ATOM      5  C   LIG    1       -1.207   3.394   0.786  0.00  0.00    -0.120 C 
ATOM      6  C   LIG    1       -2.472   3.906   1.474  0.00  0.00    +0.330 C 
ATOM      7  N   LIG    1       -1.557   4.527   2.454  0.00  0.00    -0.650 N 
ATOM      8  C   LIG    1       -1.677   4.923   3.736  0.00  0.00    +0.590 C 
ATOM      9  O   LIG    1       -0.702   5.327   4.341  0.00  0.00    -0.490 OA
ATOM     10  C   LIG    1       -0.458   4.541   1.466  0.00  0.00    +0.340 C 
ATOM     11  C   LIG    1       -0.757   1.981   1.183  0.00  0.00    +0.300 C 
ATOM     12  H   LIG    1        0.925   1.854  -0.015  0.00  0.00    +0.430 HD
ENDROOT
BRANCH   8  13
ATOM     13  C   LIG    1       -2.990   4.866   4.407  0.00  0.00    -0.140 A 
ATOM     14  C   LIG    1       -4.169   4.912   3.655  0.00  0.00    +0.040 A 
ATOM     15  C   LIG    1       -5.392   4.854   4.287  0.00  0.00    +0.020 A 
ATOM     16  C   LIG    1       -5.466   4.759   5.667  0.00  0.00    +0.070 A 
ATOM     17  C   LIG    1       -4.307   4.717   6.422  0.00  0.00    +0.060 A 
ATOM     18  O   LIG    1       -4.374   4.623   7.782  0.00  0.00    -0.310 OA
ATOM     19  C   LIG    1       -3.917   3.392   8.346  0.00  0.00    +0.230 C 
ATOM     20  C   LIG    1       -2.408   3.411   8.533  0.00  0.00    +0.000 C 
ATOM     21  C   LIG    1       -1.662   3.493   7.210  0.00  0.00    +0.220 C 
ATOM     22  O   LIG    1       -1.933   4.732   6.552  0.00  0.00    -0.300 OA
ATOM     23  C   LIG    1       -3.068   4.771   5.800  0.00  0.00    +0.130 A 
ENDBRANCH   8  13
BRANCH   4  24
ATOM     24  C   LIG    1       -2.611   3.719  -1.252  0.00  0.00    +0.220 A 
ATOM     25  C   LIG    1       -3.552   2.707  -1.345  0.00  0.00    -0.160 A 
ATOM     26  C   LIG    1       -4.818   3.020  -1.816  0.00  0.00    +0.400 A 
ATOM     27  N   LIG    1       -5.087   4.268  -2.160  0.00  0.00    -0.560 NA
ATOM     28  C   LIG    1       -4.164   5.213  -2.059  0.00  0.00    +0.580 A 
ATOM     29  N   LIG    1       -2.947   4.948  -1.608  0.00  0.00    -0.560 NA
BRANCH  28  30
ATOM     30  N   LIG    1       -4.480   6.509  -2.429  0.00  0.00    -0.810 N 
ATOM     31  H   LIG    1       -3.813   7.209  -2.360  0.00  0.00    +0.420 HD
ATOM     32  H   LIG    1       -5.369   6.716  -2.757  0.00  0.00    +0.420 HD
ENDBRANCH  28  30
ENDBRANCH   4  24
TORSDOF 3
