REMARK  Name = ZINCtj00000rmTBZ.0
REMARK                            x       y       z     vdW  Elec       q    Type
REMARK                         _______ _______ _______ _____ _____    ______ ____
ROOT
ATOM      1  C   LIG    1       -6.083   3.792  -2.501  0.00  0.00    +0.350 C 
ATOM      2  N   LIG    1       -4.633   3.596  -2.366  0.00  0.00    -0.400 N 
ATOM      3  C   LIG    1       -4.163   2.540  -3.300  0.00  0.00    +0.290 C 
ATOM      4  C   LIG    1       -2.837   2.035  -2.684  0.00  0.00    +0.120 C 
ATOM      5  C   LIG    1       -2.947   2.381  -1.197  0.00  0.00    -0.120 C 
ATOM      6  C   LIG    1       -2.619   1.263  -0.216  0.00  0.00    +0.330 C 
ATOM      7  N   LIG    1       -1.229   1.750  -0.218  0.00  0.00    -0.640 N 
ATOM      8  C   LIG    1       -0.014   1.212   0.009  0.00  0.00    +0.600 C 
ATOM      9  O   LIG    1        0.095   0.015   0.195  0.00  0.00    -0.490 OA
ATOM     10  C   LIG    1       -1.747   3.083  -0.570  0.00  0.00    +0.290 C 
ATOM     11  C   LIG    1       -4.304   3.069  -1.013  0.00  0.00    +0.320 C 
ATOM     12  H   LIG    1       -4.142   4.461  -2.536  0.00  0.00    +0.430 HD
ENDROOT
BRANCH   8  13
ATOM     13  C   LIG    1        1.183   2.074   0.024  0.00  0.00    -0.130 A 
ATOM     14  C   LIG    1        1.053   3.464  -0.053  0.00  0.00    +0.030 A 
ATOM     15  C   LIG    1        2.175   4.264  -0.033  0.00  0.00    +0.020 A 
ATOM     16  C   LIG    1        3.438   3.700   0.052  0.00  0.00    +0.050 A 
ATOM     17  C   LIG    1        3.580   2.325   0.123  0.00  0.00    +0.060 A 
ATOM     18  O   LIG    1        4.822   1.765   0.206  0.00  0.00    -0.310 OA
ATOM     19  C   LIG    1        5.248   1.018  -0.935  0.00  0.00    +0.230 C 
ATOM     20  C   LIG    1        4.722  -0.408  -0.874  0.00  0.00    +0.000 C 
ATOM     21  C   LIG    1        3.205  -0.469  -0.956  0.00  0.00    +0.230 C 
ATOM     22  O   LIG    1        2.610   0.156   0.183  0.00  0.00    -0.300 OA
ATOM     23  C   LIG    1        2.459   1.507   0.110  0.00  0.00    +0.130 A 
ENDBRANCH   8  13
BRANCH   4  24
ATOM     24  C   LIG    1       -1.663   2.749  -3.305  0.00  0.00    +0.220 A 
ATOM     25  C   LIG    1       -1.798   4.048  -3.768  0.00  0.00    -0.190 A 
ATOM     26  C   LIG    1       -0.694   4.668  -4.332  0.00  0.00    +0.400 A 
ATOM     27  N   LIG    1        0.448   4.006  -4.410  0.00  0.00    -0.560 NA
ATOM     28  C   LIG    1        0.543   2.764  -3.958  0.00  0.00    +0.590 A 
ATOM     29  N   LIG    1       -0.491   2.145  -3.409  0.00  0.00    -0.550 NA
BRANCH  28  30
ATOM     30  N   LIG    1        1.754   2.100  -4.056  0.00  0.00    -0.810 N 
ATOM     31  H   LIG    1        1.836   1.191  -3.728  0.00  0.00    +0.420 HD
ATOM     32  H   LIG    1        2.520   2.544  -4.452  0.00  0.00    +0.420 HD
ENDBRANCH  28  30
ENDBRANCH   4  24
TORSDOF 3
