REMARK  Name = ZINCrH00000No4vw.0
REMARK                            x       y       z     vdW  Elec       q    Type
REMARK                         _______ _______ _______ _____ _____    ______ ____
ROOT
ATOM      1  C   LIG    1        3.705  -0.682  -0.024  0.00  0.00    +0.180 A 
ATOM      2  C   LIG    1        3.762  -2.014   0.099  0.00  0.00    -0.020 A 
ATOM      3  S   LIG    1        5.485  -2.426   0.095  0.00  0.00    -0.010 S 
ATOM      4  C   LIG    1        6.036  -0.749  -0.074  0.00  0.00    +0.360 A 
ATOM      5  N   LIG    1        7.270  -0.320  -0.144  0.00  0.00    -0.550 NA
ATOM      6  N   LIG    1        4.888   0.001  -0.122  0.00  0.00    -0.360 N 
ENDROOT
BRANCH   1  13
ATOM      7  F   LIG    1        2.953   0.987  -2.170  0.00  0.00    -0.130 F 
ATOM      8  C   LIG    1        2.083   0.844  -1.146  0.00  0.00    +0.140 A 
ATOM      9  C   LIG    1        0.870   1.504  -1.171  0.00  0.00    -0.020 A 
ATOM     10  C   LIG    1       -0.022   1.357  -0.123  0.00  0.00    +0.070 A 
ATOM     11  C   LIG    1        0.294   0.550   0.955  0.00  0.00    +0.010 A 
ATOM     12  C   LIG    1        1.503  -0.115   0.993  0.00  0.00    +0.080 A 
ATOM     13  C   LIG    1        2.408   0.027  -0.059  0.00  0.00    -0.070 A 
ENDBRANCH   1  13
BRANCH   6  14
ATOM     14  N   LIG    1        4.925   1.394  -0.260  0.00  0.00    -0.250 NA
ATOM     15  C   LIG    1        6.057   1.997  -0.465  0.00  0.00    +0.310 C 
BRANCH  15  16
ATOM     16  C   LIG    1        6.118   3.470  -0.468  0.00  0.00    -0.110 A 
ATOM     17  C   LIG    1        7.333   4.133  -0.682  0.00  0.00    +0.100 A 
ATOM     18  C   LIG    1        7.335   5.516  -0.680  0.00  0.00    -0.040 A 
ATOM     19  C   LIG    1        6.150   6.195  -0.458  0.00  0.00    +0.270 A 
ATOM     20  N   LIG    1        5.020   5.545  -0.253  0.00  0.00    -0.490 NA
ATOM     21  C   LIG    1        4.965   4.229  -0.251  0.00  0.00    +0.300 A 
ENDBRANCH  15  16
ENDBRANCH   6  14
BRANCH   5  22
ATOM     22  C   LIG    1        8.382  -1.272  -0.081  0.00  0.00    +0.230 C 
BRANCH  22  23
ATOM     23  C   LIG    1        9.134  -1.266  -1.413  0.00  0.00    +0.160 C 
ATOM     24  C   LIG    1       10.271  -2.319  -1.394  0.00  0.00    +0.020 C 
ATOM     25  C   LIG    1       10.437  -2.602  -2.912  0.00  0.00    +0.010 C 
ATOM     26  C   LIG    1        8.990  -2.461  -3.432  0.00  0.00    +0.190 C 
ATOM     27  O   LIG    1        8.263  -1.675  -2.480  0.00  0.00    -0.370 OA
ENDBRANCH  22  23
ENDBRANCH   5  22
TORSDOF 5
