REMARK  Name = ZINCpk00000eaWU8.0
REMARK                            x       y       z     vdW  Elec       q    Type
REMARK                         _______ _______ _______ _____ _____    ______ ____
ROOT
ATOM      1  N   LIG    1        2.115   0.844   0.844  0.00  0.00    -0.600 N 
ATOM      2  C   LIG    1        1.494   1.879  -0.002  0.00  0.00    +0.280 C 
ATOM      3  C   LIG    1       -0.019   1.547   0.011  0.00  0.00    +0.010 C 
ATOM      4  C   LIG    1        0.002  -0.004   0.002  0.00  0.00    +0.090 C 
ATOM      5  C   LIG    1        1.239  -0.338   0.862  0.00  0.00    +0.280 C 
ENDROOT
BRANCH   1  14
ATOM      6  C   LIG    1        5.564  -1.042   3.779  0.00  0.00    +0.160 C 
ATOM      7  C   LIG    1        5.018   0.081   2.936  0.00  0.00    +0.270 A 
ATOM      8  N   LIG    1        5.695   1.205   2.825  0.00  0.00    -0.510 NA
ATOM      9  C   LIG    1        5.237   2.220   2.084  0.00  0.00    +0.490 A 
ATOM     10  N   LIG    1        5.723   3.428   1.821  0.00  0.00    -0.540 NA
ATOM     11  C   LIG    1        4.891   4.083   1.021  0.00  0.00    +0.490 A 
ATOM     12  N   LIG    1        3.856   3.325   0.749  0.00  0.00    -0.350 NA
ATOM     13  N   LIG    1        4.047   2.112   1.421  0.00  0.00    -0.360 N 
ATOM     14  C   LIG    1        3.315   0.963   1.509  0.00  0.00    +0.510 A 
ATOM     15  C   LIG    1        3.798  -0.075   2.282  0.00  0.00    -0.170 A 
ENDBRANCH   1  14
BRANCH   4  16
ATOM     16  C   LIG    1       -1.250  -0.558   0.632  0.00  0.00    -0.240 A 
ATOM     17  C   LIG    1       -2.157  -1.360   0.028  0.00  0.00    +0.240 A 
ATOM     18  N   LIG    1       -3.127  -1.633   0.926  0.00  0.00    -0.360 N 
ATOM     19  N   LIG    1       -2.805  -0.977   2.121  0.00  0.00    -0.290 NA
ATOM     20  C   LIG    1       -1.677  -0.338   1.946  0.00  0.00    +0.240 A 
BRANCH  18  21
ATOM     21  C   LIG    1       -4.307  -2.469   0.693  0.00  0.00    +0.250 C 
ATOM     22  C   LIG    1       -3.939  -3.620  -0.245  0.00  0.00    +0.050 C 
ATOM     23  C   LIG    1       -5.412  -1.625   0.055  0.00  0.00    +0.040 C 
ENDBRANCH  18  21
ENDBRANCH   4  16
BRANCH   3  24
ATOM     24  C   LIG    1       -0.711   2.093  -1.240  0.00  0.00    +0.190 C 
BRANCH  24  25
ATOM     25  O   LIG    1       -0.816   3.515  -1.144  0.00  0.00    -0.570 OA
ATOM     26  H   LIG    1       -1.245   3.930  -1.905  0.00  0.00    +0.380 HD
ENDBRANCH  24  25
ENDBRANCH   3  24
TORSDOF 5
