REMARK  Name = ZINCrg00000B8Cya.0
REMARK                            x       y       z     vdW  Elec       q    Type
REMARK                         _______ _______ _______ _____ _____    ______ ____
ROOT
ATOM      1  C   LIG    1        2.746  -3.410  -4.970  0.00  0.00    -0.170 C 
ATOM      2  C   LIG    1        2.436  -3.204  -6.454  0.00  0.00    +0.050 C 
ATOM      3  C   LIG    1        1.541  -4.108  -5.604  0.00  0.00    +0.050 C 
ENDROOT
BRANCH   1   4
ATOM      4  C   LIG    1        3.957  -4.274  -4.615  0.00  0.00    +0.310 C 
BRANCH   4   6
ATOM      5  C   LIG    1        6.381  -4.046  -4.519  0.00  0.00    +0.570 C 
ATOM      6  N   LIG    1        5.179  -3.476  -4.737  0.00  0.00    -0.730 N 
ATOM      7  H   LIG    1        5.124  -2.537  -4.974  0.00  0.00    +0.400 HD
ATOM      8  O   LIG    1        6.458  -5.241  -4.308  0.00  0.00    -0.540 OA
BRANCH   5  12
ATOM      9  C   LIG    1        9.816  -1.634  -4.577  0.00  0.00    +0.430 A 
ATOM     10  C   LIG    1        9.975  -3.012  -4.443  0.00  0.00    -0.110 A 
ATOM     11  C   LIG    1        8.868  -3.817  -4.422  0.00  0.00    +0.180 A 
ATOM     12  C   LIG    1        7.603  -3.219  -4.536  0.00  0.00    -0.260 A 
ATOM     13  C   LIG    1        7.519  -1.833  -4.673  0.00  0.00    +0.350 A 
ATOM     14  N   LIG    1        8.609  -1.094  -4.683  0.00  0.00    -0.550 NA
BRANCH   9  15
ATOM     15  N   LIG    1       10.933  -0.816  -4.598  0.00  0.00    -0.840 N 
ATOM     16  H   LIG    1       10.828   0.148  -4.617  0.00  0.00    +0.410 HD
ATOM     17  H   LIG    1       11.820  -1.208  -4.594  0.00  0.00    +0.410 HD
ENDBRANCH   9  15
ENDBRANCH   5  12
ENDBRANCH   4   6
ENDBRANCH   1   4
BRANCH   1  18
ATOM     18  C   LIG    1        2.467  -2.242  -4.021  0.00  0.00    +0.310 C 
BRANCH  18  19
ATOM     19  N   LIG    1        1.591  -2.693  -2.937  0.00  0.00    -0.730 N 
ATOM     20  H   LIG    1        1.344  -3.629  -2.870  0.00  0.00    +0.400 HD
ATOM     21  C   LIG    1        1.127  -1.807  -2.033  0.00  0.00    +0.520 C 
ATOM     22  O   LIG    1        1.360  -0.625  -2.168  0.00  0.00    -0.540 OA
BRANCH  21  23
ATOM     23  C   LIG    1        0.319  -2.286  -0.855  0.00  0.00    +0.000 C 
ATOM     24  C   LIG    1        0.058  -1.112   0.091  0.00  0.00    +0.050 C 
ATOM     25  C   LIG    1       -0.848  -1.587   1.241  0.00  0.00    -0.040 C 
ATOM     26  C   LIG    1       -0.295  -2.943   1.736  0.00  0.00    +0.020 C 
ATOM     27  C   LIG    1       -0.946  -4.022   0.851  0.00  0.00    +0.020 C 
ATOM     28  C   LIG    1       -1.864  -3.271  -0.141  0.00  0.00    +0.010 C 
ATOM     29  C   LIG    1       -2.215  -1.958   0.608  0.00  0.00    +0.160 C 
ATOM     30  C   LIG    1       -1.004  -2.873  -1.353  0.00  0.00    +0.040 C 
BRANCH  29  31
ATOM     31  O   LIG    1       -2.647  -0.948  -0.306  0.00  0.00    -0.560 OA
ATOM     32  H   LIG    1       -2.878  -0.109   0.116  0.00  0.00    +0.380 HD
ENDBRANCH  29  31
ENDBRANCH  21  23
ENDBRANCH  18  19
ENDBRANCH   1  18
TORSDOF 8
