REMARK  Name = ZINCrm000000GjsJ.1
REMARK                            x       y       z     vdW  Elec       q    Type
REMARK                         _______ _______ _______ _____ _____    ______ ____
ROOT
ATOM      1  C   LIG    1       -0.050   3.596   1.532  0.00  0.00    +0.520 C 
ATOM      2  N   LIG    1        0.112   2.316   1.142  0.00  0.00    -0.700 N 
ATOM      3  H   LIG    1       -0.403   1.611   1.565  0.00  0.00    +0.420 HD
ATOM      4  O   LIG    1        0.594   4.478   1.004  0.00  0.00    -0.500 OA
ENDROOT
BRANCH   1   9
ATOM      5  C   LIG    1       -2.383   7.160   3.714  0.00  0.00    +0.160 C 
ATOM      6  C   LIG    1       -0.999   7.622   3.188  0.00  0.00    +0.070 C 
ATOM      7  C   LIG    1       -0.468   6.369   2.459  0.00  0.00    +0.310 C 
ATOM      8  N   LIG    1       -1.185   5.209   3.008  0.00  0.00    -0.590 N 
ATOM      9  C   LIG    1       -1.023   3.929   2.617  0.00  0.00    +0.530 C 
ATOM     10  O   LIG    1       -1.667   3.047   3.146  0.00  0.00    -0.500 OA
ATOM     11  C   LIG    1       -2.105   5.676   4.060  0.00  0.00    +0.310 C 
BRANCH   5  12
ATOM     12  N   LIG    1       -2.771   7.917   4.912  0.00  0.00    -0.380 N 
ATOM     13  H   LIG    1       -2.035   7.857   5.600  0.00  0.00    +0.420 HD
BRANCH  12  15
ATOM     14  C   LIG    1       -4.181   9.424   3.593  0.00  0.00    +0.080 C 
ATOM     15  C   LIG    1       -2.993   9.323   4.552  0.00  0.00    +0.250 C 
ENDBRANCH  12  15
BRANCH  12  16
ATOM     16  C   LIG    1       -4.008   7.353   5.468  0.00  0.00    +0.250 C 
ATOM     17  C   LIG    1       -4.354   8.070   6.774  0.00  0.00    +0.080 C 
ENDBRANCH  12  16
ENDBRANCH   5  12
ENDBRANCH   1   9
BRANCH   2  18
ATOM     18  C   LIG    1        1.065   1.990   0.079  0.00  0.00    +0.270 C 
BRANCH  18  19
ATOM     19  C   LIG    1        1.055   0.480  -0.170  0.00  0.00    +0.000 C 
ATOM     20  C   LIG    1       -0.314   0.061  -0.712  0.00  0.00    +0.040 C 
ATOM     21  C   LIG    1       -0.549   0.743  -2.063  0.00  0.00    +0.060 C 
ATOM     22  C   LIG    1        0.590   0.377  -3.017  0.00  0.00    +0.250 C 
ATOM     23  N   LIG    1        1.869   0.828  -2.455  0.00  0.00    -0.380 N 
ATOM     24  H   LIG    1        1.827   1.821  -2.281  0.00  0.00    +0.420 HD
ATOM     25  C   LIG    1        2.134   0.124  -1.195  0.00  0.00    +0.280 C 
BRANCH  23  26
ATOM     26  C   LIG    1        2.949   0.544  -3.410  0.00  0.00    +0.160 C 
ATOM     27  C   LIG    1        4.293   1.060  -2.856  0.00  0.00    +0.040 C 
ATOM     28  C   LIG    1        5.037   1.596  -4.105  0.00  0.00    +0.060 C 
ATOM     29  C   LIG    1        3.898   2.244  -4.930  0.00  0.00    +0.040 C 
ATOM     30  C   LIG    1        2.698   1.296  -4.728  0.00  0.00    +0.040 C 
ENDBRANCH  23  26
ENDBRANCH  18  19
ENDBRANCH   2  18
TORSDOF 7
