REMARK  Name = ZINCrm000000GjsJ.0
REMARK                            x       y       z     vdW  Elec       q    Type
REMARK                         _______ _______ _______ _____ _____    ______ ____
ROOT
ATOM      1  C   LIG    1       -2.076  -5.542  -4.274  0.00  0.00    +0.520 C 
ATOM      2  N   LIG    1       -2.140  -4.206  -4.105  0.00  0.00    -0.700 N 
ATOM      3  H   LIG    1       -2.546  -3.650  -4.788  0.00  0.00    +0.420 HD
ATOM      4  O   LIG    1       -1.568  -6.238  -3.419  0.00  0.00    -0.500 OA
ENDROOT
BRANCH   1   9
ATOM      5  C   LIG    1       -3.333  -9.678  -6.326  0.00  0.00    +0.160 C 
ATOM      6  C   LIG    1       -2.154  -9.868  -5.335  0.00  0.00    +0.070 C 
ATOM      7  C   LIG    1       -1.974  -8.457  -4.735  0.00  0.00    +0.310 C 
ATOM      8  N   LIG    1       -2.565  -7.502  -5.683  0.00  0.00    -0.600 N 
ATOM      9  C   LIG    1       -2.630  -6.166  -5.514  0.00  0.00    +0.530 C 
ATOM     10  O   LIG    1       -3.138  -5.470  -6.368  0.00  0.00    -0.500 OA
ATOM     11  C   LIG    1       -3.070  -8.245  -6.851  0.00  0.00    +0.300 C 
BRANCH   5  12
ATOM     12  N   LIG    1       -3.266 -10.660  -7.417  0.00  0.00    -0.380 N 
ATOM     13  H   LIG    1       -2.348 -10.637  -7.834  0.00  0.00    +0.420 HD
BRANCH  12  15
ATOM     14  C   LIG    1       -3.337 -13.039  -7.994  0.00  0.00    +0.080 C 
ATOM     15  C   LIG    1       -3.528 -12.003  -6.884  0.00  0.00    +0.240 C 
ENDBRANCH  12  15
BRANCH  12  16
ATOM     16  C   LIG    1       -4.274 -10.331  -8.434  0.00  0.00    +0.250 C 
ATOM     17  C   LIG    1       -5.652 -10.242  -7.775  0.00  0.00    +0.080 C 
ENDBRANCH  12  16
ENDBRANCH   5  12
ENDBRANCH   1   9
BRANCH   2  18
ATOM     18  C   LIG    1       -1.597  -3.595  -2.889  0.00  0.00    +0.310 C 
BRANCH  18  19
ATOM     19  C   LIG    1       -1.797  -2.079  -2.949  0.00  0.00    -0.010 C 
ATOM     20  C   LIG    1       -3.294  -1.759  -2.928  0.00  0.00    +0.040 C 
ATOM     21  C   LIG    1       -3.481  -0.239  -2.908  0.00  0.00    +0.070 C 
ATOM     22  C   LIG    1       -2.747   0.344  -1.699  0.00  0.00    +0.260 C 
ATOM     23  N   LIG    1       -1.317   0.027  -1.790  0.00  0.00    -0.380 N 
ATOM     24  H   LIG    1       -0.950   0.381  -2.661  0.00  0.00    +0.420 HD
ATOM     25  C   LIG    1       -1.127  -1.428  -1.736  0.00  0.00    +0.270 C 
BRANCH  23  26
ATOM     26  C   LIG    1       -0.605   0.654  -0.669  0.00  0.00    +0.160 C 
ATOM     27  C   LIG    1       -0.792   2.181  -0.714  0.00  0.00    +0.050 C 
ATOM     28  C   LIG    1        0.616   2.793  -0.863  0.00  0.00    +0.040 C 
ATOM     29  C   LIG    1        1.564   1.706  -0.298  0.00  0.00    +0.040 C 
ATOM     30  C   LIG    1        0.910   0.392  -0.792  0.00  0.00    +0.050 C 
ENDBRANCH  23  26
ENDBRANCH  18  19
ENDBRANCH   2  18
TORSDOF 7
