REMARK  Name = ZINCpk00001AZiXZ.0
REMARK                            x       y       z     vdW  Elec       q    Type
REMARK                         _______ _______ _______ _____ _____    ______ ____
ROOT
ATOM      1  C   LIG    1        2.498  -1.406   6.312  0.00  0.00    +0.610 C 
ATOM      2  N   LIG    1        2.848  -0.569   5.316  0.00  0.00    -0.720 N 
ATOM      3  H   LIG    1        3.716  -0.655   4.892  0.00  0.00    +0.410 HD
ATOM      4  O   LIG    1        1.409  -1.298   6.844  0.00  0.00    -0.540 OA
ENDROOT
BRANCH   1  10
ATOM      5  C   LIG    1        3.510  -5.401  11.049  0.00  0.00    +0.130 C 
ATOM      6  C   LIG    1        3.331  -5.159   9.774  0.00  0.00    -0.220 C 
ATOM      7  C   LIG    1        1.973  -4.758   9.232  0.00  0.00    +0.310 C 
ATOM      8  O   LIG    1        2.114  -3.509   8.540  0.00  0.00    -0.260 OA
ATOM      9  C   LIG    1        3.214  -3.378   7.761  0.00  0.00    +0.350 A 
ATOM     10  C   LIG    1        3.432  -2.450   6.756  0.00  0.00    -0.310 A 
ATOM     11  C   LIG    1        4.724  -2.703   6.233  0.00  0.00    +0.310 A 
ATOM     12  N   LIG    1        5.239  -3.706   6.889  0.00  0.00    -0.280 NA
ATOM     13  N   LIG    1        4.319  -4.150   7.837  0.00  0.00    -0.390 N 
ATOM     14  C   LIG    1        4.474  -5.268   8.780  0.00  0.00    +0.380 C 
ENDBRANCH   1  10
BRANCH   2  15
ATOM     15  C   LIG    1        1.916   0.472   4.873  0.00  0.00    +0.340 C 
ATOM     16  C   LIG    1        2.069   1.706   5.766  0.00  0.00    +0.060 C 
BRANCH  15  17
ATOM     17  C   LIG    1        2.221   0.845   3.445  0.00  0.00    +0.170 A 
ATOM     18  N   LIG    1        3.405   1.066   2.935  0.00  0.00    -0.280 NA
ATOM     19  N   LIG    1        3.293   1.361   1.685  0.00  0.00    -0.290 NA
ATOM     20  C   LIG    1        2.040   1.341   1.347  0.00  0.00    +0.180 A 
ATOM     21  C   LIG    1        1.427   1.618  -0.003  0.00  0.00    +0.170 C 
ATOM     22  C   LIG    1       -0.013   1.086   0.008  0.00  0.00    -0.020 C 
ATOM     23  C   LIG    1       -0.726   1.580   1.270  0.00  0.00    +0.050 C 
ATOM     24  C   LIG    1       -0.131   0.887   2.501  0.00  0.00    +0.290 C 
ATOM     25  C   LIG    1       -0.754   1.593  -1.230  0.00  0.00    +0.030 C 
ATOM     26  N   LIG    1        1.325   1.014   2.454  0.00  0.00    -0.460 N 
ENDBRANCH  15  17
ENDBRANCH   2  15
TORSDOF 3
