REMARK  Name = ZINCqH0000051EXH.0
REMARK                            x       y       z     vdW  Elec       q    Type
REMARK                         _______ _______ _______ _____ _____    ______ ____
ROOT
ATOM      1  O   LIG    1       -2.227  -2.679   0.222  0.00  0.00    -0.510 OA
ATOM      2  C   LIG    1       -1.188  -2.055   0.271  0.00  0.00    +0.510 C 
ATOM      3  C   LIG    1        0.090  -2.766   0.636  0.00  0.00    +0.340 C 
ATOM      4  N   LIG    1        1.220  -2.082  -0.010  0.00  0.00    -0.560 N 
ATOM      5  C   LIG    1        1.225  -0.678  -0.010  0.00  0.00    +0.110 A 
ATOM      6  C   LIG    1        2.411   0.032  -0.019  0.00  0.00    +0.060 A 
ATOM      7  C   LIG    1        2.382   1.415  -0.013  0.00  0.00    +0.010 A 
ATOM      8  C   LIG    1        1.173   2.086   0.002  0.00  0.00    +0.030 A 
ATOM      9  C   LIG    1       -0.017   1.381   0.010  0.00  0.00    +0.010 A 
ATOM     10  C   LIG    1        0.002  -0.004   0.002  0.00  0.00    +0.130 A 
ATOM     11  C   LIG    1        2.220  -2.781  -0.584  0.00  0.00    +0.520 C 
ATOM     12  O   LIG    1        3.142  -2.197  -1.112  0.00  0.00    -0.480 OA
ATOM     13  N   LIG    1       -1.190  -0.736  -0.000  0.00  0.00    -0.660 N 
ATOM     14  H   LIG    1       -2.027  -0.289  -0.199  0.00  0.00    +0.420 HD
ENDROOT
BRANCH  11  15
ATOM     15  C   LIG    1        2.191  -4.288  -0.570  0.00  0.00    +0.270 C 
BRANCH  15  16
ATOM     16  O   LIG    1        3.369  -4.801  -1.246  0.00  0.00    -0.310 OA
BRANCH  16  17
ATOM     17  C   LIG    1        3.496  -6.140  -1.321  0.00  0.00    +0.520 C 
ATOM     18  O   LIG    1        2.646  -6.859  -0.835  0.00  0.00    -0.470 OA
BRANCH  17  19
ATOM     19  C   LIG    1        4.668  -6.733  -1.994  0.00  0.00    -0.080 A 
ATOM     20  C   LIG    1        5.829  -7.012  -1.266  0.00  0.00    +0.010 A 
ATOM     21  C   LIG    1        6.920  -7.572  -1.902  0.00  0.00    +0.070 A 
ATOM     22  C   LIG    1        6.870  -7.847  -3.256  0.00  0.00    +0.100 A 
ATOM     23  C   LIG    1        5.726  -7.569  -3.985  0.00  0.00    -0.030 A 
ATOM     24 CL   LIG    1        5.676  -7.919  -5.684  0.00  0.00    -0.020 Cl
ATOM     25 CL   LIG    1        5.896  -6.660   0.432  0.00  0.00    -0.030 Cl
ATOM     26  C   LIG    1        4.625  -7.014  -3.362  0.00  0.00    +0.010 A 
ATOM     27 CL   LIG    1        3.191  -6.666  -4.277  0.00  0.00    -0.010 Cl
ENDBRANCH  17  19
ENDBRANCH  16  17
ENDBRANCH  15  16
ENDBRANCH  11  15
TORSDOF 4
