REMARK  Name = ZINCpk00001AZj6C.0
REMARK                            x       y       z     vdW  Elec       q    Type
REMARK                         _______ _______ _______ _____ _____    ______ ____
ROOT
ATOM      1  C   LIG    1       -0.116   7.857  -0.664  0.00  0.00    +0.300 C 
ENDROOT
BRANCH   1   3
ATOM      2  C   LIG    1       -0.406  10.212  -1.219  0.00  0.00    +0.530 C 
ATOM      3  N   LIG    1       -0.265   8.940  -1.640  0.00  0.00    -0.730 N 
ATOM      4  H   LIG    1       -0.263   8.741  -2.589  0.00  0.00    +0.410 HD
ATOM      5  O   LIG    1       -0.409  10.461  -0.032  0.00  0.00    -0.530 OA
BRANCH   2   9
ATOM      6  C   LIG    1        0.467  14.354  -3.272  0.00  0.00    +0.570 C 
ATOM      7  N   LIG    1        0.233  13.172  -2.668  0.00  0.00    -0.650 N 
ATOM      8  C   LIG    1       -0.664  12.723  -1.586  0.00  0.00    +0.320 C 
ATOM      9  C   LIG    1       -0.561  11.325  -2.222  0.00  0.00    -0.020 C 
ATOM     10  C   LIG    1        0.772  11.805  -2.826  0.00  0.00    +0.310 C 
ATOM     11  O   LIG    1       -0.146  15.346  -2.926  0.00  0.00    -0.540 OA
BRANCH   6  13
ATOM     12  C   LIG    1        1.694  15.611  -4.947  0.00  0.00    +0.150 C 
ATOM     13  C   LIG    1        1.463  14.445  -4.351  0.00  0.00    -0.080 C 
ENDBRANCH   6  13
ENDBRANCH   2   9
ENDBRANCH   1   3
BRANCH   1  14
ATOM     14  C   LIG    1        0.026   6.523  -1.400  0.00  0.00    +0.020 C 
BRANCH  14  15
ATOM     15  C   LIG    1       -1.252   6.220  -2.139  0.00  0.00    +0.460 C 
ATOM     16  O   LIG    1       -2.187   5.728  -1.553  0.00  0.00    -0.490 OA
BRANCH  15  17
ATOM     17  O   LIG    1       -1.351   6.495  -3.449  0.00  0.00    -0.360 OA
ATOM     18  C   LIG    1       -2.611   6.176  -4.097  0.00  0.00    +0.250 C 
ENDBRANCH  15  17
ENDBRANCH  14  15
BRANCH  14  19
ATOM     19  C   LIG    1        0.307   5.410  -0.389  0.00  0.00    +0.130 C 
BRANCH  19  20
ATOM     20  C   LIG    1        0.591   4.125  -1.122  0.00  0.00    -0.090 A 
ATOM     21  C   LIG    1       -0.423   3.209  -1.331  0.00  0.00    +0.040 A 
ATOM     22  C   LIG    1       -0.164   2.031  -2.005  0.00  0.00    +0.020 A 
ATOM     23  C   LIG    1        1.113   1.767  -2.470  0.00  0.00    -0.030 A 
ATOM     24  C   LIG    1        2.129   2.681  -2.255  0.00  0.00    +0.030 A 
ATOM     25 CL   LIG    1        1.440   0.287  -3.315  0.00  0.00    -0.070 Cl
ATOM     26  C   LIG    1        1.867   3.862  -1.587  0.00  0.00    +0.030 A 
ENDBRANCH  19  20
ENDBRANCH  14  19
ENDBRANCH   1  14
TORSDOF 8
