REMARK  Name = ZINCrD00000F5Lra.0
REMARK                            x       y       z     vdW  Elec       q    Type
REMARK                         _______ _______ _______ _____ _____    ______ ____
ROOT
ATOM      1  N   LIG    1       -1.348  -3.728  -1.810  0.00  0.00    -0.570 N 
ENDROOT
BRANCH   1   2
ATOM      2  C   LIG    1       -1.982  -4.610  -0.949  0.00  0.00    +0.360 A 
ATOM      3  C   LIG    1       -1.347  -5.019   0.225  0.00  0.00    +0.000 A 
ATOM      4  C   LIG    1       -2.016  -5.900   1.054  0.00  0.00    +0.120 A 
ATOM      5  C   LIG    1       -3.292  -6.329   0.664  0.00  0.00    +0.070 A 
ATOM      6  N   LIG    1       -3.818  -5.886  -0.472  0.00  0.00    -0.160 NA
ATOM      7  N   LIG    1       -3.196  -5.064  -1.237  0.00  0.00    -0.280 NA
BRANCH   5   8
ATOM      8  C   LIG    1       -4.026  -7.242   1.488  0.00  0.00    +0.270 C 
ATOM      9  N   LIG    1       -4.608  -7.966   2.141  0.00  0.00    -0.390 NA
ENDBRANCH   5   8
ENDBRANCH   1   2
BRANCH   1  10
ATOM     10  C   LIG    1        0.030  -3.308  -1.545  0.00  0.00    +0.440 C 
BRANCH  10  14
ATOM     11  C   LIG    1        0.031  -0.377   2.515  0.00  0.00    +0.190 C 
ATOM     12  C   LIG    1        0.023  -0.816   1.074  0.00  0.00    +0.280 A 
ATOM     13  N   LIG    1        0.035  -2.052   0.646  0.00  0.00    -0.530 NA
ATOM     14  C   LIG    1        0.022  -2.070  -0.686  0.00  0.00    +0.200 A 
ATOM     15  N   LIG    1       -0.003  -0.840  -1.127  0.00  0.00    -0.300 NA
ATOM     16  N   LIG    1        0.002  -0.004   0.002  0.00  0.00    -0.380 N 
ATOM     17  C   LIG    1       -0.018   1.461   0.010  0.00  0.00    +0.350 C 
ENDBRANCH  10  14
ENDBRANCH   1  10
BRANCH   1  18
ATOM     18  C   LIG    1       -2.057  -3.214  -2.984  0.00  0.00    +0.300 C 
BRANCH  18  19
ATOM     19  C   LIG    1       -1.816  -4.146  -4.173  0.00  0.00    -0.070 C 
ATOM     20  C   LIG    1       -0.317  -4.215  -4.472  0.00  0.00    +0.010 C 
ATOM     21  C   LIG    1       -0.076  -5.147  -5.661  0.00  0.00    +0.010 C 
ATOM     22  C   LIG    1       -0.817  -4.611  -6.888  0.00  0.00    -0.060 C 
ATOM     23  C   LIG    1       -2.316  -4.542  -6.589  0.00  0.00    +0.020 C 
ATOM     24  C   LIG    1       -0.299  -3.211  -7.224  0.00  0.00    +0.020 C 
ATOM     25  C   LIG    1       -0.576  -5.543  -8.077  0.00  0.00    +0.010 C 
ATOM     26  C   LIG    1       -2.334  -5.546  -3.837  0.00  0.00    +0.030 C 
ATOM     27  C   LIG    1       -2.557  -3.610  -5.400  0.00  0.00    +0.010 C 
ENDBRANCH  18  19
ENDBRANCH   1  18
TORSDOF 6
