REMARK  Name = ZINCpe000000Z5zp.0
REMARK                            x       y       z     vdW  Elec       q    Type
REMARK                         _______ _______ _______ _____ _____    ______ ____
ROOT
ATOM      1  C   LIG    1       -3.860   5.432   0.067  0.00  0.00    +0.010 A 
ATOM      2  N   LIG    1       -2.584   5.102   0.058  0.00  0.00    -0.260 NA
ATOM      3  N   LIG    1       -2.458   3.824   0.045  0.00  0.00    -0.250 N 
ATOM      4  C   LIG    1       -3.682   3.234   0.053  0.00  0.00    +0.180 A 
ATOM      5  C   LIG    1       -4.602   4.227   0.067  0.00  0.00    +0.020 A 
ENDROOT
BRANCH   3   6
ATOM      6  C   LIG    1       -1.236   3.138   0.030  0.00  0.00    +0.200 A 
ATOM      7  C   LIG    1       -1.218   1.749   0.017  0.00  0.00    +0.030 A 
ATOM      8  C   LIG    1       -0.013   1.076   0.008  0.00  0.00    +0.140 A 
ATOM      9  C   LIG    1        1.176   1.783   0.000  0.00  0.00    -0.050 A 
ATOM     10  C   LIG    1        1.161   3.166   0.008  0.00  0.00    +0.140 A 
ATOM     11  C   LIG    1       -0.041   3.845   0.023  0.00  0.00    +0.050 A 
BRANCH   9  12
ATOM     12  N   LIG    1        2.466   1.058  -0.016  0.00  0.00    +0.030 N 
ATOM     13  O   LIG    1        3.514   1.679  -0.022  0.00  0.00    -0.150 OA
ATOM     14  O   LIG    1        2.481  -0.160  -0.022  0.00  0.00    -0.150 OA
ENDBRANCH   9  12
ENDBRANCH   3   6
BRANCH   1  16
ATOM     15  O   LIG    1       -5.616   6.972   0.092  0.00  0.00    -0.520 OA
ATOM     16  C   LIG    1       -4.412   6.802   0.080  0.00  0.00    +0.610 C 
ATOM     17  N   LIG    1       -3.582   7.863   0.078  0.00  0.00    -0.720 N 
ATOM     18  H   LIG    1       -2.622   7.728   0.068  0.00  0.00    +0.410 HD
BRANCH  17  19
ATOM     19  C   LIG    1       -4.130   9.222   0.090  0.00  0.00    +0.270 C 
BRANCH  19  20
ATOM     20  C   LIG    1       -2.982  10.234   0.086  0.00  0.00    +0.170 C 
BRANCH  20  21
ATOM     21  N   LIG    1       -3.532  11.597   0.098  0.00  0.00    -0.530 NA
ATOM     22  C   LIG    1       -4.250  11.887  -1.151  0.00  0.00    +0.150 C 
ATOM     23  C   LIG    1       -4.856  13.291  -1.071  0.00  0.00    +0.220 C 
ATOM     24  O   LIG    1       -3.816  14.238  -0.812  0.00  0.00    -0.380 OA
ATOM     25  C   LIG    1       -3.096  13.986   0.398  0.00  0.00    +0.220 C 
ATOM     26  C   LIG    1       -2.473  12.589   0.333  0.00  0.00    +0.160 C 
ENDBRANCH  20  21
ENDBRANCH  19  20
ENDBRANCH  17  19
ENDBRANCH   1  16
TORSDOF 6
