REMARK  Name = ZINCqH00000345dp.0
REMARK                            x       y       z     vdW  Elec       q    Type
REMARK                         _______ _______ _______ _____ _____    ______ ____
ROOT
ATOM      1  N   LIG    1       -1.462  -1.789  -2.137  0.00  0.00    -0.740 N 
ATOM      2  H   LIG    1       -2.050  -1.240  -1.595  0.00  0.00    +0.390 HD
ATOM      3  C   LIG    1       -0.125  -1.637  -2.045  0.00  0.00    +0.710 C 
ATOM      4  N   LIG    1        0.397  -0.802  -1.125  0.00  0.00    -0.630 N 
ATOM      5  C   LIG    1        1.851  -0.712  -0.936  0.00  0.00    +0.300 C 
ATOM      6  C   LIG    1        2.278   0.752  -1.098  0.00  0.00    +0.270 C 
ATOM      7  N   LIG    1        1.403   1.591  -0.266  0.00  0.00    -0.610 N 
ATOM      8  C   LIG    1       -0.050   1.499  -0.452  0.00  0.00    +0.170 C 
ATOM      9  C   LIG    1       -0.756   2.357   0.598  0.00  0.00    +0.040 C 
ATOM     10  C   LIG    1       -0.325   3.816   0.439  0.00  0.00    +0.030 C 
ATOM     11  C   LIG    1       -0.698   4.308  -0.961  0.00  0.00    -0.010 C 
ATOM     12  C   LIG    1        0.013   3.451  -2.010  0.00  0.00    +0.010 C 
ATOM     13  C   LIG    1       -0.418   1.991  -1.852  0.00  0.00    +0.020 C 
ATOM     14  C   LIG    1        1.926   2.429   0.651  0.00  0.00    +0.510 C 
ATOM     15  O   LIG    1        1.252   2.797   1.590  0.00  0.00    -0.500 OA
ATOM     16  C   LIG    1        3.348   2.908   0.510  0.00  0.00    +0.090 C 
ATOM     17  C   LIG    1       -0.479   0.036  -0.293  0.00  0.00    +0.270 C 
ATOM     18  O   LIG    1        0.609  -2.254  -2.792  0.00  0.00    -0.580 OA
ENDROOT
BRANCH   1  19
ATOM     19  C   LIG    1       -2.025  -2.782  -3.055  0.00  0.00    +0.300 C 
BRANCH  19  20
ATOM     20  C   LIG    1       -3.423  -2.373  -3.441  0.00  0.00    -0.090 A 
ATOM     21  C   LIG    1       -4.273  -1.837  -2.492  0.00  0.00    +0.000 A 
ATOM     22  C   LIG    1       -5.554  -1.458  -2.847  0.00  0.00    +0.000 A 
ATOM     23  C   LIG    1       -5.988  -1.623  -4.150  0.00  0.00    +0.000 A 
ATOM     24  C   LIG    1       -5.139  -2.163  -5.097  0.00  0.00    +0.020 A 
ATOM     25  C   LIG    1       -3.857  -2.538  -4.743  0.00  0.00    +0.020 A 
ENDBRANCH  19  20
BRANCH  19  27
ATOM     26  C   LIG    1       -0.637  -4.620  -2.087  0.00  0.00    +0.020 C 
ATOM     27  C   LIG    1       -2.065  -4.148  -2.367  0.00  0.00    +0.000 C 
ENDBRANCH  19  27
ENDBRANCH   1  19
TORSDOF 3
