REMARK  Name = ZINCrH000004u7pB.0
REMARK                            x       y       z     vdW  Elec       q    Type
REMARK                         _______ _______ _______ _____ _____    ______ ____
ROOT
ATOM      1  C   LIG    1       -6.465  -1.277   2.167  0.00  0.00    -0.200 A 
ATOM      2  C   LIG    1       -5.670  -0.830   3.227  0.00  0.00    +0.130 A 
ATOM      3  C   LIG    1       -4.498  -0.157   2.970  0.00  0.00    -0.070 A 
ATOM      4  C   LIG    1       -4.103   0.081   1.657  0.00  0.00    +0.250 A 
ATOM      5  C   LIG    1       -4.895  -0.358   0.599  0.00  0.00    -0.080 A 
ATOM      6  C   LIG    1       -6.065  -1.037   0.849  0.00  0.00    +0.090 A 
ENDROOT
BRANCH   1   8
ATOM      7  O   LIG    1       -8.069  -2.206   3.585  0.00  0.00    -0.540 OA
ATOM      8  C   LIG    1       -7.722  -1.999   2.438  0.00  0.00    +0.570 C 
ATOM      9  N   LIG    1       -8.487  -2.429   1.415  0.00  0.00    -0.730 N 
ATOM     10  H   LIG    1       -8.210  -2.263   0.500  0.00  0.00    +0.400 HD
BRANCH   9  11
ATOM     11  C   LIG    1       -9.736  -3.146   1.684  0.00  0.00    +0.230 C 
ATOM     12  C   LIG    1       -9.439  -4.635   1.882  0.00  0.00    -0.020 C 
ATOM     13  C   LIG    1      -10.757  -5.388   2.085  0.00  0.00    +0.210 C 
ATOM     14  O   LIG    1      -11.608  -5.166   0.959  0.00  0.00    -0.380 OA
ATOM     15  C   LIG    1      -11.958  -3.795   0.753  0.00  0.00    +0.210 C 
ATOM     16  C   LIG    1      -10.689  -2.979   0.497  0.00  0.00    +0.000 C 
ENDBRANCH   9  11
ENDBRANCH   1   8
BRANCH   4  17
ATOM     17  N   LIG    1       -2.918   0.762   1.401  0.00  0.00    -0.740 N 
ATOM     18  H   LIG    1       -2.368   1.071   2.137  0.00  0.00    +0.400 HD
BRANCH  17  19
ATOM     19  C   LIG    1       -2.501   1.012   0.019  0.00  0.00    +0.330 C 
BRANCH  19  20
ATOM     20  C   LIG    1       -1.194   1.762   0.017  0.00  0.00    -0.170 A 
ATOM     21  C   LIG    1       -0.013   1.076   0.008  0.00  0.00    +0.110 A 
ATOM     22  C   LIG    1        1.185   1.816   0.001  0.00  0.00    -0.110 A 
ATOM     23  C   LIG    1        2.437   1.180  -0.015  0.00  0.00    +0.040 A 
ATOM     24  C   LIG    1        3.573   1.931  -0.022  0.00  0.00    +0.020 A 
ATOM     25  C   LIG    1        3.510   3.323  -0.014  0.00  0.00    +0.040 A 
ATOM     26  C   LIG    1        2.313   3.971   0.001  0.00  0.00    +0.040 A 
ATOM     27  C   LIG    1        1.118   3.231   0.008  0.00  0.00    +0.130 A 
ATOM     28  N   LIG    1       -0.071   3.841   0.022  0.00  0.00    -0.470 NA
ATOM     29  C   LIG    1       -1.188   3.155   0.028  0.00  0.00    +0.310 A 
ENDBRANCH  19  20
ENDBRANCH  17  19
ENDBRANCH   4  17
TORSDOF 5
