REMARK  Name = ZINCrH000004msdI.0
REMARK                            x       y       z     vdW  Elec       q    Type
REMARK                         _______ _______ _______ _____ _____    ______ ____
ROOT
ATOM      1  C   LIG    1       -0.753   1.593  -1.232  0.00  0.00    +0.070 C 
ENDROOT
BRANCH   1   2
ATOM      2  C   LIG    1       -0.047   1.107  -2.471  0.00  0.00    +0.520 C 
ATOM      3  N   LIG    1       -0.524   1.433  -3.689  0.00  0.00    -0.730 N 
ATOM      4  H   LIG    1       -1.321   1.980  -3.768  0.00  0.00    +0.400 HD
ATOM      5  O   LIG    1        0.949   0.422  -2.373  0.00  0.00    -0.540 OA
BRANCH   3   6
ATOM      6  C   LIG    1        0.162   0.960  -4.895  0.00  0.00    +0.300 C 
BRANCH   6   7
ATOM      7  C   LIG    1       -0.578   1.467  -6.134  0.00  0.00    +0.070 C 
BRANCH   7   8
ATOM      8  S   LIG    1        0.271   0.882  -7.627  0.00  0.00    -0.220 S 
BRANCH   8   9
ATOM      9  C   LIG    1       -0.737   1.573  -8.967  0.00  0.00    +0.130 C 
BRANCH   9  10
ATOM     10  C   LIG    1       -0.152   1.169 -10.296  0.00  0.00    -0.080 A 
ATOM     11  C   LIG    1        0.791   1.973 -10.909  0.00  0.00    +0.020 A 
ATOM     12  C   LIG    1        1.331   1.601 -12.125  0.00  0.00    +0.010 A 
ATOM     13  C   LIG    1        0.922   0.428 -12.733  0.00  0.00    +0.010 A 
ATOM     14  C   LIG    1       -0.024  -0.373 -12.123  0.00  0.00    +0.010 A 
ATOM     15  C   LIG    1       -0.561  -0.003 -10.904  0.00  0.00    +0.020 A 
ENDBRANCH   9  10
ENDBRANCH   8   9
ENDBRANCH   7   8
ENDBRANCH   6   7
ENDBRANCH   3   6
ENDBRANCH   1   2
BRANCH   1  16
ATOM     16  C   LIG    1       -0.013   1.086   0.008  0.00  0.00    +0.070 C 
BRANCH  16  17
ATOM     17  C   LIG    1       -0.718   1.572   1.248  0.00  0.00    +0.400 C 
ATOM     18  O   LIG    1       -1.715   2.256   1.150  0.00  0.00    -0.460 OA
BRANCH  17  22
ATOM     19  C   LIG    1        0.787   0.543   5.080  0.00  0.00    +0.140 A 
ATOM     20  C   LIG    1        1.436   0.096   3.936  0.00  0.00    -0.050 A 
ATOM     21  C   LIG    1        0.951   0.427   2.691  0.00  0.00    +0.080 A 
ATOM     22  C   LIG    1       -0.199   1.217   2.575  0.00  0.00    -0.180 A 
ATOM     23  C   LIG    1       -0.850   1.672   3.729  0.00  0.00    +0.030 A 
ATOM     24  C   LIG    1       -0.360   1.331   4.973  0.00  0.00    +0.090 A 
BRANCH  19  26
ATOM     25  C   LIG    1        2.447  -0.596   6.342  0.00  0.00    +0.240 C 
ATOM     26  O   LIG    1        1.269   0.213   6.305  0.00  0.00    -0.300 OA
ENDBRANCH  19  26
BRANCH  24  27
ATOM     27  O   LIG    1       -0.992   1.767   6.095  0.00  0.00    -0.300 OA
ATOM     28  C   LIG    1       -2.160   2.569   5.912  0.00  0.00    +0.240 C 
ENDBRANCH  24  27
ENDBRANCH  17  22
ENDBRANCH  16  17
ENDBRANCH   1  16
TORSDOF 11
