REMARK  Name = ZINCpk000000oybN.0
REMARK                            x       y       z     vdW  Elec       q    Type
REMARK                         _______ _______ _______ _____ _____    ______ ____
ROOT
ATOM      1  N   LIG    1        0.890   2.541  -3.069  0.00  0.00    -1.010 NA
ATOM      2  C   LIG    1        2.322   2.485  -2.739  0.00  0.00    +0.320 C 
ATOM      3  C   LIG    1        2.868   1.121  -3.193  0.00  0.00    +0.190 C 
ATOM      4  N   LIG    1        2.549   0.920  -4.612  0.00  0.00    -0.500 N 
ATOM      5  C   LIG    1        1.097   0.870  -4.831  0.00  0.00    +0.190 C 
ATOM      6  C   LIG    1        0.479   2.217  -4.443  0.00  0.00    +0.320 C 
ENDROOT
BRANCH   4   7
ATOM      7  C   LIG    1        3.162  -0.215  -5.101  0.00  0.00    +0.220 A 
ATOM      8  C   LIG    1        2.832  -1.486  -4.607  0.00  0.00    -0.130 A 
ATOM      9  C   LIG    1        3.477  -2.616  -5.134  0.00  0.00    +0.360 A 
ATOM     10  N   LIG    1        4.386  -2.514  -6.070  0.00  0.00    -0.470 NA
ATOM     11  C   LIG    1        4.750  -1.329  -6.580  0.00  0.00    +0.150 A 
ATOM     12  C   LIG    1        5.729  -1.250  -7.584  0.00  0.00    +0.040 A 
ATOM     13  C   LIG    1        6.085  -0.035  -8.088  0.00  0.00    +0.050 A 
ATOM     14  C   LIG    1        5.492   1.136  -7.625  0.00  0.00    +0.010 A 
ATOM     15  C   LIG    1        4.538   1.097  -6.652  0.00  0.00    +0.070 A 
ATOM     16  C   LIG    1        4.149  -0.136  -6.112  0.00  0.00    -0.090 A 
BRANCH   8  17
ATOM     17  C   LIG    1        1.845  -1.629  -3.580  0.00  0.00    +0.250 C 
ATOM     18  N   LIG    1        1.062  -1.743  -2.765  0.00  0.00    -0.390 NA
ENDBRANCH   8  17
ENDBRANCH   4   7
BRANCH   1  19
ATOM     19  S   LIG    1       -0.229   2.966  -1.924  0.00  0.00    +2.780 S 
ATOM     20  O   LIG    1        0.467   3.721  -0.943  0.00  0.00    -0.970 OA
ATOM     21  O   LIG    1       -1.358   3.462  -2.631  0.00  0.00    -0.970 OA
BRANCH  19  22
ATOM     22  N   LIG    1       -0.721   1.571  -1.179  0.00  0.00    -1.010 NA
ATOM     23  C   LIG    1       -1.865   0.823  -1.706  0.00  0.00    +0.300 C 
BRANCH  22  25
ATOM     24  C   LIG    1       -0.729   1.579   1.267  0.00  0.00    +0.020 C 
ATOM     25  C   LIG    1       -0.013   1.086   0.008  0.00  0.00    +0.280 C 
ENDBRANCH  22  25
ENDBRANCH  19  22
ENDBRANCH   1  19
TORSDOF 5
