REMARK  Name = ZINCrD000002I4yL.1
REMARK                            x       y       z     vdW  Elec       q    Type
REMARK                         _______ _______ _______ _____ _____    ______ ____
ROOT
ATOM      1  N   LIG    1       -5.260   0.993   6.179  0.00  0.00    -0.470 N 
ATOM      2  C   LIG    1       -6.031   2.022   5.675  0.00  0.00    +0.060 A 
ATOM      3  C   LIG    1       -6.982   2.863   6.243  0.00  0.00    +0.040 A 
ATOM      4  C   LIG    1       -7.590   3.833   5.475  0.00  0.00    -0.050 A 
ATOM      5  C   LIG    1       -7.271   3.972   4.128  0.00  0.00    +0.110 A 
ATOM      6  C   LIG    1       -6.331   3.142   3.547  0.00  0.00    +0.010 A 
ATOM      7  C   LIG    1       -5.706   2.164   4.317  0.00  0.00    -0.030 A 
ATOM      8  C   LIG    1       -4.687   1.136   4.035  0.00  0.00    -0.240 A 
ATOM      9  C   LIG    1       -4.471   0.475   5.208  0.00  0.00    +0.150 A 
ATOM     10  C   LIG    1       -3.498  -0.661   5.396  0.00  0.00    +0.160 C 
ENDROOT
BRANCH   8  11
ATOM     11  C   LIG    1       -4.030   0.879   2.747  0.00  0.00    +0.600 C 
ATOM     12  N   LIG    1       -2.890   1.524   2.431  0.00  0.00    -0.720 N 
ATOM     13  H   LIG    1       -2.503   2.158   3.054  0.00  0.00    +0.400 HD
ATOM     14  O   LIG    1       -4.516   0.084   1.964  0.00  0.00    -0.530 OA
BRANCH  12  15
ATOM     15  C   LIG    1       -2.235   1.268   1.146  0.00  0.00    +0.250 C 
ATOM     16  C   LIG    1       -0.741   1.585   1.262  0.00  0.00    +0.030 C 
ATOM     17  C   LIG    1       -0.013   1.086   0.008  0.00  0.00    +0.130 C 
ATOM     18  C   LIG    1       -0.752   1.591  -1.206  0.00  0.00    +0.000 A 
ATOM     19  C   LIG    1       -2.016   2.066  -1.177  0.00  0.00    -0.020 A 
ATOM     20  N   LIG    1       -2.338   2.425  -2.450  0.00  0.00    -0.560 N 
ATOM     21  H   LIG    1       -3.181   2.802  -2.747  0.00  0.00    +0.420 HD
ATOM     22  C   LIG    1       -1.260   2.156  -3.222  0.00  0.00    +0.390 A 
ATOM     23  N   LIG    1       -0.316   1.657  -2.467  0.00  0.00    -0.480 NA
ATOM     24  C   LIG    1       -2.864   2.156   0.065  0.00  0.00    +0.110 C 
ENDBRANCH  12  15
ENDBRANCH   8  11
BRANCH   5  25
ATOM     25  O   LIG    1       -7.885   4.928   3.382  0.00  0.00    -0.320 OA
ATOM     26  C   LIG    1       -8.846   5.752   4.045  0.00  0.00    +0.230 C 
ENDBRANCH   5  25
BRANCH   1  27
ATOM     27  C   LIG    1       -5.292   0.527   7.568  0.00  0.00    +0.280 C 
BRANCH  27  29
ATOM     28  C   LIG    1       -4.298   0.822   9.841  0.00  0.00    +0.030 C 
ATOM     29  C   LIG    1       -4.265   1.308   8.391  0.00  0.00    +0.000 C 
ENDBRANCH  27  29
ENDBRANCH   1  27
TORSDOF 5
