REMARK  Name = ZINCrD000002I4yL.0
REMARK                            x       y       z     vdW  Elec       q    Type
REMARK                         _______ _______ _______ _____ _____    ______ ____
ROOT
ATOM      1  N   LIG    1        0.865   3.453   0.012  0.00  0.00    -0.470 N 
ATOM      2  C   LIG    1        1.188   2.110   0.002  0.00  0.00    +0.060 A 
ATOM      3  C   LIG    1        2.397   1.423  -0.013  0.00  0.00    +0.040 A 
ATOM      4  C   LIG    1        2.406   0.045  -0.021  0.00  0.00    -0.050 A 
ATOM      5  C   LIG    1        1.213  -0.671  -0.013  0.00  0.00    +0.110 A 
ATOM      6  C   LIG    1        0.002  -0.004   0.002  0.00  0.00    +0.010 A 
ATOM      7  C   LIG    1       -0.017   1.388   0.010  0.00  0.00    -0.030 A 
ATOM      8  C   LIG    1       -1.092   2.397   0.019  0.00  0.00    -0.240 A 
ATOM      9  C   LIG    1       -0.480   3.616   0.026  0.00  0.00    +0.150 A 
ATOM     10  C   LIG    1       -1.192   4.944   0.040  0.00  0.00    +0.160 C 
ENDROOT
BRANCH   8  11
ATOM     11  C   LIG    1       -2.538   2.140   0.023  0.00  0.00    +0.600 C 
ATOM     12  N   LIG    1       -3.206   2.029  -1.142  0.00  0.00    -0.720 N 
ATOM     13  H   LIG    1       -2.732   2.118  -1.984  0.00  0.00    +0.400 HD
ATOM     14  O   LIG    1       -3.134   2.028   1.078  0.00  0.00    -0.530 OA
BRANCH  12  15
ATOM     15  C   LIG    1       -4.649   1.772  -1.139  0.00  0.00    +0.240 C 
ATOM     16  C   LIG    1       -5.049   1.090  -2.449  0.00  0.00    +0.040 C 
ATOM     17  C   LIG    1       -6.498   0.597  -2.347  0.00  0.00    +0.120 C 
ATOM     18  C   LIG    1       -7.351   1.732  -1.843  0.00  0.00    -0.030 A 
ATOM     19  C   LIG    1       -6.869   2.843  -1.247  0.00  0.00    +0.010 A 
ATOM     20  N   LIG    1       -7.905   3.626  -0.935  0.00  0.00    -0.480 NA
ATOM     21  C   LIG    1       -9.013   3.043  -1.315  0.00  0.00    +0.390 A 
ATOM     22  N   LIG    1       -8.706   1.856  -1.886  0.00  0.00    -0.560 N 
ATOM     23  H   LIG    1       -9.332   1.215  -2.256  0.00  0.00    +0.420 HD
ATOM     24  C   LIG    1       -5.403   3.100  -1.001  0.00  0.00    +0.120 C 
ENDBRANCH  12  15
ENDBRANCH   8  11
BRANCH   5  25
ATOM     25  O   LIG    1        1.238  -2.030  -0.020  0.00  0.00    -0.320 OA
ATOM     26  C   LIG    1        2.523  -2.655  -0.036  0.00  0.00    +0.230 C 
ENDBRANCH   5  25
BRANCH   1  27
ATOM     27  C   LIG    1        1.839   4.547   0.008  0.00  0.00    +0.280 C 
BRANCH  27  29
ATOM     28  C   LIG    1        3.182   6.078  -1.440  0.00  0.00    +0.030 C 
ATOM     29  C   LIG    1        2.164   4.935  -1.436  0.00  0.00    +0.000 C 
ENDBRANCH  27  29
ENDBRANCH   1  27
TORSDOF 5
