REMARK  Name = ZINCvU00000008ER.0
REMARK                            x       y       z     vdW  Elec       q    Type
REMARK                         _______ _______ _______ _____ _____    ______ ____
ROOT
ATOM      1  C   LIG    1        2.477   1.077  -0.015  0.00  0.00    +0.560 C 
ATOM      2  N   LIG    1        2.501  -0.270  -0.021  0.00  0.00    -0.720 N 
ATOM      3  H   LIG    1        1.669  -0.770  -0.016  0.00  0.00    +0.400 HD
ATOM      4  O   LIG    1        3.519   1.704  -0.021  0.00  0.00    -0.510 OA
ENDROOT
BRANCH   1  10
ATOM      5  C   LIG    1        1.157   3.196   0.008  0.00  0.00    -0.050 A 
ATOM      6  C   LIG    1       -0.066   3.857   0.022  0.00  0.00    -0.020 A 
ATOM      7  C   LIG    1       -1.242   3.135   0.030  0.00  0.00    +0.060 A 
ATOM      8  C   LIG    1       -1.215   1.749   0.017  0.00  0.00    -0.010 A 
ATOM      9  C   LIG    1       -0.013   1.076   0.008  0.00  0.00    +0.070 A 
ATOM     10  C   LIG    1        1.187   1.792   0.000  0.00  0.00    -0.130 A 
BRANCH   5  11
ATOM     11  S   LIG    1        2.660   4.114  -0.001  0.00  0.00    +0.020 S 
BRANCH  11  12
ATOM     12  C   LIG    1        2.087   5.835   0.013  0.00  0.00    +0.120 C 
BRANCH  12  19
ATOM     13  C   LIG    1        3.666   7.051   2.573  0.00  0.00    +0.160 C 
ATOM     14  C   LIG    1        3.970   7.295   1.117  0.00  0.00    +0.040 A 
ATOM     15  N   LIG    1        4.923   8.037   0.633  0.00  0.00    -0.360 NA
ATOM     16  O   LIG    1        4.913   8.043  -0.576  0.00  0.00    +0.100 OA
ATOM     17  C   LIG    1        3.925   7.279  -1.064  0.00  0.00    -0.010 A 
ATOM     18  C   LIG    1        3.600   7.043  -2.516  0.00  0.00    +0.190 C 
ATOM     19  C   LIG    1        3.276   6.761   0.007  0.00  0.00    -0.190 A 
ENDBRANCH  12  19
ENDBRANCH  11  12
ENDBRANCH   5  11
ENDBRANCH   1  10
BRANCH   2  20
ATOM     20  C   LIG    1        3.782  -0.980  -0.036  0.00  0.00    +0.290 C 
ATOM     21  C   LIG    1        4.303  -1.123   1.395  0.00  0.00    +0.040 C 
BRANCH  20  22
ATOM     22  C   LIG    1        3.592  -2.347  -0.642  0.00  0.00    -0.100 A 
ATOM     23  C   LIG    1        2.464  -3.086  -0.336  0.00  0.00    +0.040 A 
ATOM     24  C   LIG    1        2.285  -4.337  -0.893  0.00  0.00    +0.000 A 
ATOM     25  C   LIG    1        3.244  -4.857  -1.752  0.00  0.00    +0.140 A 
ATOM     26  C   LIG    1        4.378  -4.114  -2.053  0.00  0.00    +0.010 A 
ATOM     27  C   LIG    1        4.550  -2.862  -1.496  0.00  0.00    +0.060 A 
BRANCH  25  28
ATOM     28  N   LIG    1        3.067  -6.128  -2.316  0.00  0.00    -0.410 N 
ATOM     29  C   LIG    1        2.007  -6.972  -2.107  0.00  0.00    +0.120 A 
ATOM     30  C   LIG    1        2.239  -8.078  -2.840  0.00  0.00    +0.160 A 
ATOM     31  N   LIG    1        3.411  -7.923  -3.473  0.00  0.00    -0.480 NA
ATOM     32  C   LIG    1        3.917  -6.760  -3.167  0.00  0.00    +0.400 A 
ENDBRANCH  25  28
ENDBRANCH  20  22
ENDBRANCH   2  20
TORSDOF 7
