REMARK  Name = ZINCvU0000000BD0.0
REMARK                            x       y       z     vdW  Elec       q    Type
REMARK                         _______ _______ _______ _____ _____    ______ ____
ROOT
ATOM      1  N   LIG    1       -2.386   7.929   4.310  0.00  0.00    -0.620 N 
ATOM      2  H   LIG    1       -3.164   7.823   4.880  0.00  0.00    +0.430 HD
ATOM      3  C   LIG    1       -2.388   7.413   3.065  0.00  0.00    +0.510 C 
ATOM      4  O   LIG    1       -1.416   7.545   2.353  0.00  0.00    -0.490 OA
ENDROOT
BRANCH   1   8
ATOM      5  C   LIG    1       -0.016   9.763   6.227  0.00  0.00    +0.140 A 
ATOM      6  C   LIG    1        0.895   9.755   5.238  0.00  0.00    -0.110 A 
ATOM      7  S   LIG    1        0.214   8.880   3.869  0.00  0.00    +0.200 S 
ATOM      8  C   LIG    1       -1.271   8.612   4.778  0.00  0.00    +0.270 A 
ATOM      9  N   LIG    1       -1.158   9.148   5.953  0.00  0.00    -0.470 NA
BRANCH   5  14
ATOM     10  C   LIG    1        1.688  11.657   8.996  0.00  0.00    +0.090 A 
ATOM     11  C   LIG    1        0.712  11.636   9.982  0.00  0.00    -0.030 A 
ATOM     12  C   LIG    1       -0.498  11.009   9.749  0.00  0.00    -0.040 A 
ATOM     13  C   LIG    1       -0.744  10.402   8.529  0.00  0.00    +0.120 A 
ATOM     14  C   LIG    1        0.239  10.416   7.535  0.00  0.00    -0.020 A 
ATOM     15  C   LIG    1        1.456  11.049   7.774  0.00  0.00    +0.040 A 
BRANCH  10  17
ATOM     16  C   LIG    1        3.049  12.882  10.514  0.00  0.00    +0.230 C 
ATOM     17  O   LIG    1        2.876  12.276   9.232  0.00  0.00    -0.320 OA
ENDBRANCH  10  17
BRANCH  13  18
ATOM     18  O   LIG    1       -1.936   9.790   8.300  0.00  0.00    -0.280 OA
ATOM     19  C   LIG    1       -2.893   9.816   9.361  0.00  0.00    +0.220 C 
ENDBRANCH  13  18
ENDBRANCH   5  14
ENDBRANCH   1   8
BRANCH   3  20
ATOM     20  C   LIG    1       -3.598   6.671   2.558  0.00  0.00    +0.170 C 
BRANCH  20  21
ATOM     21  C   LIG    1       -3.345   6.200   1.150  0.00  0.00    -0.170 A 
ATOM     22  C   LIG    1       -3.697   6.824   0.017  0.00  0.00    +0.240 A 
ATOM     23  O   LIG    1       -3.305   6.104  -1.049  0.00  0.00    -0.190 OA
ATOM     24  C   LIG    1       -2.677   4.975  -0.663  0.00  0.00    +0.060 A 
ATOM     25  C   LIG    1       -2.096   3.921  -1.353  0.00  0.00    +0.030 A 
ATOM     26  C   LIG    1       -1.512   2.875  -0.665  0.00  0.00    -0.070 A 
ATOM     27  C   LIG    1       -1.501   2.866   0.723  0.00  0.00    -0.110 A 
ATOM     28  C   LIG    1       -0.802   1.617   1.223  0.00  0.00    +0.080 C 
ATOM     29  C   LIG    1       -0.013   1.086   0.008  0.00  0.00    +0.030 C 
ATOM     30  C   LIG    1       -2.074   3.906   1.427  0.00  0.00    +0.060 A 
ATOM     31  C   LIG    1       -0.825   1.630  -1.186  0.00  0.00    +0.080 C 
ATOM     32  C   LIG    1       -2.664   4.965   0.742  0.00  0.00    -0.110 A 
ENDBRANCH  20  21
ENDBRANCH   3  20
TORSDOF 6
