REMARK  Name = ZINCkj00000kIZ43.0
REMARK                            x       y       z     vdW  Elec       q    Type
REMARK                         _______ _______ _______ _____ _____    ______ ____
ROOT
ATOM      1  C   LIG    1       -1.713   0.525   1.794  0.00  0.00    +0.050 C 
ATOM      2  C   LIG    1       -0.756   1.594   1.262  0.00  0.00    +0.010 C 
ATOM      3  C   LIG    1       -0.013   1.086   0.008  0.00  0.00    +0.280 C 
ATOM      4  N   LIG    1       -0.743   1.582  -1.167  0.00  0.00    -0.630 N 
ATOM      5  C   LIG    1       -1.915   2.349  -0.707  0.00  0.00    +0.280 C 
ATOM      6  C   LIG    1       -0.398   1.373  -2.453  0.00  0.00    +0.540 C 
ATOM      7  O   LIG    1       -1.077   1.833  -3.346  0.00  0.00    -0.490 OA
ATOM      8  C   LIG    1       -1.545   2.819   0.722  0.00  0.00    +0.170 C 
ENDROOT
BRANCH   8   9
ATOM      9  N   LIG    1       -2.751   3.065   1.525  0.00  0.00    -0.380 N 
ATOM     10  C   LIG    1       -3.545   4.131   0.900  0.00  0.00    +0.330 C 
ATOM     11  C   LIG    1       -2.361   3.475   2.880  0.00  0.00    +0.330 C 
ATOM     12  H   LIG    1       -3.300   2.221   1.573  0.00  0.00    +0.430 HD
ENDBRANCH   8   9
BRANCH   6  13
ATOM     13  C   LIG    1        0.833   0.567  -2.781  0.00  0.00    +0.180 C 
BRANCH  13  14
ATOM     14  C   LIG    1        0.993   0.481  -4.277  0.00  0.00    +0.040 A 
ATOM     15  C   LIG    1        2.084   0.845  -4.972  0.00  0.00    +0.150 A 
ATOM     16  N   LIG    1        1.821   0.603  -6.316  0.00  0.00    -0.420 N 
ATOM     17  C   LIG    1        2.449   0.728  -7.535  0.00  0.00    +0.210 A 
ATOM     18  C   LIG    1        1.797   0.365  -8.625  0.00  0.00    +0.020 A 
ATOM     19  S   LIG    1        0.212  -0.200  -8.067  0.00  0.00    +0.160 S 
ATOM     20  C   LIG    1        0.556   0.104  -6.358  0.00  0.00    +0.160 A 
ATOM     21  N   LIG    1        0.070   0.035  -5.141  0.00  0.00    -0.430 NA
ENDBRANCH  13  14
ENDBRANCH   6  13
TORSDOF 3
