REMARK  Name = ZINCpk00000y1qyu.2
REMARK                            x       y       z     vdW  Elec       q    Type
REMARK                         _______ _______ _______ _____ _____    ______ ____
ROOT
ATOM      1  C   LIG    1       -0.724   3.110   1.292  0.00  0.00    +0.160 C 
ATOM      2  C   LIG    1       -0.730   1.580   1.266  0.00  0.00    +0.040 C 
ATOM      3  C   LIG    1       -0.013   1.086   0.008  0.00  0.00    +0.020 C 
ATOM      4  C   LIG    1       -0.755   1.594  -1.232  0.00  0.00    +0.260 C 
ATOM      5  N   LIG    1       -0.879   3.055  -1.143  0.00  0.00    -0.610 N 
ATOM      6  C   LIG    1       -0.457   3.843  -2.151  0.00  0.00    +0.520 C 
ATOM      7  O   LIG    1       -0.565   5.048  -2.066  0.00  0.00    -0.520 OA
ATOM      8  C   LIG    1       -1.474   3.641   0.066  0.00  0.00    +0.240 C 
ENDROOT
BRANCH   1  13
ATOM      9  C   LIG    1       -3.986   5.521   5.222  0.00  0.00    +0.190 C 
ATOM     10  N   LIG    1       -3.324   5.047   3.999  0.00  0.00    -0.550 NA
ATOM     11  C   LIG    1       -1.924   5.491   3.952  0.00  0.00    +0.180 C 
ATOM     12  C   LIG    1       -1.295   5.046   2.630  0.00  0.00    +0.180 C 
ATOM     13  N   LIG    1       -1.385   3.584   2.515  0.00  0.00    -0.530 NA
ATOM     14  C   LIG    1       -2.785   3.140   2.562  0.00  0.00    +0.180 C 
ATOM     15  C   LIG    1       -3.414   3.585   3.884  0.00  0.00    +0.180 C 
ENDBRANCH   1  13
BRANCH   6  16
ATOM     16  C   LIG    1        0.151   3.227  -3.385  0.00  0.00    +0.210 C 
BRANCH  16  17
ATOM     17  O   LIG    1        0.517   4.260  -4.303  0.00  0.00    -0.360 OA
BRANCH  17  18
ATOM     18  C   LIG    1        1.106   3.780  -5.513  0.00  0.00    +0.170 C 
BRANCH  18  19
ATOM     19  C   LIG    1        1.456   4.965  -6.415  0.00  0.00    +0.080 C 
BRANCH  19  20
ATOM     20  C   LIG    1        2.077   4.459  -7.691  0.00  0.00    -0.080 A 
ATOM     21  C   LIG    1        3.447   4.294  -7.776  0.00  0.00    +0.010 A 
ATOM     22  C   LIG    1        4.016   3.827  -8.945  0.00  0.00    +0.000 A 
ATOM     23  C   LIG    1        3.216   3.532 -10.033  0.00  0.00    +0.000 A 
ATOM     24  C   LIG    1        1.847   3.701  -9.951  0.00  0.00    +0.000 A 
ATOM     25  C   LIG    1        1.277   4.166  -8.780  0.00  0.00    +0.010 A 
ENDBRANCH  19  20
ENDBRANCH  18  19
ENDBRANCH  17  18
ENDBRANCH  16  17
ENDBRANCH   6  16
TORSDOF 6
