REMARK  Name = ZINCrm000010ltx3.0
REMARK                            x       y       z     vdW  Elec       q    Type
REMARK                         _______ _______ _______ _____ _____    ______ ____
ROOT
ATOM      1  C   LIG    1       -2.494   8.729   5.846  0.00  0.00    -0.110 A 
ATOM      2  C   LIG    1       -2.873  10.000   5.620  0.00  0.00    -0.060 A 
ATOM      3  S   LIG    1       -2.979  10.323   3.952  0.00  0.00    +0.340 S 
ATOM      4  C   LIG    1       -2.507   8.745   3.520  0.00  0.00    -0.060 A 
ATOM      5  C   LIG    1       -2.282   7.989   4.611  0.00  0.00    -0.110 A 
ENDROOT
BRANCH   1   7
ATOM      6  O   LIG    1       -1.863   7.030   7.313  0.00  0.00    -0.460 OA
ATOM      7  C   LIG    1       -2.314   8.152   7.188  0.00  0.00    +0.570 C 
ATOM      8  N   LIG    1       -2.650   8.869   8.280  0.00  0.00    -0.730 N 
ATOM      9  H   LIG    1       -3.009   9.764   8.180  0.00  0.00    +0.400 HD
BRANCH   8  10
ATOM     10  C   LIG    1       -2.471   8.295   9.616  0.00  0.00    +0.270 C 
ATOM     11  C   LIG    1       -3.741   7.525  10.043  0.00  0.00    +0.060 C 
ATOM     12  C   LIG    1       -3.869   7.875  11.547  0.00  0.00    +0.280 C 
ATOM     13  N   LIG    1       -3.443   9.296  11.603  0.00  0.00    -0.370 N 
ATOM     14  H   LIG    1       -4.199   9.898  11.313  0.00  0.00    +0.420 HD
ATOM     15  C   LIG    1       -2.308   9.415  10.661  0.00  0.00    +0.270 C 
BRANCH  13  16
ATOM     16  C   LIG    1       -3.010   9.643  12.963  0.00  0.00    +0.100 C 
ATOM     17  C   LIG    1       -3.905  10.585  13.771  0.00  0.00    +0.110 C 
ATOM     18  C   LIG    1       -2.569  11.086  13.218  0.00  0.00    +0.100 C 
ENDBRANCH  13  16
ENDBRANCH   8  10
ENDBRANCH   1   7
BRANCH   5  19
ATOM     19  C   LIG    1       -1.864   6.579   4.560  0.00  0.00    +0.570 C 
ATOM     20  N   LIG    1       -1.801   5.937   3.377  0.00  0.00    -0.740 N 
ATOM     21  H   LIG    1       -2.032   6.404   2.558  0.00  0.00    +0.400 HD
ATOM     22  O   LIG    1       -1.574   5.993   5.586  0.00  0.00    -0.460 OA
BRANCH  20  23
ATOM     23  C   LIG    1       -1.385   4.533   3.326  0.00  0.00    +0.270 C 
ATOM     24  C   LIG    1        0.156   4.434   3.244  0.00  0.00    +0.060 C 
ATOM     25  C   LIG    1        0.375   3.260   2.256  0.00  0.00    +0.280 C 
ATOM     26  N   LIG    1       -0.713   3.446   1.262  0.00  0.00    -0.370 N 
ATOM     27  H   LIG    1       -0.458   4.161   0.597  0.00  0.00    +0.420 HD
ATOM     28  C   LIG    1       -1.900   3.868   2.035  0.00  0.00    +0.280 C 
BRANCH  26  29
ATOM     29  C   LIG    1       -0.984   2.181   0.567  0.00  0.00    +0.100 C 
ATOM     30  C   LIG    1        0.146   1.577  -0.270  0.00  0.00    +0.110 C 
ATOM     31  C   LIG    1       -1.059   2.216  -0.962  0.00  0.00    +0.110 C 
ENDBRANCH  26  29
ENDBRANCH  20  23
ENDBRANCH   5  19
TORSDOF 6
