REMARK  Name = ZINCrm000010ltx3.1
REMARK                            x       y       z     vdW  Elec       q    Type
REMARK                         _______ _______ _______ _____ _____    ______ ____
ROOT
ATOM      1  C   LIG    1       -1.140   3.572   0.337  0.00  0.00    -0.110 A 
ATOM      2  C   LIG    1       -0.155   4.489   0.346  0.00  0.00    -0.060 A 
ATOM      3  S   LIG    1       -0.780   6.061   0.537  0.00  0.00    +0.340 S 
ATOM      4  C   LIG    1       -2.390   5.513   0.621  0.00  0.00    -0.060 A 
ATOM      5  C   LIG    1       -2.455   4.174   0.502  0.00  0.00    -0.110 A 
ENDROOT
BRANCH   1   7
ATOM      6  O   LIG    1       -1.859   1.371   0.063  0.00  0.00    -0.460 OA
ATOM      7  C   LIG    1       -0.913   2.126   0.184  0.00  0.00    +0.570 C 
ATOM      8  N   LIG    1        0.344   1.638   0.179  0.00  0.00    -0.730 N 
ATOM      9  H   LIG    1        1.098   2.240   0.271  0.00  0.00    +0.400 HD
BRANCH   8  10
ATOM     10  C   LIG    1        0.569   0.199   0.027  0.00  0.00    +0.270 C 
ATOM     11  C   LIG    1        0.585  -0.491   1.410  0.00  0.00    +0.060 C 
ATOM     12  C   LIG    1        1.717  -1.538   1.262  0.00  0.00    +0.280 C 
ATOM     13  N   LIG    1        2.730  -0.830   0.438  0.00  0.00    -0.370 N 
ATOM     14  H   LIG    1        3.272  -0.204   1.014  0.00  0.00    +0.420 HD
ATOM     15  C   LIG    1        1.965  -0.063  -0.569  0.00  0.00    +0.270 C 
BRANCH  13  16
ATOM     16  C   LIG    1        3.611  -1.800  -0.226  0.00  0.00    +0.100 C 
ATOM     17  C   LIG    1        5.085  -1.811   0.184  0.00  0.00    +0.110 C 
ATOM     18  C   LIG    1        4.675  -1.251  -1.179  0.00  0.00    +0.100 C 
ENDBRANCH  13  16
ENDBRANCH   8  10
ENDBRANCH   1   7
BRANCH   5  19
ATOM     19  C   LIG    1       -3.710   3.407   0.537  0.00  0.00    +0.570 C 
ATOM     20  N   LIG    1       -4.893   4.051   0.560  0.00  0.00    -0.730 N 
ATOM     21  H   LIG    1       -4.917   5.021   0.554  0.00  0.00    +0.400 HD
ATOM     22  O   LIG    1       -3.679   2.191   0.544  0.00  0.00    -0.460 OA
BRANCH  20  23
ATOM     23  C   LIG    1       -6.143   3.288   0.595  0.00  0.00    +0.260 C 
ATOM     24  C   LIG    1       -6.596   2.917  -0.836  0.00  0.00    +0.060 C 
ATOM     25  C   LIG    1       -8.126   3.094  -0.832  0.00  0.00    +0.260 C 
ATOM     26  N   LIG    1       -8.510   3.511   0.534  0.00  0.00    -0.360 N 
ATOM     27  H   LIG    1       -8.765   2.705   1.086  0.00  0.00    +0.430 HD
ATOM     28  C   LIG    1       -7.309   4.167   1.111  0.00  0.00    +0.280 C 
BRANCH  26  29
ATOM     29  C   LIG    1       -9.630   4.460   0.478  0.00  0.00    +0.100 C 
ATOM     30  C   LIG    1      -10.837   4.183   1.376  0.00  0.00    +0.110 C 
ATOM     31  C   LIG    1      -10.943   3.969  -0.136  0.00  0.00    +0.100 C 
ENDBRANCH  26  29
ENDBRANCH  20  23
ENDBRANCH   5  19
TORSDOF 6
