REMARK  Name = ZINCrH000004nfcg.0
REMARK                            x       y       z     vdW  Elec       q    Type
REMARK                         _______ _______ _______ _____ _____    ______ ____
ROOT
ATOM      1  C   LIG    1       -2.925   4.142   0.052  0.00  0.00    +0.580 C 
ATOM      2  N   LIG    1       -1.587   4.297   0.040  0.00  0.00    -0.630 N 
ATOM      3  H   LIG    1       -1.201   5.187   0.041  0.00  0.00    +0.420 HD
ATOM      4  O   LIG    1       -3.408   3.027   0.051  0.00  0.00    -0.490 OA
ENDROOT
BRANCH   1  10
ATOM      5  C   LIG    1       -5.624   9.906   0.109  0.00  0.00    +0.150 A 
ATOM      6  C   LIG    1       -6.227   8.680   0.109  0.00  0.00    -0.010 A 
ATOM      7  C   LIG    1       -5.439   7.519   0.095  0.00  0.00    -0.040 A 
ATOM      8  C   LIG    1       -6.024   6.239   0.093  0.00  0.00    +0.080 A 
ATOM      9  C   LIG    1       -5.200   5.152   0.080  0.00  0.00    +0.050 A 
ATOM     10  C   LIG    1       -3.808   5.331   0.067  0.00  0.00    +0.100 A 
ATOM     11  N   LIG    1       -3.268   6.535   0.074  0.00  0.00    -0.440 NA
ATOM     12  C   LIG    1       -4.023   7.633   0.082  0.00  0.00    +0.090 A 
ATOM     13  C   LIG    1       -3.437   8.914   0.083  0.00  0.00    +0.100 A 
ATOM     14  C   LIG    1       -4.229  10.018   0.096  0.00  0.00    -0.030 A 
BRANCH   5  16
ATOM     15  C   LIG    1       -5.699  12.282   0.121  0.00  0.00    +0.250 C 
ATOM     16  O   LIG    1       -6.387  11.029   0.121  0.00  0.00    -0.310 OA
ENDBRANCH   5  16
ENDBRANCH   1  10
BRANCH   2  17
ATOM     17  C   LIG    1       -0.756   3.178   0.026  0.00  0.00    +0.300 A 
ATOM     18  C   LIG    1       -1.157   1.877   0.017  0.00  0.00    -0.100 A 
ATOM     19  C   LIG    1       -0.013   1.076   0.008  0.00  0.00    +0.250 A 
ATOM     20  N   LIG    1        1.038   1.855   0.002  0.00  0.00    -0.280 NA
ATOM     21  N   LIG    1        0.602   3.186   0.013  0.00  0.00    -0.380 N 
BRANCH  21  22
ATOM     22  C   LIG    1        1.458   4.375   0.012  0.00  0.00    +0.370 C 
BRANCH  22  23
ATOM     23  C   LIG    1        1.738   4.790  -1.410  0.00  0.00    -0.120 A 
ATOM     24  C   LIG    1        2.841   4.286  -2.073  0.00  0.00    +0.040 A 
ATOM     25  C   LIG    1        3.094   4.663  -3.379  0.00  0.00    +0.010 A 
ATOM     26  C   LIG    1        2.251   5.554  -4.017  0.00  0.00    +0.010 A 
ATOM     27  C   LIG    1        1.151   6.062  -3.352  0.00  0.00    +0.000 A 
ATOM     28  C   LIG    1        0.895   5.681  -2.048  0.00  0.00    +0.020 A 
ENDBRANCH  22  23
ENDBRANCH  21  22
ENDBRANCH   2  17
TORSDOF 5
