REMARK  Name = ZINCtV000002OLOM.0
REMARK                            x       y       z     vdW  Elec       q    Type
REMARK                         _______ _______ _______ _____ _____    ______ ____
ROOT
ATOM      1  O   LIG    1       -2.595   5.005   0.044  0.00  0.00    -0.460 OA
ATOM      2  C   LIG    1       -2.560   3.791   0.087  0.00  0.00    +0.560 C 
ATOM      3  N   LIG    1       -3.707   3.086   0.159  0.00  0.00    -0.630 N 
ATOM      4  H   LIG    1       -3.680   2.117   0.194  0.00  0.00    +0.420 HD
ENDROOT
BRANCH   3   5
ATOM      5  C   LIG    1       -4.925   3.746   0.184  0.00  0.00    +0.340 A 
ATOM      6  N   LIG    1       -5.068   5.025   0.148  0.00  0.00    -0.460 NA
ATOM      7  C   LIG    1       -6.322   5.521   0.177  0.00  0.00    +0.120 A 
ATOM      8  C   LIG    1       -6.739   6.869   0.145  0.00  0.00    +0.100 A 
ATOM      9  C   LIG    1       -8.062   7.187   0.188  0.00  0.00    +0.040 A 
ATOM     10  C   LIG    1       -9.031   6.190   0.264  0.00  0.00    -0.090 A 
ATOM     11  C   LIG    1       -8.649   4.860   0.296  0.00  0.00    +0.110 A 
ATOM     12  C   LIG    1       -7.299   4.523   0.253  0.00  0.00    -0.170 A 
ATOM     13  S   LIG    1       -6.492   2.956   0.276  0.00  0.00    +0.080 S 
BRANCH  10  14
ATOM     14  S   LIG    1      -10.739   6.619   0.318  0.00  0.00    -0.080 S 
BRANCH  14  15
ATOM     15  C   LIG    1      -10.706   8.432   0.251  0.00  0.00    +0.430 C 
ATOM     16  F   LIG    1      -10.085   8.844  -0.932  0.00  0.00    -0.180 F 
ATOM     17  F   LIG    1       -9.993   8.926   1.349  0.00  0.00    -0.180 F 
ENDBRANCH  14  15
ENDBRANCH  10  14
ENDBRANCH   3   5
BRANCH   2  18
ATOM     18  C   LIG    1       -1.263   3.088   0.060  0.00  0.00    -0.140 A 
ATOM     19  C   LIG    1       -1.222   1.691   0.105  0.00  0.00    +0.060 A 
ATOM     20  C   LIG    1       -0.010   1.039   0.085  0.00  0.00    -0.010 A 
ATOM     21  C   LIG    1        1.172   1.768   0.010  0.00  0.00    +0.120 A 
ATOM     22  C   LIG    1        1.135   3.157  -0.039  0.00  0.00    +0.020 A 
ATOM     23  C   LIG    1       -0.073   3.816  -0.015  0.00  0.00    +0.120 A 
BRANCH  21  24
ATOM     24  O   LIG    1        2.365   1.121  -0.014  0.00  0.00    -0.260 OA
BRANCH  24  25
ATOM     25  C   LIG    1        2.662   0.372  -1.108  0.00  0.00    +0.120 A 
ATOM     26  C   LIG    1        1.816   0.381  -2.207  0.00  0.00    -0.060 A 
ATOM     27  C   LIG    1        2.122  -0.378  -3.320  0.00  0.00    +0.050 A 
ATOM     28  C   LIG    1        3.267  -1.154  -3.335  0.00  0.00    -0.020 A 
ATOM     29  C   LIG    1        4.110  -1.169  -2.239  0.00  0.00    +0.050 A 
ATOM     30  C   LIG    1        3.810  -0.408  -1.126  0.00  0.00    -0.010 A 
ENDBRANCH  24  25
ENDBRANCH  21  24
ENDBRANCH   2  18
TORSDOF 6
