REMARK  Name = ZINCqH0000006eUe.0
REMARK                            x       y       z     vdW  Elec       q    Type
REMARK                         _______ _______ _______ _____ _____    ______ ____
ROOT
ATOM      1  C   LIG    1        2.539   5.565   0.007  0.00  0.00    +0.510 C 
ATOM      2  O   LIG    1        1.515   6.218   0.020  0.00  0.00    -0.490 OA
ENDROOT
BRANCH   1   7
ATOM      3  C   LIG    1        1.185   2.058   0.002  0.00  0.00    +0.130 A 
ATOM      4  C   LIG    1        2.359   1.318  -0.013  0.00  0.00    +0.000 A 
ATOM      5  C   LIG    1        3.586   1.957  -0.022  0.00  0.00    -0.060 A 
ATOM      6  C   LIG    1        3.651   3.336  -0.015  0.00  0.00    +0.080 A 
ATOM      7  C   LIG    1        2.475   4.089  -0.000  0.00  0.00    -0.080 A 
ATOM      8 BR   LIG    1        5.180   0.939  -0.042  0.00  0.00    -0.030 Br
ATOM      9  C   LIG    1        1.238   3.442   0.003  0.00  0.00    +0.080 A 
BRANCH   3  10
ATOM     10  O   LIG    1       -0.017   1.425   0.010  0.00  0.00    -0.300 OA
BRANCH  10  11
ATOM     11  C   LIG    1        0.002  -0.004   0.002  0.00  0.00    +0.220 C 
BRANCH  11  12
ATOM     12  C   LIG    1       -1.433  -0.534   0.013  0.00  0.00    +0.200 C 
BRANCH  12  14
ATOM     13  C   LIG    1       -3.443  -0.606  -1.292  0.00  0.00    +0.200 C 
ATOM     14  O   LIG    1       -2.089  -0.158  -1.200  0.00  0.00    -0.390 OA
ENDBRANCH  12  14
ENDBRANCH  11  12
ENDBRANCH  10  11
ENDBRANCH   3  10
ENDBRANCH   1   7
BRANCH   1  15
ATOM     15  O   LIG    1        3.734   6.187  -0.000  0.00  0.00    -0.350 OA
BRANCH  15  16
ATOM     16  C   LIG    1        3.722   7.639   0.007  0.00  0.00    +0.230 C 
BRANCH  16  17
ATOM     17  C   LIG    1        5.160   8.161  -0.003  0.00  0.00    +0.140 C 
BRANCH  17  18
ATOM     18  C   LIG    1        5.147   9.668   0.005  0.00  0.00    +0.090 A 
ATOM     19  C   LIG    1        5.242  10.444   1.117  0.00  0.00    -0.090 A 
ATOM     20  C   LIG    1        5.193  11.784   0.672  0.00  0.00    -0.170 A 
ATOM     21  C   LIG    1        5.242  13.029   1.296  0.00  0.00    +0.180 A 
ATOM     22  C   LIG    1        5.155  14.174   0.513  0.00  0.00    -0.080 A 
ATOM     23  C   LIG    1        5.025  14.075  -0.839  0.00  0.00    +0.330 A 
ATOM     24  N   LIG    1        4.976  12.886  -1.460  0.00  0.00    -0.490 N 
ATOM     25  H   LIG    1        4.883  12.851  -2.424  0.00  0.00    +0.420 HD
ATOM     26  C   LIG    1        5.056  11.719  -0.743  0.00  0.00    +0.250 A 
ATOM     27  N   LIG    1        5.035  10.439  -1.077  0.00  0.00    -0.540 NA
ENDBRANCH  17  18
ENDBRANCH  16  17
ENDBRANCH  15  16
ENDBRANCH   1  15
TORSDOF 9
