REMARK  Name = ZINCrg00000xdXqg.0
REMARK                            x       y       z     vdW  Elec       q    Type
REMARK                         _______ _______ _______ _____ _____    ______ ____
ROOT
ATOM      1  C   LIG    1       -2.031   4.201  -0.007  0.00  0.00    +0.620 C 
ATOM      2  N   LIG    1       -1.702   5.505   0.078  0.00  0.00    -0.600 N 
ATOM      3  C   LIG    1       -2.650   6.626   0.175  0.00  0.00    +0.260 C 
ATOM      4  C   LIG    1       -1.824   7.921   0.299  0.00  0.00    -0.010 C 
ATOM      5  C   LIG    1       -2.322   8.720   1.530  0.00  0.00    +0.250 C 
ATOM      6  C   LIG    1       -1.754   7.907   2.712  0.00  0.00    +0.200 C 
ATOM      7  O   LIG    1       -0.640   7.153   2.219  0.00  0.00    -0.360 OA
ATOM      8  C   LIG    1       -0.442   7.405   0.822  0.00  0.00    +0.190 C 
ATOM      9  C   LIG    1       -0.331   6.048   0.084  0.00  0.00    +0.270 C 
ATOM     10  O   LIG    1       -3.199   3.874  -0.096  0.00  0.00    -0.510 OA
ENDROOT
BRANCH   1  12
ATOM     11  C   LIG    1       -0.402   2.600  -1.113  0.00  0.00    -0.140 A 
ATOM     12  C   LIG    1       -0.979   3.175   0.006  0.00  0.00    -0.200 A 
ATOM     13  S   LIG    1       -0.245   2.484   1.446  0.00  0.00    +0.280 S 
ATOM     14  C   LIG    1        0.770   1.480   0.514  0.00  0.00    -0.070 A 
ATOM     15  C   LIG    1        0.566   1.655  -0.790  0.00  0.00    +0.040 A 
BRANCH  11  17
ATOM     16  C   LIG    1       -0.179   2.185  -3.646  0.00  0.00    +0.100 C 
ATOM     17  C   LIG    1       -0.773   2.948  -2.490  0.00  0.00    +0.410 C 
ATOM     18  O   LIG    1       -1.559   3.848  -2.698  0.00  0.00    -0.440 OA
ENDBRANCH  11  17
ENDBRANCH   1  12
BRANCH   5  19
ATOM     19  N   LIG    1       -3.787   8.747   1.575  0.00  0.00    -0.720 N 
ATOM     20  H   LIG    1       -4.298   8.044   1.145  0.00  0.00    +0.400 HD
ATOM     21  C   LIG    1       -4.423   9.750   2.213  0.00  0.00    +0.600 C 
ATOM     22  O   LIG    1       -3.781  10.632   2.751  0.00  0.00    -0.520 OA
BRANCH  21  23
ATOM     23  C   LIG    1       -5.895   9.777   2.257  0.00  0.00    -0.310 A 
ATOM     24  C   LIG    1       -6.750   8.850   1.695  0.00  0.00    +0.340 A 
ATOM     25  N   LIG    1       -8.005   9.244   1.964  0.00  0.00    -0.430 N 
ATOM     26  H   LIG    1       -8.814   8.783   1.692  0.00  0.00    +0.460 HD
ATOM     27  N   LIG    1       -7.950  10.430   2.704  0.00  0.00    -0.300 NA
ATOM     28  C   LIG    1       -6.698  10.755   2.890  0.00  0.00    +0.320 A 
ATOM     29  F   LIG    1       -6.250  11.836   3.566  0.00  0.00    -0.070 F 
ENDBRANCH  21  23
ENDBRANCH   5  19
TORSDOF 4
