REMARK  Name = ZINCc70000002z98.0
REMARK                            x       y       z     vdW  Elec       q    Type
REMARK                         _______ _______ _______ _____ _____    ______ ____
ROOT
ATOM      1  C   LIG    1       -1.267  -0.760   0.010  0.00  0.00    -0.040 A 
ATOM      2  C   LIG    1       -1.248  -2.154   0.002  0.00  0.00    +0.370 A 
ATOM      3  N   LIG    1       -2.383  -2.830   0.010  0.00  0.00    -0.510 NA
ATOM      4  C   LIG    1       -3.541  -2.181   0.025  0.00  0.00    +0.390 A 
ATOM      5  C   LIG    1       -3.559  -0.782   0.033  0.00  0.00    +0.030 A 
ATOM      6  C   LIG    1       -4.875  -0.046   0.050  0.00  0.00    +0.140 C 
ATOM      7  N   LIG    1       -2.430  -0.109   0.030  0.00  0.00    -0.350 NA
ENDROOT
BRANCH   4   8
ATOM      8  N   LIG    1       -4.730  -2.888   0.033  0.00  0.00    -0.820 N 
ATOM      9  H   LIG    1       -5.576  -2.414   0.044  0.00  0.00    +0.420 HD
ATOM     10  H   LIG    1       -4.717  -3.858   0.027  0.00  0.00    +0.410 HD
ENDBRANCH   4   8
BRANCH   1  11
ATOM     11  C   LIG    1        0.002  -0.004   0.002  0.00  0.00    +0.540 C 
ATOM     12  O   LIG    1        1.062  -0.597  -0.011  0.00  0.00    -0.500 OA
BRANCH  11  14
ATOM     13  C   LIG    1        1.268   2.020   0.001  0.00  0.00    +0.270 C 
ATOM     14  O   LIG    1       -0.016   1.343   0.009  0.00  0.00    -0.340 OA
ENDBRANCH  11  14
ENDBRANCH   1  11
TORSDOF 3
