REMARK  Name = ZINCkj000005feGP.0
REMARK                            x       y       z     vdW  Elec       q    Type
REMARK                         _______ _______ _______ _____ _____    ______ ____
ROOT
ATOM      1  C   LIG    1       -1.398   8.750   1.607  0.00  0.00    +0.510 C 
ATOM      2  N   LIG    1       -0.870   7.764   0.856  0.00  0.00    -0.590 N 
ATOM      3  C   LIG    1       -1.639   7.156  -0.241  0.00  0.00    +0.320 C 
ATOM      4  C   LIG    1       -1.607   5.633  -0.071  0.00  0.00    +0.210 C 
ATOM      5  N   LIG    1       -0.212   5.185   0.033  0.00  0.00    -0.480 N 
ATOM      6  C   LIG    1        0.440   5.741   1.226  0.00  0.00    +0.210 C 
ATOM      7  C   LIG    1        0.492   7.269   1.109  0.00  0.00    +0.290 C 
ATOM      8  O   LIG    1       -2.522   9.147   1.384  0.00  0.00    -0.520 OA
ENDROOT
BRANCH   5   9
ATOM      9  C   LIG    1       -0.133   3.796   0.024  0.00  0.00    +0.290 A 
ATOM     10  N   LIG    1       -0.675   3.102   1.012  0.00  0.00    -0.500 NA
ATOM     11  C   LIG    1       -0.628   1.783   1.039  0.00  0.00    +0.280 A 
ATOM     12  C   LIG    1        0.005   1.077   0.036  0.00  0.00    +0.000 A 
ATOM     13  C   LIG    1        0.587   1.766  -1.019  0.00  0.00    +0.090 A 
ATOM     14  C   LIG    1        0.516   3.148  -1.024  0.00  0.00    -0.060 A 
ATOM     15 CL   LIG    1        1.226   4.062  -2.318  0.00  0.00    -0.030 Cl
ENDBRANCH   5   9
BRANCH   1  16
ATOM     16  C   LIG    1       -0.593   9.359   2.726  0.00  0.00    +0.180 C 
BRANCH  16  17
ATOM     17  N   LIG    1       -1.148  10.675   3.069  0.00  0.00    -0.620 N 
ATOM     18  H   LIG    1       -0.609  11.083   3.818  0.00  0.00    +0.440 HD
ATOM     19  H   LIG    1       -2.107  10.568   3.365  0.00  0.00    +0.440 HD
ATOM     20  H   LIG    1       -1.110  11.277   2.261  0.00  0.00    +0.440 HD
ENDBRANCH  16  17
BRANCH  16  22
ATOM     21  C   LIG    1        0.168   9.064   5.087  0.00  0.00    +0.060 C 
ATOM     22  C   LIG    1       -0.650   8.446   3.952  0.00  0.00    +0.010 C 
ATOM     23  C   LIG    1       -2.104   8.284   4.400  0.00  0.00    +0.050 C 
ENDBRANCH  16  22
ENDBRANCH   1  16
TORSDOF 4
