REMARK  Name = ZINCrg00000KlXkY.0
REMARK                            x       y       z     vdW  Elec       q    Type
REMARK                         _______ _______ _______ _____ _____    ______ ____
ROOT
ATOM      1  O   LIG    1        3.260   0.708  -2.385  0.00  0.00    -0.520 OA
ATOM      2  C   LIG    1        4.054   0.669  -1.469  0.00  0.00    +0.520 C 
ATOM      3  N   LIG    1        5.377   0.632  -1.726  0.00  0.00    -0.610 N 
ATOM      4  C   LIG    1        6.351   0.591  -0.627  0.00  0.00    +0.270 C 
ATOM      5  C   LIG    1        7.357   1.726  -0.812  0.00  0.00    +0.030 C 
ATOM      6  C   LIG    1        7.978   1.632  -2.208  0.00  0.00    +0.020 C 
ATOM      7  C   LIG    1        6.883   1.778  -3.267  0.00  0.00    +0.260 C 
ATOM      8  C   LIG    1        5.871   0.638  -3.109  0.00  0.00    +0.280 C 
ENDROOT
BRANCH   7   9
ATOM      9  N   LIG    1        7.482   1.719  -4.602  0.00  0.00    -0.420 N 
ATOM     10  N   LIG    1        8.195   0.580  -4.993  0.00  0.00    -0.190 NA
ATOM     11  C   LIG    1        8.734   0.499  -6.176  0.00  0.00    +0.240 A 
ATOM     12  C   LIG    1        8.618   1.569  -7.089  0.00  0.00    +0.240 A 
ATOM     13  C   LIG    1        7.922   2.705  -6.719  0.00  0.00    -0.160 A 
ATOM     14  C   LIG    1        7.347   2.764  -5.442  0.00  0.00    +0.530 A 
ATOM     15  O   LIG    1        6.728   3.757  -5.092  0.00  0.00    -0.550 OA
BRANCH  12  16
ATOM     16  N   LIG    1        9.196   1.483  -8.344  0.00  0.00    -0.600 N 
ATOM     17  C   LIG    1        8.964   2.524  -9.358  0.00  0.00    +0.260 C 
ATOM     18  C   LIG    1       10.328   2.968  -9.909  0.00  0.00    +0.220 C 
ATOM     19  O   LIG    1       11.058   1.816 -10.338  0.00  0.00    -0.380 OA
ATOM     20  C   LIG    1       11.362   0.892  -9.290  0.00  0.00    +0.220 C 
ATOM     21  C   LIG    1       10.055   0.345  -8.705  0.00  0.00    +0.260 C 
ENDBRANCH  12  16
ENDBRANCH   7   9
BRANCH   2  22
ATOM     22  C   LIG    1        3.562   0.662  -0.045  0.00  0.00    +0.130 C 
BRANCH  22  23
ATOM     23  C   LIG    1        2.056   0.709  -0.033  0.00  0.00    -0.170 A 
ATOM     24  C   LIG    1        1.222  -0.346  -0.043  0.00  0.00    +0.180 A 
ATOM     25  O   LIG    1       -0.041   0.111  -0.026  0.00  0.00    -0.180 OA
ATOM     26  C   LIG    1       -0.030   1.454  -0.005  0.00  0.00    +0.160 A 
ATOM     27  C   LIG    1        1.249   1.869  -0.009  0.00  0.00    -0.050 A 
ENDBRANCH  22  23
ENDBRANCH   2  22
TORSDOF 4
