REMARK  Name = ZINCpk00000xHZhl.0
REMARK                            x       y       z     vdW  Elec       q    Type
REMARK                         _______ _______ _______ _____ _____    ______ ____
ROOT
ATOM      1  C   LIG    1       -5.492   6.835   0.091  0.00  0.00    +0.140 C 
ATOM      2  C   LIG    1       -4.419   5.777   0.075  0.00  0.00    +0.190 A 
ATOM      3  C   LIG    1       -4.780   4.439   0.072  0.00  0.00    -0.040 A 
ATOM      4  C   LIG    1       -3.796   3.474   0.058  0.00  0.00    +0.030 A 
ATOM      5  C   LIG    1       -2.446   3.884   0.046  0.00  0.00    -0.130 A 
ATOM      6  C   LIG    1       -2.160   5.247   0.051  0.00  0.00    +0.080 A 
ATOM      7  S   LIG    1       -0.422   5.506   0.036  0.00  0.00    +0.260 S 
ATOM      8  C   LIG    1       -0.076   3.786   0.023  0.00  0.00    -0.320 A 
ATOM      9  C   LIG    1        1.169   3.099   0.007  0.00  0.00    +0.580 A 
ATOM     10  O   LIG    1        2.220   3.717   0.000  0.00  0.00    -0.520 OA
ATOM     11  N   LIG    1        1.165   1.751   0.000  0.00  0.00    -0.520 N 
ATOM     12  C   LIG    1       -0.013   1.076   0.008  0.00  0.00    +0.600 A 
ATOM     13  N   LIG    1       -1.155   1.690   0.017  0.00  0.00    -0.500 NA
ATOM     14  C   LIG    1       -1.239   3.048   0.030  0.00  0.00    +0.200 A 
ATOM     15  C   LIG    1       -4.156   2.011   0.053  0.00  0.00    +0.120 C 
ATOM     16  N   LIG    1       -3.157   6.139   0.065  0.00  0.00    -0.470 NA
ENDROOT
BRANCH  11  17
ATOM     17  C   LIG    1        2.431   1.014  -0.015  0.00  0.00    +0.350 C 
BRANCH  17  18
ATOM     18  C   LIG    1        2.852   0.769  -1.441  0.00  0.00    +0.500 C 
ATOM     19  N   LIG    1        3.995   0.104  -1.702  0.00  0.00    -0.610 N 
ATOM     20  C   LIG    1        4.852  -0.386  -0.610  0.00  0.00    +0.260 C 
ATOM     21  C   LIG    1        5.158  -1.869  -0.871  0.00  0.00    +0.220 C 
ATOM     22  O   LIG    1        5.674  -2.016  -2.196  0.00  0.00    -0.380 OA
ATOM     23  C   LIG    1        4.757  -1.638  -3.226  0.00  0.00    +0.220 C 
ATOM     24  C   LIG    1        4.427  -0.147  -3.086  0.00  0.00    +0.260 C 
ATOM     25  O   LIG    1        2.163   1.170  -2.355  0.00  0.00    -0.520 OA
ENDBRANCH  17  18
ENDBRANCH  11  17
TORSDOF 2
