REMARK  Name = ZINCnE000001LjoM.0
REMARK                            x       y       z     vdW  Elec       q    Type
REMARK                         _______ _______ _______ _____ _____    ______ ____
ROOT
ATOM      1  N   LIG    1        4.663  -0.032   0.847  0.00  0.00    -0.730 N 
ATOM      2  H   LIG    1        4.558   0.913   1.038  0.00  0.00    +0.390 HD
ATOM      3  C   LIG    1        5.684  -0.722   1.394  0.00  0.00    +0.670 C 
ATOM      4  O   LIG    1        5.814  -1.909   1.154  0.00  0.00    -0.610 OA
ENDROOT
BRANCH   3   5
ATOM      5  N   LIG    1        6.552  -0.103   2.199  0.00  0.00    -0.680 NA
ATOM      6  C   LIG    1        7.561  -0.784   2.739  0.00  0.00    +0.350 A 
ATOM      7  N   LIG    1        7.839  -2.093   2.580  0.00  0.00    -0.410 NA
ATOM      8  N   LIG    1        8.949  -2.571   3.244  0.00  0.00    -0.270 NA
ATOM      9  C   LIG    1        9.616  -1.733   3.965  0.00  0.00    +0.010 A 
ATOM     10  S   LIG    1        8.780  -0.180   3.795  0.00  0.00    -0.070 S 
BRANCH   9  11
ATOM     11  C   LIG    1       10.850  -2.017   4.781  0.00  0.00    +0.060 C 
ATOM     12  C   LIG    1       11.938  -2.881   4.141  0.00  0.00    +0.040 C 
ATOM     13  C   LIG    1       11.065  -3.454   5.260  0.00  0.00    +0.030 C 
ENDBRANCH   9  11
ENDBRANCH   3   5
BRANCH   1  14
ATOM     14  C   LIG    1        3.711  -0.711  -0.036  0.00  0.00    +0.290 C 
ATOM     15  C   LIG    1        4.265  -0.735  -1.462  0.00  0.00    +0.020 C 
BRANCH  14  19
ATOM     16  C   LIG    1       -0.017   1.382   0.010  0.00  0.00    +0.090 A 
ATOM     17  C   LIG    1        0.002  -0.004   0.002  0.00  0.00    -0.040 A 
ATOM     18  C   LIG    1        1.209  -0.678  -0.013  0.00  0.00    +0.060 A 
ATOM     19  C   LIG    1        2.397   0.028  -0.020  0.00  0.00    -0.090 A 
ATOM     20  C   LIG    1        2.383   1.411  -0.013  0.00  0.00    +0.030 A 
ATOM     21  C   LIG    1        1.179   2.090   0.002  0.00  0.00    +0.070 A 
ATOM     22  F   LIG    1        1.164   3.441   0.009  0.00  0.00    -0.130 F 
BRANCH  16  24
ATOM     23  C   LIG    1       -2.391   1.254   0.020  0.00  0.00    +0.250 C 
ATOM     24  O   LIG    1       -1.202   2.047   0.019  0.00  0.00    -0.310 OA
ENDBRANCH  16  24
ENDBRANCH  14  19
ENDBRANCH   1  14
TORSDOF 5
