REMARK  Name = ZINCvU00000008ld.0
REMARK                            x       y       z     vdW  Elec       q    Type
REMARK                         _______ _______ _______ _____ _____    ______ ____
ROOT
ATOM      1  N   LIG    1       -0.704   1.998   1.216  0.00  0.00    -0.730 N 
ATOM      2  H   LIG    1       -1.058   1.359   1.854  0.00  0.00    +0.400 HD
ATOM      3  C   LIG    1       -0.843   3.320   1.438  0.00  0.00    +0.520 C 
ATOM      4  O   LIG    1       -0.401   4.119   0.639  0.00  0.00    -0.510 OA
ENDROOT
BRANCH   1   5
ATOM      5  C   LIG    1       -0.019   1.526   0.010  0.00  0.00    +0.290 C 
BRANCH   5   6
ATOM      6  C   LIG    1        0.002  -0.004   0.002  0.00  0.00    +0.030 C 
BRANCH   6   7
ATOM      7  C   LIG    1        0.813  -0.489  -1.172  0.00  0.00    -0.060 A 
ATOM      8  C   LIG    1        0.431  -0.158  -2.459  0.00  0.00    +0.050 A 
ATOM      9  C   LIG    1        1.178  -0.598  -3.536  0.00  0.00    +0.040 A 
ATOM     10  C   LIG    1        2.300  -1.379  -3.328  0.00  0.00    -0.030 A 
ATOM     11  C   LIG    1        2.679  -1.716  -2.040  0.00  0.00    +0.050 A 
ATOM     12 CL   LIG    1        3.233  -1.937  -4.681  0.00  0.00    -0.050 Cl
ATOM     13  C   LIG    1        1.935  -1.271  -0.963  0.00  0.00    -0.020 A 
ATOM     14 CL   LIG    1        2.410  -1.692   0.653  0.00  0.00    -0.050 Cl
ENDBRANCH   6   7
BRANCH   6  15
ATOM     15  C   LIG    1       -1.429  -0.533  -0.113  0.00  0.00    +0.030 C 
BRANCH  15  17
ATOM     16  C   LIG    1       -2.851  -2.587  -0.111  0.00  0.00    +0.010 C 
ATOM     17  C   LIG    1       -1.420  -2.058   0.004  0.00  0.00    +0.000 C 
ENDBRANCH  15  17
ENDBRANCH   6  15
ENDBRANCH   5   6
ENDBRANCH   1   5
BRANCH   3  18
ATOM     18  C   LIG    1       -1.549   3.806   2.677  0.00  0.00    +0.250 C 
BRANCH  18  19
ATOM     19  O   LIG    1       -1.569   5.258   2.685  0.00  0.00    -0.330 OA
BRANCH  19  20
ATOM     20  C   LIG    1       -2.165   5.854   3.730  0.00  0.00    +0.470 C 
ATOM     21  O   LIG    1       -2.654   5.184   4.609  0.00  0.00    -0.510 OA
BRANCH  20  22
ATOM     22  C   LIG    1       -2.224   7.358   3.807  0.00  0.00    +0.130 C 
BRANCH  22  23
ATOM     23  C   LIG    1       -2.951   7.775   5.087  0.00  0.00    +0.060 C 
BRANCH  23  24
ATOM     24  C   LIG    1       -3.010   9.278   5.164  0.00  0.00    +0.400 C 
ATOM     25  O   LIG    1       -2.519   9.950   4.282  0.00  0.00    -0.440 OA
BRANCH  24  26
ATOM     26  C   LIG    1       -3.664   9.931   6.309  0.00  0.00    -0.170 A 
ATOM     27  C   LIG    1       -4.237   9.159   7.325  0.00  0.00    +0.080 A 
ATOM     28  C   LIG    1       -4.844   9.777   8.397  0.00  0.00    +0.020 A 
ATOM     29  C   LIG    1       -4.896  11.161   8.464  0.00  0.00    -0.000 A 
ATOM     30  C   LIG    1       -4.335  11.932   7.459  0.00  0.00    +0.020 A 
ATOM     31 CL   LIG    1       -5.668  11.931   9.815  0.00  0.00    -0.060 Cl
ATOM     32  C   LIG    1       -3.721  11.327   6.383  0.00  0.00    +0.100 A 
ENDBRANCH  24  26
ENDBRANCH  23  24
ENDBRANCH  22  23
ENDBRANCH  20  22
ENDBRANCH  19  20
ENDBRANCH  18  19
ENDBRANCH   3  18
TORSDOF 12
