REMARK  Name = ZINCrD00000F5LsU.0
REMARK                            x       y       z     vdW  Elec       q    Type
REMARK                         _______ _______ _______ _____ _____    ______ ____
ROOT
ATOM      1  C   LIG    1       -3.061   1.690   0.355  0.00  0.00    +0.300 C 
ATOM      2  C   LIG    1       -4.394   1.890   0.659  0.00  0.00    -0.160 C 
ENDROOT
BRANCH   1   6
ATOM      3  C   LIG    1       -0.825   1.917   4.878  0.00  0.00    +0.130 C 
ATOM      4  C   LIG    1       -1.091   1.891   3.396  0.00  0.00    +0.010 A 
ATOM      5  C   LIG    1       -2.300   1.756   2.825  0.00  0.00    +0.000 A 
ATOM      6  C   LIG    1       -2.078   1.792   1.372  0.00  0.00    -0.220 A 
ATOM      7  C   LIG    1       -0.712   1.942   1.202  0.00  0.00    +0.120 A 
ATOM      8  C   LIG    1        0.011   2.029  -0.118  0.00  0.00    +0.150 C 
ATOM      9  N   LIG    1       -0.143   2.002   2.420  0.00  0.00    -0.420 N 
BRANCH   9  10
ATOM     10  C   LIG    1        1.293   2.163   2.664  0.00  0.00    +0.300 C 
BRANCH  10  11
ATOM     11  C   LIG    1        1.630   3.653   2.755  0.00  0.00    -0.030 C 
ATOM     12  C   LIG    1        1.373   4.317   1.400  0.00  0.00    +0.020 C 
ATOM     13  C   LIG    1        3.103   3.820   3.133  0.00  0.00    +0.030 C 
ENDBRANCH  10  11
ENDBRANCH   9  10
ENDBRANCH   1   6
BRANCH   2  14
ATOM     14  C   LIG    1       -5.424   1.639  -0.356  0.00  0.00    +0.530 C 
ATOM     15  O   LIG    1       -5.104   1.256  -1.465  0.00  0.00    -0.510 OA
BRANCH  14  16
ATOM     16  O   LIG    1       -6.725   1.835  -0.059  0.00  0.00    -0.330 OA
BRANCH  16  17
ATOM     17  C   LIG    1       -7.688   1.567  -1.111  0.00  0.00    +0.250 C 
BRANCH  17  18
ATOM     18  C   LIG    1       -9.079   1.839  -0.600  0.00  0.00    +0.510 C 
ATOM     19  N   LIG    1      -10.142   1.657  -1.408  0.00  0.00    -0.720 N 
ATOM     20  H   LIG    1      -10.012   1.352  -2.320  0.00  0.00    +0.400 HD
ATOM     21  O   LIG    1       -9.243   2.221   0.540  0.00  0.00    -0.510 OA
BRANCH  19  22
ATOM     22  C   LIG    1      -11.495   1.921  -0.911  0.00  0.00    +0.240 C 
ATOM     23  C   LIG    1      -11.814   3.409  -1.068  0.00  0.00    +0.020 C 
BRANCH  22  24
ATOM     24  C   LIG    1      -12.503   1.096  -1.712  0.00  0.00    -0.020 C 
ATOM     25  C   LIG    1      -12.419   1.482  -3.190  0.00  0.00    +0.020 C 
ATOM     26  C   LIG    1      -13.916   1.372  -1.192  0.00  0.00    +0.030 C 
ENDBRANCH  22  24
ENDBRANCH  19  22
ENDBRANCH  17  18
ENDBRANCH  16  17
ENDBRANCH  14  16
ENDBRANCH   2  14
BRANCH   2  27
ATOM     27  C   LIG    1       -4.770   2.342   1.965  0.00  0.00    +0.270 C 
ATOM     28  N   LIG    1       -5.069   2.701   3.000  0.00  0.00    -0.420 NA
ENDBRANCH   2  27
TORSDOF 10
