REMARK  Name = ZINCrD000000B3Kd.0
REMARK                            x       y       z     vdW  Elec       q    Type
REMARK                         _______ _______ _______ _____ _____    ______ ____
ROOT
ATOM      1  O   LIG    1        1.035   1.970   0.004  0.00  0.00    -0.510 OA
ATOM      2  C   LIG    1       -0.005   1.347   0.014  0.00  0.00    +0.500 C 
ATOM      3  N   LIG    1        0.017  -0.001   0.008  0.00  0.00    -0.730 N 
ATOM      4  H   LIG    1       -0.815  -0.500   0.016  0.00  0.00    +0.400 HD
ENDROOT
BRANCH   2   5
ATOM      5  C   LIG    1       -1.323   2.078   0.025  0.00  0.00    +0.220 C 
ATOM      6  C   LIG    1       -2.110   1.722   1.304  0.00  0.00    +0.050 C 
ATOM      7  C   LIG    1       -2.767   3.072   1.695  0.00  0.00    +0.040 C 
ATOM      8  C   LIG    1       -1.668   4.083   1.284  0.00  0.00    +0.250 C 
ATOM      9  N   LIG    1       -1.089   3.529   0.047  0.00  0.00    -0.610 N 
ATOM     10  C   LIG    1       -0.450   4.236  -0.906  0.00  0.00    +0.540 C 
ATOM     11  O   LIG    1        0.064   3.664  -1.844  0.00  0.00    -0.520 OA
BRANCH  10  12
ATOM     12  C   LIG    1       -0.374   5.738  -0.807  0.00  0.00    -0.010 C 
ATOM     13  C   LIG    1       -1.638   6.353  -1.412  0.00  0.00    +0.030 C 
ATOM     14  C   LIG    1       -1.561   7.878  -1.312  0.00  0.00    +0.010 C 
ATOM     15  C   LIG    1       -0.334   8.378  -2.076  0.00  0.00    +0.000 C 
ATOM     16  C   LIG    1        0.930   7.763  -1.472  0.00  0.00    +0.010 C 
ATOM     17  C   LIG    1        0.853   6.238  -1.572  0.00  0.00    +0.040 C 
ENDBRANCH  10  12
ENDBRANCH   2   5
BRANCH   3  18
ATOM     18  C   LIG    1        1.298  -0.712  -0.009  0.00  0.00    +0.270 C 
BRANCH  18  19
ATOM     19  C   LIG    1        1.043  -2.221  -0.011  0.00  0.00    +0.110 C 
BRANCH  19  20
ATOM     20  C   LIG    1        2.361  -2.953  -0.029  0.00  0.00    -0.170 A 
ATOM     21  C   LIG    1        2.998  -3.424  -1.113  0.00  0.00    +0.230 A 
ATOM     22  N   LIG    1        4.168  -4.028  -0.740  0.00  0.00    -0.590 N 
ATOM     23  H   LIG    1        4.800  -4.441  -1.349  0.00  0.00    +0.420 HD
ATOM     24  C   LIG    1        4.311  -3.966   0.628  0.00  0.00    +0.090 A 
ATOM     25  C   LIG    1        5.288  -4.417   1.510  0.00  0.00    -0.010 A 
ATOM     26  C   LIG    1        5.144  -4.196   2.862  0.00  0.00    +0.030 A 
ATOM     27  C   LIG    1        4.031  -3.529   3.356  0.00  0.00    -0.030 A 
ATOM     28  C   LIG    1        3.060  -3.077   2.507  0.00  0.00    +0.050 A 
ATOM     29  C   LIG    1        3.186  -3.290   1.133  0.00  0.00    -0.100 A 
ENDBRANCH  19  20
ENDBRANCH  18  19
ENDBRANCH   3  18
TORSDOF 5
