REMARK  Name = ZINCrg00001JduNw.0
REMARK                            x       y       z     vdW  Elec       q    Type
REMARK                         _______ _______ _______ _____ _____    ______ ____
ROOT
ATOM      1  N   LIG    1       -2.921   1.039  -2.104  0.00  0.00    -0.460 N 
ATOM      2  C   LIG    1       -3.889   0.161  -1.702  0.00  0.00    +0.190 A 
ATOM      3  N   LIG    1       -3.401  -0.526  -0.708  0.00  0.00    -0.250 NA
ATOM      4  N   LIG    1       -2.197  -0.148  -0.461  0.00  0.00    -0.310 NA
ATOM      5  C   LIG    1       -1.854   0.814  -1.284  0.00  0.00    +0.340 A 
ENDROOT
BRANCH   2   6
ATOM      6  C   LIG    1       -5.266   0.016  -2.297  0.00  0.00    +0.260 C 
ATOM      7  C   LIG    1       -5.322  -1.254  -3.149  0.00  0.00    +0.050 C 
BRANCH   6   8
ATOM      8  O   LIG    1       -6.232  -0.073  -1.247  0.00  0.00    -0.350 OA
BRANCH   8   9
ATOM      9  C   LIG    1       -7.516   0.450  -1.593  0.00  0.00    +0.190 C 
BRANCH   9  10
ATOM     10  C   LIG    1       -8.464   0.303  -0.401  0.00  0.00    +0.190 C 
BRANCH  10  11
ATOM     11  O   LIG    1       -8.002   1.119   0.678  0.00  0.00    -0.380 OA
ATOM     12  C   LIG    1       -8.821   1.055   1.847  0.00  0.00    +0.200 C 
ENDBRANCH  10  11
ENDBRANCH   9  10
ENDBRANCH   8   9
ENDBRANCH   6   8
ENDBRANCH   2   6
BRANCH   5  13
ATOM     13  N   LIG    1       -0.635   1.472  -1.319  0.00  0.00    -0.450 N 
ATOM     14  C   LIG    1       -0.331   2.086  -0.019  0.00  0.00    +0.240 C 
BRANCH  13  15
ATOM     15  C   LIG    1        0.442   0.566  -1.738  0.00  0.00    +0.210 C 
ATOM     16  C   LIG    1        1.739   1.355  -1.889  0.00  0.00    +0.050 C 
ATOM     17  C   LIG    1        2.813   0.503  -2.557  0.00  0.00    +0.080 C 
ATOM     18  C   LIG    1        3.272  -0.603  -1.603  0.00  0.00    -0.330 C 
ATOM     19  S   LIG    1        1.873  -1.711  -1.265  0.00  0.00    +2.420 S 
ATOM     20  O   LIG    1        2.222  -2.568  -0.187  0.00  0.00    -0.940 OA
ATOM     21  O   LIG    1        1.434  -2.276  -2.492  0.00  0.00    -0.930 OA
ATOM     22  C   LIG    1        0.617  -0.532  -0.686  0.00  0.00    -0.350 C 
ENDBRANCH  13  15
ENDBRANCH   5  13
BRANCH   1  23
ATOM     23  C   LIG    1       -3.011   2.017  -3.191  0.00  0.00    +0.320 C 
BRANCH  23  24
ATOM     24  C   LIG    1       -2.552   1.370  -4.499  0.00  0.00    +0.020 C 
BRANCH  24  25
ATOM     25  C   LIG    1       -2.646   2.392  -5.634  0.00  0.00    +0.180 C 
BRANCH  25  27
ATOM     26  C   LIG    1       -2.267   2.661  -7.986  0.00  0.00    +0.200 C 
ATOM     27  O   LIG    1       -2.218   1.787  -6.856  0.00  0.00    -0.390 OA
ENDBRANCH  25  27
ENDBRANCH  24  25
ENDBRANCH  23  24
ENDBRANCH   1  23
TORSDOF 11
