REMARK  Name = ZINCpk00000KfLkN.0
REMARK                            x       y       z     vdW  Elec       q    Type
REMARK                         _______ _______ _______ _____ _____    ______ ____
ROOT
ATOM      1  S   LIG    1        2.965   0.292   1.261  0.00  0.00    +2.700 S 
ATOM      2  O   LIG    1        2.314   0.840   2.400  0.00  0.00    -0.930 OA
ATOM      3  O   LIG    1        4.378   0.235   1.127  0.00  0.00    -0.930 OA
ENDROOT
BRANCH   1   4
ATOM      4  N   LIG    1        2.405   1.136  -0.049  0.00  0.00    -0.950 N 
ATOM      5  C   LIG    1        3.192   1.211  -1.277  0.00  0.00    +0.290 C 
ATOM      6  C   LIG    1        3.192   2.627  -1.843  0.00  0.00    +0.290 C 
ATOM      7  N   LIG    1        3.421   3.609  -0.783  0.00  0.00    -0.720 N 
ATOM      8  H   LIG    1        4.289   4.033  -0.696  0.00  0.00    +0.410 HD
ATOM      9  C   LIG    1        2.425   3.929   0.077  0.00  0.00    +0.570 C 
ATOM     10  C   LIG    1        1.150   3.193   0.028  0.00  0.00    -0.120 A 
ATOM     11  C   LIG    1       -0.072   3.861   0.029  0.00  0.00    +0.090 A 
ATOM     12  C   LIG    1       -1.246   3.137   0.027  0.00  0.00    +0.020 A 
ATOM     13  C   LIG    1       -1.217   1.752   0.017  0.00  0.00    +0.060 A 
ATOM     14  C   LIG    1       -0.013   1.076   0.008  0.00  0.00    +0.000 A 
ATOM     15  O   LIG    1        2.583   4.822   0.887  0.00  0.00    -0.520 OA
ATOM     16  C   LIG    1        1.177   1.787   0.000  0.00  0.00    +0.170 A 
ENDBRANCH   1   4
BRANCH   1  24
ATOM     17  C   LIG    1       -1.607  -3.259   2.695  0.00  0.00    +0.200 C 
ATOM     18  C   LIG    1       -0.437  -3.803   1.917  0.00  0.00    +0.160 A 
ATOM     19  N   LIG    1       -0.294  -5.022   1.495  0.00  0.00    -0.260 NA
ATOM     20  O   LIG    1        0.933  -5.148   0.805  0.00  0.00    -0.070 OA
ATOM     21  C   LIG    1        1.570  -3.960   0.801  0.00  0.00    +0.340 A 
ATOM     22  N   LIG    1        2.727  -3.553   0.300  0.00  0.00    -0.480 NA
ATOM     23  C   LIG    1        3.139  -2.310   0.432  0.00  0.00    +0.460 A 
ATOM     24  C   LIG    1        2.382  -1.363   1.104  0.00  0.00    -0.770 A 
ATOM     25  C   LIG    1        1.168  -1.730   1.654  0.00  0.00    +0.290 A 
ATOM     26  C   LIG    1        0.749  -3.054   1.496  0.00  0.00    -0.270 A 
ENDBRANCH   1  24
TORSDOF 2
