REMARK  Name = ZINCqH00000099tR.0
REMARK                            x       y       z     vdW  Elec       q    Type
REMARK                         _______ _______ _______ _____ _____    ______ ____
ROOT
ATOM      1  N   LIG    1        2.481   6.957  -2.205  0.00  0.00    -0.740 N 
ATOM      2  H   LIG    1        3.326   6.695  -1.808  0.00  0.00    +0.400 HD
ATOM      3  C   LIG    1        1.322   6.538  -1.660  0.00  0.00    +0.710 C 
ATOM      4  N   LIG    1        1.337   5.756  -0.562  0.00  0.00    -0.610 N 
ATOM      5  C   LIG    1        2.614   5.362   0.038  0.00  0.00    +0.280 C 
ATOM      6  O   LIG    1        0.262   6.866  -2.158  0.00  0.00    -0.590 OA
ENDROOT
BRANCH   1   8
ATOM      7  C   LIG    1        2.302   9.269  -2.981  0.00  0.00    +0.040 C 
ATOM      8  C   LIG    1        2.464   7.806  -3.399  0.00  0.00    +0.300 C 
BRANCH   8   9
ATOM      9  C   LIG    1        3.758   7.639  -4.152  0.00  0.00    -0.100 A 
ATOM     10  C   LIG    1        4.952   7.544  -3.461  0.00  0.00    +0.040 A 
ATOM     11  C   LIG    1        6.139   7.386  -4.149  0.00  0.00    -0.010 A 
ATOM     12  C   LIG    1        6.135   7.333  -5.536  0.00  0.00    +0.160 A 
ATOM     13  C   LIG    1        4.935   7.434  -6.228  0.00  0.00    +0.030 A 
ATOM     14  C   LIG    1        3.750   7.587  -5.534  0.00  0.00    +0.060 A 
BRANCH  12  15
ATOM     15  N   LIG    1        7.338   7.177  -6.237  0.00  0.00    -0.330 N 
ATOM     16  C   LIG    1        8.570   7.072  -5.690  0.00  0.00    +0.230 A 
ATOM     17  C   LIG    1        9.460   6.933  -6.700  0.00  0.00    -0.100 A 
ATOM     18  C   LIG    1        8.750   6.962  -7.906  0.00  0.00    +0.250 A 
ATOM     19  N   LIG    1        7.479   7.108  -7.630  0.00  0.00    -0.290 NA
ENDBRANCH  12  15
ENDBRANCH   8   9
ENDBRANCH   1   8
BRANCH   4  20
ATOM     20  C   LIG    1        0.077   5.302   0.031  0.00  0.00    +0.330 C 
ATOM     21  C   LIG    1       -0.020   5.807   1.472  0.00  0.00    +0.040 C 
BRANCH  20  22
ATOM     22  C   LIG    1        0.033   3.795   0.023  0.00  0.00    +0.120 A 
ATOM     23  C   LIG    1       -1.188   3.148   0.031  0.00  0.00    -0.020 A 
ATOM     24  C   LIG    1       -1.217   1.761   0.017  0.00  0.00    +0.070 A 
ATOM     25  C   LIG    1       -0.013   1.076   0.008  0.00  0.00    -0.050 A 
ATOM     26  C   LIG    1        1.170   1.792   0.001  0.00  0.00    +0.260 A 
ATOM     27  N   LIG    1        1.160   3.110   0.008  0.00  0.00    -0.470 NA
ENDBRANCH  20  22
ENDBRANCH   4  20
TORSDOF 5
