REMARK  Name = ZINC570000003W2V.0
REMARK                            x       y       z     vdW  Elec       q    Type
REMARK                         _______ _______ _______ _____ _____    ______ ____
ROOT
ATOM      1  C   LIG    1       -0.016   1.317   0.009  0.00  0.00    +0.540 C 
ENDROOT
BRANCH   1   2
ATOM      2  N   LIG    1        0.002  -0.004   0.002  0.00  0.00    -0.750 NA
ATOM      3  H   LIG    1       -0.831  -0.500   0.007  0.00  0.00    +0.450 HD
ATOM      4  H   LIG    1        0.849  -0.478  -0.009  0.00  0.00    +0.440 HD
ENDBRANCH   1   2
BRANCH   1   5
ATOM      5  N   LIG    1        1.120   1.994   0.002  0.00  0.00    -0.740 NA
ATOM      6  H   LIG    1        1.966   1.520  -0.009  0.00  0.00    +0.440 HD
ATOM      7  H   LIG    1        1.107   2.964   0.007  0.00  0.00    +0.450 HD
ENDBRANCH   1   5
BRANCH   1   8
ATOM      8  C   LIG    1       -1.331   2.053   0.019  0.00  0.00    +0.260 C 
ATOM      9 CL   LIG    1       -1.133   3.627   0.877  0.00  0.00    -0.080 Cl
ENDBRANCH   1   8
TORSDOF 3
