REMARK  Name = ZINCnE000005uidn.2
REMARK                            x       y       z     vdW  Elec       q    Type
REMARK                         _______ _______ _______ _____ _____    ______ ____
ROOT
ATOM      1  C   LIG    1       -0.212   6.413   4.205  0.00  0.00    -0.090 C 
ATOM      2  C   LIG    1       -0.534   5.142   5.012  0.00  0.00    +0.190 C 
ATOM      3  N   LIG    1        0.597   4.208   4.822  0.00  0.00    -0.490 NA
ATOM      4  C   LIG    1        1.213   4.579   3.522  0.00  0.00    +0.180 C 
ATOM      5  C   LIG    1        1.148   6.127   3.527  0.00  0.00    +0.000 C 
ENDROOT
BRANCH   5   6
ATOM      6  C   LIG    1        1.166   6.674   2.098  0.00  0.00    +0.460 C 
ATOM      7  F   LIG    1        0.152   6.064   1.352  0.00  0.00    -0.190 F 
ATOM      8  F   LIG    1        2.406   6.401   1.510  0.00  0.00    -0.190 F 
ATOM      9  F   LIG    1        0.957   8.057   2.125  0.00  0.00    -0.160 F 
ENDBRANCH   5   6
BRANCH   1  11
ATOM     10  O   LIG    1       -0.284   7.466   6.321  0.00  0.00    -0.680 OA
ATOM     11  C   LIG    1       -0.098   7.602   5.124  0.00  0.00    +0.500 C 
ATOM     12  O   LIG    1        0.181   8.699   4.670  0.00  0.00    -0.680 OA
ENDBRANCH   1  11
BRANCH   3  13
ATOM     13  C   LIG    1        0.133   2.815   4.806  0.00  0.00    +0.260 C 
BRANCH  13  14
ATOM     14  C   LIG    1       -0.651   2.560   3.544  0.00  0.00    -0.120 A 
ATOM     15  C   LIG    1       -2.016   2.773   3.524  0.00  0.00    +0.070 A 
ATOM     16  C   LIG    1       -2.735   2.540   2.366  0.00  0.00    +0.020 A 
ATOM     17  C   LIG    1       -2.087   2.098   1.228  0.00  0.00    +0.060 A 
ATOM     18  C   LIG    1       -0.722   1.881   1.250  0.00  0.00    -0.190 A 
ATOM     19  C   LIG    1       -0.004   2.115   2.407  0.00  0.00    +0.080 A 
BRANCH  18  20
ATOM     20  C   LIG    1       -0.017   1.395   0.010  0.00  0.00    +0.510 C 
ATOM     21  F   LIG    1       -0.694   1.858  -1.124  0.00  0.00    -0.180 F 
ATOM     22  F   LIG    1        1.296   1.879  -0.000  0.00  0.00    -0.180 F 
ATOM     23  F   LIG    1        0.002  -0.004   0.002  0.00  0.00    -0.180 F 
ENDBRANCH  18  20
ENDBRANCH  13  14
ENDBRANCH   3  13
TORSDOF 5
