REMARK  Name = ZINCrH000004jxZZ.0
REMARK                            x       y       z     vdW  Elec       q    Type
REMARK                         _______ _______ _______ _____ _____    ______ ____
ROOT
ATOM      1  C   LIG    1       -0.016   1.461   0.010  0.00  0.00    +0.290 C 
ATOM      2  N   LIG    1        0.005  -0.004   0.002  0.00  0.00    -0.600 N 
ATOM      3  C   LIG    1       -0.102  -0.673  -1.163  0.00  0.00    +0.530 C 
ATOM      4  O   LIG    1       -0.179  -1.883  -1.163  0.00  0.00    -0.530 OA
ENDROOT
BRANCH   2   5
ATOM      5  C   LIG    1        0.143  -0.742   1.260  0.00  0.00    +0.290 C 
ATOM      6  C   LIG    1        1.459  -0.354   1.930  0.00  0.00    +0.010 C 
ATOM      7  C   LIG    1        1.484  -0.965   3.336  0.00  0.00    +0.030 C 
ATOM      8  C   LIG    1        0.458  -0.232   4.198  0.00  0.00    +0.080 C 
ATOM      9  C   LIG    1       -0.879  -0.187   3.506  0.00  0.00    -0.070 A 
ATOM     10  C   LIG    1       -1.997   0.102   4.278  0.00  0.00    +0.000 A 
ATOM     11  C   LIG    1       -3.250   0.162   3.703  0.00  0.00    +0.010 A 
ATOM     12  C   LIG    1       -3.394  -0.067   2.347  0.00  0.00    +0.000 A 
ATOM     13  C   LIG    1       -2.285  -0.355   1.579  0.00  0.00    +0.020 A 
ATOM     14  C   LIG    1       -1.024  -0.417   2.156  0.00  0.00    -0.100 A 
ENDBRANCH   2   5
BRANCH   3  15
ATOM     15  C   LIG    1       -0.124   0.083  -2.467  0.00  0.00    +0.000 C 
ATOM     16  C   LIG    1       -1.576   0.393  -2.901  0.00  0.00    +0.090 C 
ATOM     17  C   LIG    1       -1.552   0.241  -4.407  0.00  0.00    +0.530 C 
ATOM     18  N   LIG    1       -0.450  -0.428  -4.787  0.00  0.00    -0.580 N 
ATOM     19  O   LIG    1       -2.404   0.663  -5.160  0.00  0.00    -0.510 OA
ATOM     20  C   LIG    1        0.370  -0.805  -3.630  0.00  0.00    +0.310 C 
BRANCH  18  21
ATOM     21  C   LIG    1       -0.127  -0.727  -6.116  0.00  0.00    +0.110 A 
ATOM     22  C   LIG    1       -0.561  -1.915  -6.687  0.00  0.00    +0.060 A 
ATOM     23  C   LIG    1       -0.246  -2.204  -8.001  0.00  0.00    +0.020 A 
ATOM     24  C   LIG    1        0.512  -1.319  -8.744  0.00  0.00    +0.060 A 
ATOM     25  C   LIG    1        0.952  -0.136  -8.178  0.00  0.00    -0.010 A 
ATOM     26  C   LIG    1        0.635   0.163  -6.865  0.00  0.00    +0.110 A 
ATOM     27  F   LIG    1        1.065   1.318  -6.312  0.00  0.00    -0.130 F 
ENDBRANCH  18  21
ENDBRANCH   3  15
TORSDOF 3
