REMARK  Name = ZINCtV00000L6l7n.0
REMARK                            x       y       z     vdW  Elec       q    Type
REMARK                         _______ _______ _______ _____ _____    ______ ____
ROOT
ATOM      1  C   LIG    1       -0.084  -2.940   0.656  0.00  0.00    +0.200 A 
ATOM      2  C   LIG    1        0.949  -2.331   1.358  0.00  0.00    -0.030 A 
ATOM      3  C   LIG    1        0.872  -0.989   1.672  0.00  0.00    +0.060 A 
ATOM      4  C   LIG    1       -0.237  -0.248   1.286  0.00  0.00    +0.090 A 
ATOM      5  C   LIG    1       -1.271  -0.858   0.589  0.00  0.00    +0.040 A 
ATOM      6  C   LIG    1       -1.193  -2.199   0.270  0.00  0.00    -0.040 A 
ENDROOT
BRANCH   4   7
ATOM      7  N   LIG    1       -0.314   1.114   1.605  0.00  0.00    -0.670 N 
ATOM      8  H   LIG    1       -1.175   1.521   1.790  0.00  0.00    +0.410 HD
ATOM      9  C   LIG    1        0.808   1.859   1.659  0.00  0.00    +0.510 C 
ATOM     10  O   LIG    1        1.873   1.374   1.340  0.00  0.00    -0.490 OA
BRANCH   9  11
ATOM     11  C   LIG    1        0.740   3.292   2.118  0.00  0.00    +0.240 C 
BRANCH  11  12
ATOM     12  O   LIG    1        2.049   3.865   2.090  0.00  0.00    -0.270 OA
BRANCH  12  13
ATOM     13  C   LIG    1        2.163   5.163   2.477  0.00  0.00    +0.150 A 
ATOM     14  C   LIG    1        1.040   5.870   2.876  0.00  0.00    -0.060 A 
ATOM     15  C   LIG    1        1.158   7.190   3.269  0.00  0.00    +0.080 A 
ATOM     16  C   LIG    1        2.395   7.805   3.266  0.00  0.00    +0.010 A 
ATOM     17  C   LIG    1        3.519   7.103   2.869  0.00  0.00    +0.010 A 
ATOM     18 CL   LIG    1        5.072   7.879   2.866  0.00  0.00    -0.040 Cl
ATOM     19  C   LIG    1        3.407   5.780   2.479  0.00  0.00    -0.070 A 
ATOM     20 CL   LIG    1        4.817   4.896   1.986  0.00  0.00    -0.030 Cl
ENDBRANCH  12  13
ENDBRANCH  11  12
ENDBRANCH   9  11
ENDBRANCH   4   7
BRANCH   1  21
ATOM     21  N   LIG    1       -0.006  -4.301   0.338  0.00  0.00    -0.580 N 
BRANCH  21  22
ATOM     22  C   LIG    1        1.157  -5.020   0.623  0.00  0.00    +0.160 A 
ATOM     23  C   LIG    1        2.324  -4.766  -0.086  0.00  0.00    +0.000 A 
ATOM     24  C   LIG    1        3.474  -5.476   0.202  0.00  0.00    +0.020 A 
ATOM     25  C   LIG    1        3.461  -6.444   1.189  0.00  0.00    +0.000 A 
ATOM     26  C   LIG    1        2.300  -6.702   1.894  0.00  0.00    +0.010 A 
ATOM     27  C   LIG    1        1.148  -5.994   1.614  0.00  0.00    +0.000 A 
ENDBRANCH  21  22
BRANCH  21  29
ATOM     28  C   LIG    1       -0.750  -5.429  -1.700  0.00  0.00    +0.030 C 
ATOM     29  C   LIG    1       -1.145  -4.971  -0.295  0.00  0.00    +0.240 C 
ATOM     30  C   LIG    1       -1.551  -6.186   0.542  0.00  0.00    +0.020 C 
ENDBRANCH  21  29
ENDBRANCH   1  21
TORSDOF 7
