REMARK  Name = ZINCpe00000xUSF8.0
REMARK                            x       y       z     vdW  Elec       q    Type
REMARK                         _______ _______ _______ _____ _____    ______ ____
ROOT
ATOM      1  C   LIG    1        6.741  -0.030  -1.621  0.00  0.00    +0.270 C 
ATOM      2  C   LIG    1        6.558   1.442  -1.835  0.00  0.00    -0.040 C 
ATOM      3  C   LIG    1        5.701   2.177  -1.201  0.00  0.00    -0.040 C 
ATOM      4  C   LIG    1        4.776   1.650  -0.140  0.00  0.00    +0.320 C 
ATOM      5  N   LIG    1        4.823   0.180  -0.145  0.00  0.00    -0.610 N 
ATOM      6  C   LIG    1        3.701  -0.558  -0.037  0.00  0.00    +0.580 C 
ATOM      7  O   LIG    1        3.774  -1.770   0.024  0.00  0.00    -0.530 OA
ATOM      8  C   LIG    1        6.148  -0.452  -0.268  0.00  0.00    +0.300 C 
ENDROOT
BRANCH   6   9
ATOM      9  C   LIG    1        2.384   0.105   0.009  0.00  0.00    -0.250 A 
ATOM     10  C   LIG    1        2.189   1.239   0.799  0.00  0.00    +0.340 A 
ATOM     11  N   LIG    1        1.014   1.832   0.840  0.00  0.00    -0.540 NA
ATOM     12  C   LIG    1       -0.018   1.379   0.141  0.00  0.00    +0.430 A 
ATOM     13  C   LIG    1        0.104   0.252  -0.669  0.00  0.00    -0.220 A 
ATOM     14  C   LIG    1        1.308  -0.395  -0.742  0.00  0.00    +0.190 A 
BRANCH  12  15
ATOM     15  N   LIG    1       -1.233   2.039   0.212  0.00  0.00    -0.840 N 
ATOM     16  H   LIG    1       -1.326   2.825   0.773  0.00  0.00    +0.410 HD
ATOM     17  H   LIG    1       -1.991   1.717  -0.300  0.00  0.00    +0.410 HD
ENDBRANCH  12  15
BRANCH  13  18
ATOM     18  C   LIG    1       -1.077  -0.250  -1.459  0.00  0.00    +0.250 C 
BRANCH  18  19
ATOM     19  O   LIG    1       -0.696  -1.409  -2.203  0.00  0.00    -0.570 OA
ATOM     20  H   LIG    1       -1.409  -1.787  -2.736  0.00  0.00    +0.390 HD
ENDBRANCH  18  19
ENDBRANCH  13  18
ENDBRANCH   6   9
BRANCH   1  22
ATOM     21  C   LIG    1        6.706  -0.983  -3.864  0.00  0.00    +0.520 C 
ATOM     22  N   LIG    1        6.068  -0.763  -2.697  0.00  0.00    -0.720 N 
ATOM     23  H   LIG    1        5.164  -1.091  -2.570  0.00  0.00    +0.400 HD
ATOM     24  O   LIG    1        7.837  -0.574  -4.024  0.00  0.00    -0.530 OA
BRANCH  21  25
ATOM     25  C   LIG    1        6.014  -1.737  -4.971  0.00  0.00    +0.060 C 
BRANCH  25  26
ATOM     26  C   LIG    1        6.951  -1.847  -6.176  0.00  0.00    +0.030 C 
ATOM     27  C   LIG    1        8.165  -2.700  -5.802  0.00  0.00    +0.030 C 
BRANCH  26  29
ATOM     28  C   LIG    1        6.071  -1.844  -8.453  0.00  0.00    +0.010 C 
ATOM     29  C   LIG    1        6.218  -2.491  -7.324  0.00  0.00    -0.040 C 
ENDBRANCH  26  29
ENDBRANCH  25  26
ENDBRANCH  21  25
ENDBRANCH   1  22
TORSDOF 8
