REMARK  Name = ZINCpk00000y2QEh.0
REMARK                            x       y       z     vdW  Elec       q    Type
REMARK                         _______ _______ _______ _____ _____    ______ ____
ROOT
ATOM      1  C   LIG    1        3.879  -6.701  -1.147  0.00  0.00    +0.580 C 
ATOM      2  N   LIG    1        3.310  -5.654  -1.777  0.00  0.00    -0.620 N 
ATOM      3  C   LIG    1        2.868  -5.635  -3.179  0.00  0.00    +0.240 C 
ATOM      4  C   LIG    1        2.258  -4.243  -3.448  0.00  0.00    +0.050 C 
ATOM      5  C   LIG    1        1.877  -3.750  -2.027  0.00  0.00    +0.130 C 
ATOM      6  C   LIG    1        3.028  -4.338  -1.173  0.00  0.00    +0.280 C 
ATOM      7  O   LIG    1        4.287  -6.577  -0.008  0.00  0.00    -0.520 OA
ENDROOT
BRANCH   1  13
ATOM      8  C   LIG    1        3.630  -9.182  -1.190  0.00  0.00    +0.180 A 
ATOM      9  C   LIG    1        3.754 -10.396  -1.851  0.00  0.00    -0.070 A 
ATOM     10  C   LIG    1        4.245 -10.435  -3.140  0.00  0.00    +0.070 A 
ATOM     11  C   LIG    1        4.618  -9.267  -3.784  0.00  0.00    -0.030 A 
ATOM     12  C   LIG    1        4.497  -8.052  -3.145  0.00  0.00    +0.090 A 
ATOM     13  C   LIG    1        4.006  -7.998  -1.839  0.00  0.00    -0.160 A 
BRANCH   8  15
ATOM     14  C   LIG    1        2.785 -10.389   0.673  0.00  0.00    +0.240 C 
ATOM     15  O   LIG    1        3.148  -9.142   0.077  0.00  0.00    -0.300 OA
ENDBRANCH   8  15
ENDBRANCH   1  13
BRANCH   5  16
ATOM     16  N   LIG    1        1.871  -2.282  -1.963  0.00  0.00    -0.520 NA
ATOM     17  C   LIG    1        0.915  -1.718  -2.924  0.00  0.00    +0.190 C 
BRANCH  16  18
ATOM     18  C   LIG    1        1.584  -1.816  -0.599  0.00  0.00    +0.290 C 
BRANCH  18  19
ATOM     19  C   LIG    1        1.826  -0.331  -0.515  0.00  0.00    +0.370 A 
ATOM     20  N   LIG    1        0.834   0.495  -0.776  0.00  0.00    -0.560 NA
ATOM     21  C   LIG    1        1.004   1.809  -0.714  0.00  0.00    +0.350 A 
ATOM     22  C   LIG    1        2.243   2.312  -0.369  0.00  0.00    -0.160 A 
ATOM     23  C   LIG    1        3.273   1.408  -0.099  0.00  0.00    +0.440 A 
ATOM     24  N   LIG    1        3.025   0.105  -0.183  0.00  0.00    -0.560 NA
BRANCH  23  25
ATOM     25  N   LIG    1        4.534   1.863   0.251  0.00  0.00    -0.840 N 
ATOM     26  H   LIG    1        4.707   2.816   0.310  0.00  0.00    +0.410 HD
ATOM     27  H   LIG    1        5.244   1.229   0.438  0.00  0.00    +0.410 HD
ENDBRANCH  23  25
ENDBRANCH  18  19
ENDBRANCH  16  18
ENDBRANCH   5  16
TORSDOF 6
