REMARK  Name = ZINCrH000004r3XS.0
REMARK                            x       y       z     vdW  Elec       q    Type
REMARK                         _______ _______ _______ _____ _____    ______ ____
ROOT
ATOM      1  C   LIG    1        5.625  -0.450  -3.203  0.00  0.00    +0.560 C 
ATOM      2  N   LIG    1        6.516   0.165  -2.401  0.00  0.00    -0.610 N 
ATOM      3  C   LIG    1        6.619   1.631  -2.385  0.00  0.00    +0.270 C 
ATOM      4  C   LIG    1        6.439   2.115  -0.936  0.00  0.00    +0.270 C 
ATOM      5  N   LIG    1        7.329   1.332  -0.067  0.00  0.00    -0.610 N 
ATOM      6  C   LIG    1        7.229  -0.134  -0.087  0.00  0.00    +0.290 C 
ATOM      7  C   LIG    1        8.220   1.948   0.735  0.00  0.00    +0.560 C 
ATOM      8  O   LIG    1        9.029   1.291   1.362  0.00  0.00    -0.530 OA
ATOM      9  C   LIG    1        7.406  -0.617  -1.532  0.00  0.00    +0.290 C 
ATOM     10  O   LIG    1        5.474  -1.654  -3.132  0.00  0.00    -0.530 OA
ENDROOT
BRANCH   7  11
ATOM     11  C   LIG    1        8.214   3.421   0.852  0.00  0.00    -0.130 A 
ATOM     12  C   LIG    1        9.412   4.115   0.843  0.00  0.00    +0.100 A 
ATOM     13  C   LIG    1        9.399   5.514   0.955  0.00  0.00    -0.060 A 
ATOM     14  C   LIG    1       10.595   6.255   0.949  0.00  0.00    +0.030 A 
ATOM     15  C   LIG    1       10.547   7.611   1.058  0.00  0.00    +0.010 A 
ATOM     16  C   LIG    1        9.330   8.278   1.176  0.00  0.00    +0.030 A 
ATOM     17  C   LIG    1        8.153   7.594   1.185  0.00  0.00    +0.020 A 
ATOM     18  C   LIG    1        8.161   6.194   1.074  0.00  0.00    -0.040 A 
ATOM     19  C   LIG    1        6.960   5.459   1.080  0.00  0.00    +0.030 A 
ATOM     20  C   LIG    1        6.992   4.107   0.966  0.00  0.00    +0.030 A 
ENDBRANCH   7  11
BRANCH   1  25
ATOM     21  C   LIG    1        2.533   2.619  -6.963  0.00  0.00    +0.100 C 
ATOM     22  C   LIG    1        3.341   1.817  -5.976  0.00  0.00    -0.060 A 
ATOM     23  C   LIG    1        4.630   2.211  -5.660  0.00  0.00    +0.000 A 
ATOM     24  C   LIG    1        5.377   1.478  -4.760  0.00  0.00    +0.050 A 
ATOM     25  C   LIG    1        4.830   0.339  -4.168  0.00  0.00    -0.140 A 
ATOM     26  C   LIG    1        3.530  -0.052  -4.491  0.00  0.00    +0.070 A 
ATOM     27  C   LIG    1        2.793   0.689  -5.393  0.00  0.00    +0.000 A 
ENDBRANCH   1  25
TORSDOF 2
