REMARK  Name = ZINCrD000000BsKB.0
REMARK                            x       y       z     vdW  Elec       q    Type
REMARK                         _______ _______ _______ _____ _____    ______ ____
ROOT
ATOM      1  C   LIG    1       -6.719   1.824  -5.410  0.00  0.00    +0.140 A 
ATOM      2  C   LIG    1       -7.207   1.073  -4.349  0.00  0.00    +0.000 A 
ATOM      3  C   LIG    1       -6.393   0.790  -3.271  0.00  0.00    +0.040 A 
ATOM      4  C   LIG    1       -5.085   1.256  -3.247  0.00  0.00    +0.150 A 
ATOM      5  C   LIG    1       -4.599   2.013  -4.305  0.00  0.00    +0.000 A 
ATOM      6  C   LIG    1       -5.411   2.291  -5.386  0.00  0.00    +0.040 A 
ENDROOT
BRANCH   1   9
ATOM      7  O   LIG    1       -5.824   2.059  -7.906  0.00  0.00    -0.570 OA
ATOM      8  C   LIG    1       -7.024   2.171  -7.745  0.00  0.00    +0.700 C 
ATOM      9  N   LIG    1       -7.546   2.111  -6.504  0.00  0.00    -0.680 N 
ATOM     10  H   LIG    1       -8.493   2.267  -6.368  0.00  0.00    +0.410 HD
ATOM     11  N   LIG    1       -7.832   2.354  -8.808  0.00  0.00    -0.740 N 
ATOM     12  H   LIG    1       -8.790   2.444  -8.680  0.00  0.00    +0.400 HD
BRANCH  11  13
ATOM     13  C   LIG    1       -7.265   2.419 -10.157  0.00  0.00    +0.340 C 
BRANCH  13  14
ATOM     14  C   LIG    1       -8.372   2.628 -11.158  0.00  0.00    -0.110 A 
ATOM     15  C   LIG    1       -9.002   1.539 -11.731  0.00  0.00    +0.020 A 
ATOM     16  C   LIG    1      -10.020   1.731 -12.645  0.00  0.00    +0.010 A 
ATOM     17  C   LIG    1      -10.403   3.013 -12.995  0.00  0.00    +0.010 A 
ATOM     18  C   LIG    1       -9.770   4.102 -12.426  0.00  0.00    +0.000 A 
ATOM     19  C   LIG    1       -8.755   3.910 -11.508  0.00  0.00    +0.020 A 
ENDBRANCH  13  14
ENDBRANCH  11  13
ENDBRANCH   1   9
BRANCH   4  20
ATOM     20  N   LIG    1       -4.258   0.969  -2.153  0.00  0.00    -0.690 N 
ATOM     21  H   LIG    1       -3.607   1.622  -1.852  0.00  0.00    +0.410 HD
ATOM     22  C   LIG    1       -4.368  -0.215  -1.518  0.00  0.00    +0.700 C 
ATOM     23  N   LIG    1       -3.512  -0.529  -0.526  0.00  0.00    -0.740 N 
ATOM     24  H   LIG    1       -2.816   0.096  -0.269  0.00  0.00    +0.400 HD
ATOM     25  O   LIG    1       -5.239  -0.999  -1.840  0.00  0.00    -0.570 OA
BRANCH  23  26
ATOM     26  C   LIG    1       -3.631  -1.816   0.164  0.00  0.00    +0.300 C 
BRANCH  26  27
ATOM     27  C   LIG    1       -2.546  -1.921   1.238  0.00  0.00    +0.140 C 
ATOM     28  C   LIG    1       -2.658  -3.275   1.965  0.00  0.00    +0.010 C 
ATOM     29  C   LIG    1       -1.278  -3.940   1.743  0.00  0.00    +0.000 C 
ATOM     30  C   LIG    1       -0.380  -2.721   1.411  0.00  0.00    +0.200 C 
ATOM     31  O   LIG    1       -1.245  -1.869   0.629  0.00  0.00    -0.370 OA
ENDBRANCH  26  27
ENDBRANCH  23  26
ENDBRANCH   4  20
TORSDOF 6
