REMARK  Name = ZINCrg000000nUCm.0
REMARK                            x       y       z     vdW  Elec       q    Type
REMARK                         _______ _______ _______ _____ _____    ______ ____
ROOT
ATOM      1  C   LIG    1       -0.192   1.119  -2.386  0.00  0.00    +0.080 A 
ATOM      2  C   LIG    1        1.191   1.162  -2.528  0.00  0.00    +0.020 A 
ATOM      3  C   LIG    1        1.784   0.670  -3.669  0.00  0.00    +0.080 A 
ATOM      4  C   LIG    1        0.996   0.126  -4.686  0.00  0.00    -0.110 A 
ATOM      5  C   LIG    1       -0.394   0.084  -4.543  0.00  0.00    +0.040 A 
ATOM      6  C   LIG    1       -0.982   0.572  -3.397  0.00  0.00    +0.110 A 
ATOM      7  F   LIG    1       -2.324   0.527  -3.254  0.00  0.00    -0.130 F 
ENDROOT
BRANCH   1  11
ATOM      8  N   LIG    1       -0.815   2.867   1.326  0.00  0.00    -0.540 NA
ATOM      9  C   LIG    1       -1.046   1.421   1.196  0.00  0.00    +0.190 C 
ATOM     10  C   LIG    1       -0.310   0.900  -0.041  0.00  0.00    +0.190 C 
ATOM     11  N   LIG    1       -0.788   1.617  -1.232  0.00  0.00    -0.500 N 
ATOM     12  C   LIG    1       -0.556   3.062  -1.100  0.00  0.00    +0.190 C 
ATOM     13  C   LIG    1       -1.292   3.584   0.136  0.00  0.00    +0.180 C 
BRANCH   8  15
ATOM     14  C   LIG    1       -0.748   2.803   3.773  0.00  0.00    +0.020 C 
ATOM     15  C   LIG    1       -1.444   3.393   2.545  0.00  0.00    +0.160 C 
ENDBRANCH   8  15
ENDBRANCH   1  11
BRANCH   4  16
ATOM     16  C   LIG    1        1.630  -0.401  -5.910  0.00  0.00    +0.580 C 
ATOM     17  N   LIG    1        2.555   0.332  -6.560  0.00  0.00    -0.570 N 
ATOM     18  O   LIG    1        1.317  -1.498  -6.332  0.00  0.00    -0.540 OA
BRANCH  17  19
ATOM     19  C   LIG    1        3.014   1.603  -5.992  0.00  0.00    +0.190 C 
BRANCH  19  20
ATOM     20  C   LIG    1        4.285   1.375  -5.216  0.00  0.00    +0.470 C 
ATOM     21  O   LIG    1        4.835   2.311  -4.660  0.00  0.00    -0.680 OA
ATOM     22  O   LIG    1        4.764   0.257  -5.143  0.00  0.00    -0.680 OA
ENDBRANCH  19  20
ENDBRANCH  17  19
BRANCH  17  23
ATOM     23  C   LIG    1        3.102  -0.140  -7.834  0.00  0.00    +0.300 C 
BRANCH  23  24
ATOM     24  C   LIG    1        2.245   0.390  -8.985  0.00  0.00    +0.230 C 
BRANCH  24  25
ATOM     25  N   LIG    1        2.793  -0.084 -10.263  0.00  0.00    -0.380 N 
ATOM     26  C   LIG    1        2.044   0.521 -11.372  0.00  0.00    +0.320 C 
ATOM     27  C   LIG    1        2.676  -1.547 -10.333  0.00  0.00    +0.320 C 
ATOM     28  H   LIG    1        3.765   0.179 -10.330  0.00  0.00    +0.430 HD
ENDBRANCH  24  25
ENDBRANCH  23  24
ENDBRANCH  17  23
ENDBRANCH   4  16
TORSDOF 8
