REMARK  Name = ZINCqH0000050900.0
REMARK                            x       y       z     vdW  Elec       q    Type
REMARK                         _______ _______ _______ _____ _____    ______ ____
ROOT
ATOM      1  N   LIG    1        2.197   2.916   2.652  0.00  0.00    -0.720 N 
ATOM      2  H   LIG    1        1.677   3.719   2.490  0.00  0.00    +0.400 HD
ATOM      3  C   LIG    1        3.534   2.933   2.484  0.00  0.00    +0.550 C 
ATOM      4  O   LIG    1        4.185   1.927   2.687  0.00  0.00    -0.510 OA
ENDROOT
BRANCH   3   5
ATOM      5  C   LIG    1        4.207   4.173   2.054  0.00  0.00    -0.150 A 
ATOM      6  C   LIG    1        3.463   5.332   1.819  0.00  0.00    +0.050 A 
ATOM      7  C   LIG    1        4.099   6.487   1.418  0.00  0.00    +0.020 A 
ATOM      8  C   LIG    1        5.473   6.506   1.246  0.00  0.00    +0.060 A 
ATOM      9  C   LIG    1        6.221   5.368   1.475  0.00  0.00    +0.000 A 
ATOM     10  C   LIG    1        5.599   4.197   1.884  0.00  0.00    +0.140 A 
BRANCH  10  11
ATOM     11  O   LIG    1        6.333   3.080   2.114  0.00  0.00    -0.240 OA
BRANCH  11  12
ATOM     12  C   LIG    1        6.492   2.200   1.091  0.00  0.00    +0.150 A 
ATOM     13  C   LIG    1        6.008   2.508  -0.173  0.00  0.00    -0.080 A 
ATOM     14  C   LIG    1        6.176   1.613  -1.212  0.00  0.00    +0.040 A 
ATOM     15  C   LIG    1        6.814   0.407  -0.991  0.00  0.00    -0.040 A 
ATOM     16  C   LIG    1        7.292   0.095   0.269  0.00  0.00    +0.050 A 
ATOM     17  C   LIG    1        7.132   0.989   1.310  0.00  0.00    -0.010 A 
ENDBRANCH  11  12
ENDBRANCH  10  11
ENDBRANCH   3   5
BRANCH   1  18
ATOM     18  C   LIG    1        1.528   1.685   3.079  0.00  0.00    +0.350 C 
BRANCH  18  23
ATOM     19  C   LIG    1       -4.130   2.646   3.555  0.00  0.00    +0.150 C 
ATOM     20  C   LIG    1       -2.650   2.392   3.425  0.00  0.00    +0.180 A 
ATOM     21  C   LIG    1       -2.158   1.875   2.274  0.00  0.00    -0.090 A 
ATOM     22  C   LIG    1       -0.783   1.631   2.149  0.00  0.00    +0.050 A 
ATOM     23  C   LIG    1        0.045   1.931   3.190  0.00  0.00    -0.260 A 
ATOM     24  C   LIG    1       -0.498   2.472   4.368  0.00  0.00    +0.530 A 
ATOM     25  O   LIG    1        0.232   2.744   5.307  0.00  0.00    -0.540 OA
ATOM     26  C   LIG    1       -0.226   1.050   0.875  0.00  0.00    +0.120 C 
ATOM     27  N   LIG    1       -1.824   2.689   4.460  0.00  0.00    -0.610 N 
ATOM     28  H   LIG    1       -2.193   3.063   5.276  0.00  0.00    +0.420 HD
ENDBRANCH  18  23
ENDBRANCH   1  18
TORSDOF 5
