REMARK  Name = ZINCrH00000No4Fe.0
REMARK                            x       y       z     vdW  Elec       q    Type
REMARK                         _______ _______ _______ _____ _____    ______ ____
ROOT
ATOM      1  N   LIG    1        3.536   1.606  -0.023  0.00  0.00    -0.550 N 
ENDROOT
BRANCH   1   2
ATOM      2  C   LIG    1        2.221   1.180  -0.013  0.00  0.00    +0.340 A 
ATOM      3  N   LIG    1        1.137   1.927   0.002  0.00  0.00    -0.590 NA
ATOM      4  C   LIG    1       -0.016   1.297   0.009  0.00  0.00    +0.310 A 
ATOM      5  N   LIG    1        0.002  -0.004   0.002  0.00  0.00    -0.490 NA
ATOM      6  S   LIG    1        1.644  -0.444  -0.016  0.00  0.00    +0.180 S 
BRANCH   4   7
ATOM      7  C   LIG    1       -1.317   2.057   0.019  0.00  0.00    +0.100 C 
ATOM      8  C   LIG    1       -2.122   1.677   1.266  0.00  0.00    +0.000 C 
ATOM      9  C   LIG    1       -3.475   2.394   1.228  0.00  0.00    +0.210 C 
ATOM     10  O   LIG    1       -4.165   2.041   0.028  0.00  0.00    -0.380 OA
ATOM     11  C   LIG    1       -3.482   2.414  -1.170  0.00  0.00    +0.210 C 
ATOM     12  C   LIG    1       -2.130   1.698  -1.228  0.00  0.00    +0.010 C 
ENDBRANCH   4   7
ENDBRANCH   1   2
BRANCH   1  13
ATOM     13  C   LIG    1        3.842   3.039  -0.019  0.00  0.00    +0.400 C 
BRANCH  13  15
ATOM     14  C   LIG    1        5.094   3.637   2.120  0.00  0.00    +0.170 A 
ATOM     15  C   LIG    1        3.961   3.523   1.403  0.00  0.00    -0.030 A 
ATOM     16  N   LIG    1        2.933   3.926   2.218  0.00  0.00    -0.460 N 
ATOM     17  C   LIG    1        1.474   4.102   2.230  0.00  0.00    +0.300 C 
ATOM     18  C   LIG    1        1.082   4.202   3.720  0.00  0.00    +0.050 C 
ATOM     19  C   LIG    1        2.388   4.729   4.355  0.00  0.00    +0.160 C 
ATOM     20  C   LIG    1        3.476   4.276   3.402  0.00  0.00    +0.190 A 
ATOM     21  N   LIG    1        4.772   4.105   3.334  0.00  0.00    -0.480 NA
ENDBRANCH  13  15
ENDBRANCH   1  13
BRANCH   1  22
ATOM     22  C   LIG    1        4.624   0.625  -0.038  0.00  0.00    +0.300 C 
BRANCH  22  23
ATOM     23  C   LIG    1        4.989   0.290  -1.486  0.00  0.00    +0.010 C 
BRANCH  23  24
ATOM     24  C   LIG    1        6.125  -0.734  -1.502  0.00  0.00    -0.020 C 
ATOM     25  C   LIG    1        7.525  -0.104  -1.410  0.00  0.00    +0.010 C 
ATOM     26  C   LIG    1        7.976  -1.150  -2.446  0.00  0.00    +0.010 C 
ATOM     27  C   LIG    1        6.512  -1.203  -2.914  0.00  0.00    +0.010 C 
ENDBRANCH  23  24
ENDBRANCH  22  23
ENDBRANCH   1  22
TORSDOF 7
