REMARK  Name = ZINCrH000004mpWR.0
REMARK                            x       y       z     vdW  Elec       q    Type
REMARK                         _______ _______ _______ _____ _____    ______ ____
ROOT
ATOM      1  S   LIG    1       -0.022   1.806   0.012  0.00  0.00    +0.080 S 
ENDROOT
BRANCH   1   6
ATOM      2  N   LIG    1        2.302   3.367  -0.002  0.00  0.00    -0.410 N 
ATOM      3  C   LIG    1        3.650   3.128  -0.016  0.00  0.00    +0.400 A 
ATOM      4  N   LIG    1        3.814   1.835  -0.025  0.00  0.00    -0.280 NA
ATOM      5  N   LIG    1        2.673   1.244  -0.011  0.00  0.00    -0.290 NA
ATOM      6  C   LIG    1        1.708   2.135  -0.003  0.00  0.00    +0.150 A 
BRANCH   2  10
ATOM      7  C   LIG    1        0.402   7.082   0.037  0.00  0.00    +0.150 A 
ATOM      8  C   LIG    1        1.414   6.811   0.947  0.00  0.00    +0.020 A 
ATOM      9  C   LIG    1        2.043   5.582   0.934  0.00  0.00    +0.080 A 
ATOM     10  C   LIG    1        1.662   4.617   0.012  0.00  0.00    +0.060 A 
ATOM     11  C   LIG    1        0.653   4.890  -0.901  0.00  0.00    +0.080 A 
ATOM     12  C   LIG    1        0.021   6.118  -0.884  0.00  0.00    -0.050 A 
BRANCH   7  14
ATOM     13  C   LIG    1       -1.250   8.503  -0.914  0.00  0.00    +0.250 C 
ATOM     14  O   LIG    1       -0.217   8.292   0.050  0.00  0.00    -0.310 OA
ENDBRANCH   7  14
ENDBRANCH   2  10
ENDBRANCH   1   6
BRANCH   1  15
ATOM     15  C   LIG    1        0.002  -0.004   0.002  0.00  0.00    +0.020 C 
ATOM     16  C   LIG    1        0.631  -0.513   1.301  0.00  0.00    +0.080 C 
BRANCH  15  17
ATOM     17  C   LIG    1       -1.407  -0.525  -0.111  0.00  0.00    +0.540 C 
ATOM     18  N   LIG    1       -1.628  -1.784  -0.537  0.00  0.00    -0.720 N 
ATOM     19  H   LIG    1       -0.880  -2.356  -0.771  0.00  0.00    +0.400 HD
ATOM     20  O   LIG    1       -2.343   0.189   0.181  0.00  0.00    -0.520 OA
BRANCH  18  21
ATOM     21  C   LIG    1       -2.999  -2.291  -0.647  0.00  0.00    +0.270 C 
BRANCH  21  22
ATOM     22  C   LIG    1       -2.970  -3.736  -1.149  0.00  0.00    +0.060 C 
BRANCH  22  23
ATOM     23  C   LIG    1       -4.379  -4.257  -1.262  0.00  0.00    -0.120 C 
ATOM     24  C   LIG    1       -4.965  -4.177  -2.414  0.00  0.00    -0.050 C 
ATOM     25  C   LIG    1       -6.365  -4.647  -2.679  0.00  0.00    +0.050 C 
ATOM     26  C   LIG    1       -6.830  -5.581  -1.559  0.00  0.00    +0.010 C 
ATOM     27  C   LIG    1       -6.536  -4.907  -0.213  0.00  0.00    +0.010 C 
ATOM     28  C   LIG    1       -5.018  -4.830  -0.032  0.00  0.00    +0.060 C 
ENDBRANCH  22  23
ENDBRANCH  21  22
ENDBRANCH  18  21
ENDBRANCH  15  17
ENDBRANCH   1  15
TORSDOF 8
