REMARK  Name = ZINCkj000005lPe2.0
REMARK                            x       y       z     vdW  Elec       q    Type
REMARK                         _______ _______ _______ _____ _____    ______ ____
ROOT
ATOM      1  O   LIG    1        2.408   5.146   0.008  0.00  0.00    -0.490 OA
ATOM      2  C   LIG    1        2.424   3.930   0.001  0.00  0.00    +0.570 C 
ATOM      3  N   LIG    1        3.601   3.273  -0.016  0.00  0.00    -0.760 N 
ATOM      4  H   LIG    1        3.614   2.303  -0.022  0.00  0.00    +0.390 HD
ENDROOT
BRANCH   2   5
ATOM      5  C   LIG    1        1.157   3.175   0.009  0.00  0.00    -0.150 A 
ATOM      6  C   LIG    1        1.173   1.778   0.000  0.00  0.00    +0.040 A 
ATOM      7  C   LIG    1       -0.013   1.076   0.008  0.00  0.00    +0.020 A 
ATOM      8  C   LIG    1       -1.223   1.748   0.017  0.00  0.00    +0.070 A 
ATOM      9  C   LIG    1       -1.255   3.134   0.031  0.00  0.00    +0.050 A 
ATOM     10  O   LIG    1       -2.457   3.773   0.043  0.00  0.00    -0.300 OA
ATOM     11  C   LIG    1       -2.449   5.151   0.432  0.00  0.00    +0.230 C 
ATOM     12  C   LIG    1       -1.306   5.854  -0.314  0.00  0.00    +0.220 C 
ATOM     13  O   LIG    1       -0.077   5.213   0.043  0.00  0.00    -0.270 OA
ATOM     14  C   LIG    1       -0.068   3.855   0.026  0.00  0.00    +0.120 A 
ENDBRANCH   2   5
BRANCH   3  15
ATOM     15  C   LIG    1        4.859   4.023  -0.025  0.00  0.00    +0.320 C 
BRANCH  15  16
ATOM     16  C   LIG    1        6.036   3.045  -0.044  0.00  0.00    +0.170 C 
ATOM     17  C   LIG    1        7.348   3.825   0.071  0.00  0.00    +0.070 C 
ATOM     18  C   LIG    1        8.522   2.842   0.052  0.00  0.00    +0.040 C 
ATOM     19  C   LIG    1        8.347   1.830   1.187  0.00  0.00    +0.050 C 
ATOM     20  C   LIG    1        6.998   1.124   1.031  0.00  0.00    +0.260 C 
ATOM     21  N   LIG    1        5.916   2.114   1.085  0.00  0.00    -0.510 N 
ATOM     22  H   LIG    1        5.026   1.641   1.035  0.00  0.00    +0.420 HD
ATOM     23  H   LIG    1        5.973   2.628   1.951  0.00  0.00    +0.430 HD
ENDBRANCH  15  16
ENDBRANCH   3  15
TORSDOF 3
