REMARK  Name = ZINCrH000004u7lt.0
REMARK                            x       y       z     vdW  Elec       q    Type
REMARK                         _______ _______ _______ _____ _____    ______ ____
ROOT
ATOM      1  O   LIG    1        6.865   0.471   2.127  0.00  0.00    -0.590 OA
ATOM      2  C   LIG    1        5.803   0.502   2.719  0.00  0.00    +0.710 C 
ATOM      3  N   LIG    1        4.658   0.231   2.062  0.00  0.00    -0.630 N 
ATOM      4  C   LIG    1        4.663   0.005   0.610  0.00  0.00    +0.300 C 
ATOM      5  C   LIG    1        3.646   0.949  -0.039  0.00  0.00    +0.030 C 
ATOM      6  C   LIG    1        2.280   0.753   0.623  0.00  0.00    +0.150 C 
ATOM      7  C   LIG    1        2.378   1.097   2.111  0.00  0.00    +0.000 C 
ATOM      8  C   LIG    1        3.381   0.155   2.784  0.00  0.00    +0.260 C 
ATOM      9  N   LIG    1        5.771   0.806   4.031  0.00  0.00    -0.740 N 
ATOM     10  H   LIG    1        4.935   0.759   4.520  0.00  0.00    +0.400 HD
ENDROOT
BRANCH   9  11
ATOM     11  C   LIG    1        7.000   1.209   4.720  0.00  0.00    +0.250 C 
ATOM     12  C   LIG    1        7.758  -0.038   5.185  0.00  0.00    +0.020 C 
ATOM     13  C   LIG    1        9.009   0.390   5.957  0.00  0.00    +0.200 C 
ATOM     14  N   LIG    1        8.617   1.206   7.112  0.00  0.00    -0.490 N 
ATOM     15  C   LIG    1        7.930   2.433   6.688  0.00  0.00    +0.190 C 
ATOM     16  C   LIG    1        6.647   2.066   5.938  0.00  0.00    +0.030 C 
BRANCH  14  17
ATOM     17  C   LIG    1        9.723   1.504   7.912  0.00  0.00    +0.110 A 
ATOM     18  C   LIG    1       10.040   2.826   8.198  0.00  0.00    -0.040 A 
ATOM     19  C   LIG    1       11.131   3.117   8.994  0.00  0.00    +0.030 A 
ATOM     20  C   LIG    1       11.914   2.094   9.497  0.00  0.00    -0.030 A 
ATOM     21  C   LIG    1       11.604   0.777   9.210  0.00  0.00    +0.030 A 
ATOM     22  C   LIG    1       10.512   0.479   8.419  0.00  0.00    -0.020 A 
ENDBRANCH  14  17
ENDBRANCH   9  11
BRANCH   6  23
ATOM     23  O   LIG    1        1.321   1.608  -0.002  0.00  0.00    -0.370 OA
BRANCH  23  24
ATOM     24  C   LIG    1       -0.012   1.092   0.008  0.00  0.00    +0.150 C 
ATOM     25  C   LIG    1       -0.788   1.617   1.241  0.00  0.00    +0.000 C 
ATOM     26  C   LIG    1       -2.267   1.493   0.788  0.00  0.00    +0.010 C 
ATOM     27  C   LIG    1       -2.241   1.884  -0.704  0.00  0.00    +0.020 C 
ATOM     28  C   LIG    1       -0.807   1.629  -1.200  0.00  0.00    +0.030 C 
ENDBRANCH  23  24
ENDBRANCH   6  23
TORSDOF 4
