REMARK  Name = ZINCvU0000000D7d.0
REMARK                            x       y       z     vdW  Elec       q    Type
REMARK                         _______ _______ _______ _____ _____    ______ ____
ROOT
ATOM      1  C   LIG    1        0.840   2.016  -0.996  0.00  0.00    +0.000 A 
ATOM      2  C   LIG    1        1.781   1.411  -0.144  0.00  0.00    -0.210 A 
ATOM      3  C   LIG    1        1.799   0.012  -0.022  0.00  0.00    +0.300 A 
ATOM      4  O   LIG    1        2.785  -0.297   0.844  0.00  0.00    -0.070 OA
ATOM      5  N   LIG    1        3.413   0.888   1.291  0.00  0.00    -0.260 NA
ATOM      6  N   LIG    1        0.935  -0.724  -0.705  0.00  0.00    -0.460 NA
ATOM      7  C   LIG    1        0.042  -0.186  -1.509  0.00  0.00    +0.240 A 
ATOM      8  C   LIG    1        2.847   1.923   0.728  0.00  0.00    +0.200 A 
ATOM      9  C   LIG    1       -0.043   1.185  -1.687  0.00  0.00    -0.010 A 
ENDROOT
BRANCH   8  10
ATOM     10  C   LIG    1        3.211   3.346   0.931  0.00  0.00    -0.040 A 
ATOM     11  C   LIG    1        4.550   3.732   0.933  0.00  0.00    +0.050 A 
ATOM     12  C   LIG    1        4.883   5.058   1.118  0.00  0.00    +0.010 A 
ATOM     13  C   LIG    1        3.891   6.002   1.313  0.00  0.00    +0.040 A 
ATOM     14  C   LIG    1        2.561   5.624   1.317  0.00  0.00    +0.020 A 
ATOM     15  C   LIG    1        2.216   4.301   1.128  0.00  0.00    +0.060 A 
ENDBRANCH   8  10
BRANCH   1  18
ATOM     16  N   LIG    1       -0.402   4.122  -1.156  0.00  0.00    -0.690 N 
ATOM     17  H   LIG    1       -1.223   3.616  -1.054  0.00  0.00    +0.400 HD
ATOM     18  C   LIG    1        0.787   3.487  -1.154  0.00  0.00    +0.560 C 
ATOM     19  O   LIG    1        1.815   4.122  -1.281  0.00  0.00    -0.490 OA
BRANCH  16  23
ATOM     20  C   LIG    1       -1.585   7.410  -2.799  0.00  0.00    +0.090 C 
ATOM     21  C   LIG    1       -1.732   6.180  -1.900  0.00  0.00    -0.090 C 
ATOM     22  C   LIG    1       -1.420   6.351  -0.412  0.00  0.00    +0.030 C 
ATOM     23  C   LIG    1       -0.454   5.578  -1.312  0.00  0.00    +0.250 C 
BRANCH  21  24
ATOM     24  C   LIG    1       -2.841   5.230  -2.274  0.00  0.00    -0.060 A 
ATOM     25  C   LIG    1       -2.648   4.308  -3.285  0.00  0.00    +0.010 A 
ATOM     26  C   LIG    1       -3.664   3.433  -3.626  0.00  0.00    +0.000 A 
ATOM     27  C   LIG    1       -4.875   3.488  -2.961  0.00  0.00    +0.000 A 
ATOM     28  C   LIG    1       -5.068   4.414  -1.952  0.00  0.00    +0.000 A 
ATOM     29  C   LIG    1       -4.051   5.285  -1.610  0.00  0.00    +0.010 A 
ENDBRANCH  21  24
ENDBRANCH  16  23
ENDBRANCH   1  18
BRANCH   7  30
ATOM     30  C   LIG    1       -0.911  -1.084  -2.255  0.00  0.00    +0.010 C 
ATOM     31  C   LIG    1       -2.156  -0.439  -2.868  0.00  0.00    +0.040 C 
ATOM     32  C   LIG    1       -2.285  -1.330  -1.630  0.00  0.00    +0.060 C 
ENDBRANCH   7  30
TORSDOF 5
