REMARK  Name = ZINCkj000005llMS.0
REMARK                            x       y       z     vdW  Elec       q    Type
REMARK                         _______ _______ _______ _____ _____    ______ ____
ROOT
ATOM      1  N   LIG    1        4.275  -0.263  -0.040  0.00  0.00    -0.710 N 
ATOM      2  H   LIG    1        4.911   0.470  -0.042  0.00  0.00    +0.410 HD
ATOM      3  C   LIG    1        2.952  -0.006  -0.026  0.00  0.00    +0.620 C 
ATOM      4  O   LIG    1        2.154  -0.926  -0.023  0.00  0.00    -0.530 OA
ENDROOT
BRANCH   3   5
ATOM      5  C   LIG    1        2.475   1.376  -0.014  0.00  0.00    +0.070 A 
ATOM      6  N   LIG    1        3.243   2.457  -0.016  0.00  0.00    -0.410 NA
ATOM      7  C   LIG    1        2.490   3.542  -0.003  0.00  0.00    +0.220 A 
ATOM      8  C   LIG    1        1.157   3.138   0.008  0.00  0.00    -0.000 A 
ATOM      9  C   LIG    1       -0.064   3.836   0.023  0.00  0.00    +0.140 A 
ATOM     10  C   LIG    1       -1.233   3.131   0.030  0.00  0.00    +0.020 A 
ATOM     11  C   LIG    1       -1.196   1.729   0.017  0.00  0.00    +0.070 A 
ATOM     12  C   LIG    1       -0.013   1.076   0.008  0.00  0.00    +0.230 A 
ATOM     13  F   LIG    1       -0.079   5.187   0.031  0.00  0.00    -0.110 F 
ATOM     14  N   LIG    1        1.162   1.766   0.001  0.00  0.00    -0.300 N 
ENDBRANCH   3   5
BRANCH   1  19
ATOM     15  C   LIG    1        6.185  -1.722  -0.636  0.00  0.00    -0.030 C 
ATOM     16  C   LIG    1        6.733  -3.039  -0.028  0.00  0.00    +0.030 C 
ATOM     17  C   LIG    1        6.160  -3.064   1.404  0.00  0.00    +0.040 C 
ATOM     18  C   LIG    1        4.901  -2.179   1.389  0.00  0.00    +0.020 C 
ATOM     19  C   LIG    1        4.753  -1.647  -0.051  0.00  0.00    +0.270 C 
BRANCH  15  20
ATOM     20  C   LIG    1        6.144  -1.802  -2.163  0.00  0.00    +0.280 C 
BRANCH  20  21
ATOM     21  N   LIG    1        7.513  -1.751  -2.694  0.00  0.00    -0.640 N 
ATOM     22  H   LIG    1        7.486  -1.804  -3.701  0.00  0.00    +0.440 HD
ATOM     23  H   LIG    1        8.044  -2.528  -2.331  0.00  0.00    +0.440 HD
ATOM     24  H   LIG    1        7.950  -0.885  -2.414  0.00  0.00    +0.440 HD
ENDBRANCH  20  21
ENDBRANCH  15  20
ENDBRANCH   1  19
TORSDOF 4
