REMARK  Name = ZINCqH00000330g7.0
REMARK                            x       y       z     vdW  Elec       q    Type
REMARK                         _______ _______ _______ _____ _____    ______ ____
ROOT
ATOM      1  N   LIG    1       -2.249   1.279   0.213  0.00  0.00    -0.550 N 
ATOM      2  C   LIG    1       -1.502   1.250   1.332  0.00  0.00    +0.520 C 
ATOM      3  C   LIG    1       -0.043   1.615   1.292  0.00  0.00    +0.070 C 
ATOM      4  C   LIG    1        0.576   1.147  -0.026  0.00  0.00    +0.100 C 
ATOM      5  C   LIG    1       -0.297   1.583  -1.175  0.00  0.00    -0.120 A 
ATOM      6  C   LIG    1        0.272   1.931  -2.383  0.00  0.00    +0.070 A 
ATOM      7  C   LIG    1       -0.536   2.332  -3.440  0.00  0.00    +0.100 A 
ATOM      8  C   LIG    1       -1.914   2.383  -3.280  0.00  0.00    +0.070 A 
ATOM      9  C   LIG    1       -2.482   2.034  -2.071  0.00  0.00    -0.010 A 
ATOM     10  O   LIG    1       -2.010   0.927   2.385  0.00  0.00    -0.520 OA
ATOM     11  C   LIG    1       -1.676   1.634  -1.014  0.00  0.00    +0.180 A 
ENDROOT
BRANCH   7  12
ATOM     12  N   LIG    1        0.040   2.686  -4.665  0.00  0.00    -1.060 N 
ATOM     13  H   LIG    1        0.384   1.997  -5.256  0.00  0.00    +0.430 HD
BRANCH  12  14
ATOM     14  S   LIG    1        0.133   4.279  -5.107  0.00  0.00    +2.690 S 
ATOM     15  O   LIG    1       -1.165   4.825  -4.917  0.00  0.00    -0.950 OA
ATOM     16  O   LIG    1        0.815   4.310  -6.353  0.00  0.00    -0.950 OA
BRANCH  14  17
ATOM     17  C   LIG    1        1.186   5.082  -3.944  0.00  0.00    -0.680 A 
ATOM     18  C   LIG    1        2.537   5.209  -4.207  0.00  0.00    +0.120 A 
ATOM     19  C   LIG    1        3.362   5.839  -3.295  0.00  0.00    -0.010 A 
ATOM     20  C   LIG    1        2.837   6.342  -2.120  0.00  0.00    -0.030 A 
ATOM     21  C   LIG    1        1.486   6.215  -1.856  0.00  0.00    -0.110 A 
ATOM     22  C   LIG    1        0.913   6.764  -0.575  0.00  0.00    +0.100 C 
ATOM     23  C   LIG    1        3.737   7.030  -1.125  0.00  0.00    +0.100 C 
ATOM     24  C   LIG    1        0.659   5.589  -2.771  0.00  0.00    +0.130 A 
ENDBRANCH  14  17
ENDBRANCH  12  14
ENDBRANCH   7  12
BRANCH   1  25
ATOM     25  C   LIG    1       -3.672   0.937   0.280  0.00  0.00    +0.280 C 
BRANCH  25  27
ATOM     26  C   LIG    1       -5.332  -0.924   0.123  0.00  0.00    +0.030 C 
ATOM     27  C   LIG    1       -3.846  -0.566   0.053  0.00  0.00    +0.000 C 
ENDBRANCH  25  27
ENDBRANCH   1  25
TORSDOF 5
