REMARK  Name = ZINCah0000003Xvh.0
REMARK                            x       y       z     vdW  Elec       q    Type
REMARK                         _______ _______ _______ _____ _____    ______ ____
ROOT
ATOM      1  C   LIG    1       -0.016   1.356   0.009  0.00  0.00    +0.030 A 
ATOM      2  C   LIG    1       -1.204   2.031   0.019  0.00  0.00    +0.020 A 
ATOM      3  C   LIG    1       -1.196   3.434   0.032  0.00  0.00    -0.160 A 
ATOM      4  C   LIG    1       -0.020   4.104   0.024  0.00  0.00    +0.310 A 
ATOM      5  N   LIG    1        1.163   3.432   0.009  0.00  0.00    -0.590 N 
ATOM      6  H   LIG    1        1.996   3.929   0.004  0.00  0.00    +0.430 HD
ATOM      7 BR   LIG    1       -2.828   4.389   0.053  0.00  0.00    -0.020 Br
ATOM      8  C   LIG    1        1.191   2.086   0.002  0.00  0.00    +0.530 A 
ATOM      9  O   LIG    1        2.260   1.497  -0.011  0.00  0.00    -0.520 OA
ENDROOT
BRANCH   1  11
ATOM     10  C   LIG    1       -1.262  -0.670   0.011  0.00  0.00    +0.250 C 
ATOM     11  O   LIG    1        0.002  -0.004   0.002  0.00  0.00    -0.290 OA
ENDBRANCH   1  11
TORSDOF 1
