REMARK  Name = ZINCvU0000000Ah3.0
REMARK                            x       y       z     vdW  Elec       q    Type
REMARK                         _______ _______ _______ _____ _____    ______ ____
ROOT
ATOM      1  C   LIG    1       -2.570   3.775   7.397  0.00  0.00    +0.310 A 
ATOM      2  N   LIG    1       -3.628   4.577   7.314  0.00  0.00    -0.440 NA
ATOM      3  C   LIG    1       -3.674   5.522   6.380  0.00  0.00    +0.330 A 
ATOM      4  N   LIG    1       -2.667   5.660   5.524  0.00  0.00    -0.500 NA
ATOM      5  C   LIG    1       -1.612   4.856   5.603  0.00  0.00    +0.340 A 
ATOM      6  N   LIG    1       -1.563   3.913   6.539  0.00  0.00    -0.480 NA
ENDROOT
BRANCH   1   7
ATOM      7  S   LIG    1       -2.506   2.526   8.638  0.00  0.00    +0.230 S 
BRANCH   7  11
ATOM      8  C   LIG    1       -6.436   3.281  10.660  0.00  0.00    -0.240 A 
ATOM      9  C   LIG    1       -5.635   2.254  11.140  0.00  0.00    +0.140 A 
ATOM     10  C   LIG    1       -4.421   2.019  10.520  0.00  0.00    +0.010 A 
ATOM     11  C   LIG    1       -4.049   2.812   9.440  0.00  0.00    +0.090 A 
ATOM     12  N   LIG    1       -4.843   3.779   9.008  0.00  0.00    -0.410 NA
ATOM     13  C   LIG    1       -6.006   4.026   9.579  0.00  0.00    +0.340 A 
BRANCH   8  15
ATOM     14  F   LIG    1       -8.380   4.644  10.645  0.00  0.00    -0.170 F 
ATOM     15  C   LIG    1       -7.764   3.578  11.308  0.00  0.00    +0.520 C 
ATOM     16  F   LIG    1       -7.563   3.917  12.650  0.00  0.00    -0.170 F 
ATOM     17  F   LIG    1       -8.584   2.446  11.231  0.00  0.00    -0.170 F 
ENDBRANCH   8  15
ENDBRANCH   7  11
ENDBRANCH   1   7
BRANCH   5  18
ATOM     18  S   LIG    1       -0.277   5.039   4.467  0.00  0.00    +0.140 S 
BRANCH  18  19
ATOM     19  C   LIG    1        0.449   6.521   5.084  0.00  0.00    +0.080 A 
ATOM     20  C   LIG    1        0.628   7.606   4.234  0.00  0.00    +0.040 A 
ATOM     21  C   LIG    1        1.199   8.764   4.732  0.00  0.00    +0.070 A 
ATOM     22  C   LIG    1        1.573   8.797   6.069  0.00  0.00    -0.010 A 
ATOM     23  C   LIG    1        1.365   7.681   6.856  0.00  0.00    +0.260 A 
ATOM     24  N   LIG    1        0.814   6.593   6.356  0.00  0.00    -0.450 NA
ENDBRANCH  18  19
ENDBRANCH   5  18
BRANCH   3  25
ATOM     25  S   LIG    1       -5.073   6.589   6.275  0.00  0.00    +0.160 S 
BRANCH  25  26
ATOM     26  C   LIG    1       -4.261   8.149   6.170  0.00  0.00    +0.080 A 
ATOM     27  C   LIG    1       -4.535   8.998   5.103  0.00  0.00    +0.040 A 
ATOM     28  C   LIG    1       -3.891  10.220   5.033  0.00  0.00    +0.080 A 
ATOM     29  C   LIG    1       -2.991  10.553   6.036  0.00  0.00    -0.010 A 
ATOM     30  C   LIG    1       -2.766   9.662   7.067  0.00  0.00    +0.260 A 
ATOM     31  N   LIG    1       -3.399   8.505   7.111  0.00  0.00    -0.450 NA
ENDBRANCH  25  26
ENDBRANCH   3  25
TORSDOF 7
