REMARK  Name = ZINCrH000004oB8X.0
REMARK                            x       y       z     vdW  Elec       q    Type
REMARK                         _______ _______ _______ _____ _____    ______ ____
ROOT
ATOM      1  C   LIG    1        9.782   2.662  -3.952  0.00  0.00    +0.080 C 
ATOM      2  C   LIG    1        8.353   3.207  -3.961  0.00  0.00    +0.030 C 
ATOM      3  C   LIG    1        8.110   4.006  -2.689  0.00  0.00    +0.030 C 
ATOM      4  C   LIG    1        6.840   4.823  -2.667  0.00  0.00    +0.300 C 
ATOM      5  N   LIG    1        5.654   3.951  -2.639  0.00  0.00    -0.570 N 
ATOM      6  C   LIG    1        5.091   3.556  -3.860  0.00  0.00    +0.150 A 
ATOM      7  C   LIG    1        3.885   4.111  -4.272  0.00  0.00    +0.010 A 
ATOM      8  C   LIG    1        3.353   3.759  -5.500  0.00  0.00    +0.040 A 
ATOM      9  C   LIG    1        4.009   2.864  -6.324  0.00  0.00    +0.030 A 
ATOM     10  C   LIG    1        5.202   2.291  -5.912  0.00  0.00    +0.080 A 
ATOM     11  C   LIG    1        5.719   2.625  -4.676  0.00  0.00    -0.100 A 
ATOM     12  C   LIG    1        5.120   3.548  -1.469  0.00  0.00    +0.540 C 
ATOM     13  O   LIG    1        5.620   3.900  -0.421  0.00  0.00    -0.520 OA
ATOM     14  S   LIG    1        7.181   1.823  -4.063  0.00  0.00    -0.140 S 
ENDROOT
BRANCH  12  15
ATOM     15  C   LIG    1        3.902   2.661  -1.463  0.00  0.00    +0.040 C 
BRANCH  15  16
ATOM     16  C   LIG    1        3.503   2.353  -0.018  0.00  0.00    +0.330 C 
BRANCH  16  17
ATOM     17  N   LIG    1        2.319   1.490  -0.012  0.00  0.00    -0.550 N 
ATOM     18  C   LIG    1        1.080   2.048   0.003  0.00  0.00    +0.570 A 
ATOM     19  N   LIG    1       -0.016   1.352   0.009  0.00  0.00    -0.520 NA
ATOM     20  C   LIG    1        0.002  -0.004   0.002  0.00  0.00    +0.150 A 
ATOM     21  C   LIG    1       -1.176  -0.753   0.009  0.00  0.00    +0.030 A 
ATOM     22  C   LIG    1       -1.111  -2.128   0.000  0.00  0.00    +0.070 A 
ATOM     23  C   LIG    1        0.114  -2.781  -0.015  0.00  0.00    -0.010 A 
ATOM     24  C   LIG    1        1.291  -2.065  -0.021  0.00  0.00    +0.100 A 
ATOM     25  C   LIG    1        1.247  -0.672  -0.013  0.00  0.00    -0.200 A 
ATOM     26  C   LIG    1        2.469   0.145  -0.021  0.00  0.00    +0.550 A 
ATOM     27  O   LIG    1        3.573  -0.368  -0.034  0.00  0.00    -0.500 OA
ENDBRANCH  16  17
ENDBRANCH  15  16
ENDBRANCH  12  15
TORSDOF 3
