REMARK  Name = ZINCrD00000F5LGT.0
REMARK                            x       y       z     vdW  Elec       q    Type
REMARK                         _______ _______ _______ _____ _____    ______ ____
ROOT
ATOM      1  C   LIG    1       -2.518   3.868   0.045  0.00  0.00    +0.510 C 
ATOM      2  O   LIG    1       -2.532   5.082   0.051  0.00  0.00    -0.500 OA
ENDROOT
BRANCH   1   6
ATOM      3  C   LIG    1        1.183   1.787   0.000  0.00  0.00    +0.160 A 
ATOM      4  C   LIG    1       -0.013   1.076   0.008  0.00  0.00    +0.020 A 
ATOM      5  C   LIG    1       -1.215   1.747   0.017  0.00  0.00    +0.110 A 
ATOM      6  C   LIG    1       -1.233   3.145   0.030  0.00  0.00    -0.120 A 
ATOM      7  C   LIG    1       -0.029   3.856   0.022  0.00  0.00    +0.110 A 
ATOM      8  C   LIG    1        1.169   3.177   0.007  0.00  0.00    +0.020 A 
BRANCH   3  15
ATOM      9  C   LIG    1        2.182   0.007   2.289  0.00  0.00    +0.120 C 
ATOM     10  C   LIG    1        2.878   0.301   0.985  0.00  0.00    +0.020 A 
ATOM     11  C   LIG    1        4.077  -0.181   0.602  0.00  0.00    -0.050 A 
ATOM     12  C   LIG    1        4.357   0.345  -0.676  0.00  0.00    -0.050 A 
ATOM     13  C   LIG    1        3.316   1.125  -1.030  0.00  0.00    +0.020 A 
ATOM     14  C   LIG    1        3.184   1.892  -2.320  0.00  0.00    +0.120 C 
ATOM     15  N   LIG    1        2.401   1.102  -0.015  0.00  0.00    -0.410 N 
ENDBRANCH   3  15
ENDBRANCH   1   6
BRANCH   1  16
ATOM     16  O   LIG    1       -3.677   3.181   0.053  0.00  0.00    -0.330 OA
BRANCH  16  17
ATOM     17  C   LIG    1       -4.904   3.958   0.068  0.00  0.00    +0.270 C 
BRANCH  17  18
ATOM     18  C   LIG    1       -6.089   3.026   0.075  0.00  0.00    +0.520 C 
ATOM     19  N   LIG    1       -7.340   3.527   0.089  0.00  0.00    -0.720 N 
ATOM     20  H   LIG    1       -7.478   4.487   0.095  0.00  0.00    +0.410 HD
ATOM     21  O   LIG    1       -5.916   1.825   0.068  0.00  0.00    -0.500 OA
BRANCH  19  22
ATOM     22  C   LIG    1       -8.491   2.621   0.096  0.00  0.00    +0.290 C 
ATOM     23  C   LIG    1       -8.458   1.744  -1.158  0.00  0.00    +0.080 C 
BRANCH  22  24
ATOM     24  C   LIG    1       -9.784   3.440   0.112  0.00  0.00    +0.010 C 
ATOM     25  C   LIG    1       -9.876   4.222   1.423  0.00  0.00    +0.030 C 
ATOM     26  C   LIG    1      -10.985   2.499  -0.007  0.00  0.00    +0.050 C 
ENDBRANCH  22  24
BRANCH  22  27
ATOM     27  C   LIG    1       -8.437   1.767   1.294  0.00  0.00    +0.200 C 
ATOM     28  N   LIG    1       -8.395   1.108   2.218  0.00  0.00    -0.410 NA
ENDBRANCH  22  27
ENDBRANCH  19  22
ENDBRANCH  17  18
ENDBRANCH  16  17
ENDBRANCH   1  16
TORSDOF 8
