REMARK  Name = ZINCvU0000000Ce0.0
REMARK                            x       y       z     vdW  Elec       q    Type
REMARK                         _______ _______ _______ _____ _____    ______ ____
ROOT
ATOM      1  N   LIG    1        2.101   4.392  -1.096  0.00  0.00    -0.450 N 
ATOM      2  C   LIG    1        1.984   3.586   0.002  0.00  0.00    +0.180 A 
ATOM      3  N   LIG    1        2.111   4.343   1.055  0.00  0.00    -0.250 NA
ATOM      4  N   LIG    1        2.295   5.565   0.700  0.00  0.00    -0.290 NA
ATOM      5  C   LIG    1        2.295   5.653  -0.610  0.00  0.00    +0.150 A 
ENDROOT
BRANCH   1   7
ATOM      6  C   LIG    1        0.581   4.065  -2.984  0.00  0.00    +0.050 C 
ATOM      7  C   LIG    1        2.031   3.987  -2.502  0.00  0.00    +0.300 C 
ENDBRANCH   1   7
BRANCH   2   8
ATOM      8  C   LIG    1        1.756   2.096  -0.004  0.00  0.00    +0.230 C 
BRANCH   8   9
ATOM      9  S   LIG    1       -0.022   1.758   0.012  0.00  0.00    +0.040 S 
BRANCH   9  10
ATOM     10  C   LIG    1        0.002  -0.004   0.002  0.00  0.00    +0.080 A 
ATOM     11  N   LIG    1        1.071  -0.726  -0.018  0.00  0.00    -0.470 NA
ATOM     12  C   LIG    1        0.926  -2.066  -0.018  0.00  0.00    +0.090 A 
ATOM     13  C   LIG    1        1.925  -3.062  -0.034  0.00  0.00    +0.080 A 
ATOM     14  C   LIG    1        1.582  -4.391  -0.038  0.00  0.00    +0.040 A 
ATOM     15  C   LIG    1        0.250  -4.776  -0.027  0.00  0.00    +0.040 A 
ATOM     16  C   LIG    1       -0.743  -3.821  -0.012  0.00  0.00    +0.060 A 
ATOM     17  C   LIG    1       -0.413  -2.468  -0.007  0.00  0.00    -0.170 A 
ATOM     18  S   LIG    1       -1.427  -1.027   0.010  0.00  0.00    +0.120 S 
ENDBRANCH   9  10
ENDBRANCH   8   9
ENDBRANCH   2   8
BRANCH   5  19
ATOM     19  S   LIG    1        2.510   7.121  -1.561  0.00  0.00    +0.090 S 
BRANCH  19  20
ATOM     20  C   LIG    1        2.709   8.332  -0.230  0.00  0.00    +0.110 C 
BRANCH  20  21
ATOM     21  C   LIG    1        2.913   9.702  -0.824  0.00  0.00    +0.540 C 
ATOM     22  N   LIG    1        3.084  10.767  -0.017  0.00  0.00    -0.720 N 
ATOM     23  H   LIG    1        3.076  10.652   0.947  0.00  0.00    +0.400 HD
ATOM     24  O   LIG    1        2.922   9.845  -2.028  0.00  0.00    -0.520 OA
BRANCH  22  25
ATOM     25  C   LIG    1        3.282  12.099  -0.594  0.00  0.00    +0.290 C 
ATOM     26  C   LIG    1        1.922  12.732  -0.896  0.00  0.00    +0.040 C 
BRANCH  25  27
ATOM     27  C   LIG    1        4.032  12.964   0.386  0.00  0.00    -0.100 A 
ATOM     28  C   LIG    1        3.735  12.899   1.734  0.00  0.00    +0.000 A 
ATOM     29  C   LIG    1        4.425  13.690   2.634  0.00  0.00    +0.020 A 
ATOM     30  C   LIG    1        5.407  14.552   2.183  0.00  0.00    +0.000 A 
ATOM     31  C   LIG    1        5.701  14.622   0.834  0.00  0.00    +0.020 A 
ATOM     32  C   LIG    1        5.013  13.828  -0.064  0.00  0.00    +0.020 A 
ENDBRANCH  25  27
ENDBRANCH  22  25
ENDBRANCH  20  21
ENDBRANCH  19  20
ENDBRANCH   5  19
TORSDOF 9
