REMARK  Name = ZINCqH0000007jZU.0
REMARK                            x       y       z     vdW  Elec       q    Type
REMARK                         _______ _______ _______ _____ _____    ______ ____
ROOT
ATOM      1  C   LIG    1        1.401   1.607  -0.003  0.00  0.00    +0.510 C 
ATOM      2  N   LIG    1        2.226   1.299  -1.023  0.00  0.00    -0.630 N 
ATOM      3  H   LIG    1        1.909   0.741  -1.751  0.00  0.00    +0.420 HD
ATOM      4  O   LIG    1        1.797   2.305   0.907  0.00  0.00    -0.490 OA
ENDROOT
BRANCH   2   5
ATOM      5  C   LIG    1        3.528   1.779  -1.033  0.00  0.00    +0.050 A 
ATOM      6  C   LIG    1        4.440   1.526  -2.015  0.00  0.00    -0.110 A 
ATOM      7  C   LIG    1        5.732   2.152  -1.781  0.00  0.00    -0.040 A 
ATOM      8  C   LIG    1        5.760   2.847  -0.639  0.00  0.00    -0.240 A 
ATOM      9  C   LIG    1        6.960   3.603  -0.108  0.00  0.00    +0.110 C 
ATOM     10  C   LIG    1        7.571   4.458  -1.216  0.00  0.00    +0.020 C 
ATOM     11  C   LIG    1        8.628   3.643  -1.955  0.00  0.00    +0.000 C 
ATOM     12  C   LIG    1        8.219   2.172  -1.991  0.00  0.00    +0.030 C 
ATOM     13  C   LIG    1        6.900   2.027  -2.744  0.00  0.00    +0.090 C 
ATOM     14  S   LIG    1        4.202   2.770   0.175  0.00  0.00    +0.320 S 
BRANCH   6  15
ATOM     15  C   LIG    1        4.154   0.722  -3.165  0.00  0.00    +0.270 C 
ATOM     16  N   LIG    1        3.927   0.084  -4.077  0.00  0.00    -0.420 NA
ENDBRANCH   6  15
ENDBRANCH   2   5
BRANCH   1  17
ATOM     17  C   LIG    1       -0.013   1.086   0.008  0.00  0.00    +0.250 C 
ATOM     18  C   LIG    1       -0.753   1.593  -1.232  0.00  0.00    +0.050 C 
BRANCH  17  19
ATOM     19  N   LIG    1       -0.698   1.558   1.213  0.00  0.00    -0.730 N 
ATOM     20  H   LIG    1       -0.402   2.370   1.653  0.00  0.00    +0.410 HD
BRANCH  19  24
ATOM     21  C   LIG    1       -3.881  -0.619   2.675  0.00  0.00    +0.270 A 
ATOM     22  C   LIG    1       -3.506   0.535   3.351  0.00  0.00    +0.000 A 
ATOM     23  C   LIG    1       -2.437   1.276   2.879  0.00  0.00    +0.030 A 
ATOM     24  C   LIG    1       -1.782   0.838   1.730  0.00  0.00    +0.130 A 
ATOM     25  C   LIG    1       -2.213  -0.325   1.109  0.00  0.00    +0.210 A 
ATOM     26  N   LIG    1       -3.233  -1.008   1.591  0.00  0.00    -0.500 NA
BRANCH  21  28
ATOM     27  C   LIG    1       -5.264  -2.531   2.396  0.00  0.00    +0.250 C 
ATOM     28  O   LIG    1       -4.925  -1.355   3.134  0.00  0.00    -0.310 OA
ENDBRANCH  21  28
ENDBRANCH  19  24
ENDBRANCH  17  19
ENDBRANCH   1  17
TORSDOF 6
