REMARK  Name = ZINCrD0000072rHN.0
REMARK                            x       y       z     vdW  Elec       q    Type
REMARK                         _______ _______ _______ _____ _____    ______ ____
ROOT
ATOM      1  C   LIG    1        0.698  -4.192   0.396  0.00  0.00    +0.140 A 
ATOM      2  C   LIG    1        2.013  -4.630   0.312  0.00  0.00    +0.010 A 
ATOM      3  C   LIG    1        2.294  -5.982   0.356  0.00  0.00    +0.040 A 
ATOM      4  C   LIG    1        1.262  -6.902   0.472  0.00  0.00    +0.070 A 
ATOM      5  C   LIG    1       -0.053  -6.464   0.550  0.00  0.00    +0.030 A 
ATOM      6  C   LIG    1       -0.334  -5.113   0.512  0.00  0.00    +0.050 A 
ENDROOT
BRANCH   1   8
ATOM      7  C   LIG    1       -0.701  -2.382  -0.259  0.00  0.00    +0.600 C 
ATOM      8  N   LIG    1        0.413  -2.821   0.358  0.00  0.00    -0.680 N 
ATOM      9  H   LIG    1        1.018  -2.189   0.776  0.00  0.00    +0.410 HD
ATOM     10  O   LIG    1       -1.500  -3.179  -0.712  0.00  0.00    -0.500 OA
BRANCH   7  16
ATOM     11  N   LIG    1       -0.106   0.075  -0.029  0.00  0.00    -0.280 N 
ATOM     12  N   LIG    1       -0.659   1.207  -0.281  0.00  0.00    -0.260 NA
ATOM     13  C   LIG    1       -1.851   1.041  -0.795  0.00  0.00    +0.020 A 
ATOM     14  C   LIG    1       -2.092  -0.332  -0.884  0.00  0.00    +0.030 A 
ATOM     15  C   LIG    1       -2.796   2.136  -1.216  0.00  0.00    +0.160 C 
ATOM     16  C   LIG    1       -0.952  -0.937  -0.384  0.00  0.00    -0.050 A 
BRANCH  11  18
ATOM     17  C   LIG    1        1.106  -0.297   2.062  0.00  0.00    +0.050 C 
ATOM     18  C   LIG    1        1.228  -0.103   0.550  0.00  0.00    +0.320 C 
ENDBRANCH  11  18
ENDBRANCH   7  16
ENDBRANCH   1   8
BRANCH   4  19
ATOM     19  O   LIG    1        1.538  -8.232   0.510  0.00  0.00    -0.250 OA
BRANCH  19  20
ATOM     20  C   LIG    1        1.300  -8.964  -0.607  0.00  0.00    +0.150 A 
ATOM     21  C   LIG    1        0.887  -8.333  -1.775  0.00  0.00    -0.060 A 
ATOM     22  C   LIG    1        0.649  -9.072  -2.912  0.00  0.00    +0.090 A 
ATOM     23  C   LIG    1        0.813 -10.460  -2.888  0.00  0.00    -0.180 A 
ATOM     24  C   LIG    1        1.223 -11.091  -1.711  0.00  0.00    +0.130 A 
ATOM     25  C   LIG    1        1.465 -10.345  -0.580  0.00  0.00    -0.010 A 
BRANCH  23  26
ATOM     26  C   LIG    1        0.553 -11.256  -4.103  0.00  0.00    +0.570 C 
ATOM     27  O   LIG    1        0.695 -12.463  -4.081  0.00  0.00    -0.540 OA
ATOM     28  N   LIG    1        0.157 -10.645  -5.238  0.00  0.00    -0.850 N 
ATOM     29  H   LIG    1       -0.014 -11.169  -6.036  0.00  0.00    +0.410 HD
ATOM     30  H   LIG    1        0.044  -9.682  -5.256  0.00  0.00    +0.400 HD
ENDBRANCH  23  26
ENDBRANCH  19  20
ENDBRANCH   4  19
TORSDOF 6
