REMARK  Name = ZINCrD00000hQ5cJ.0
REMARK                            x       y       z     vdW  Elec       q    Type
REMARK                         _______ _______ _______ _____ _____    ______ ____
ROOT
ATOM      1  O   LIG    1       -1.133   5.569   1.737  0.00  0.00    -0.560 OA
ATOM      2  C   LIG    1       -0.564   5.176   0.737  0.00  0.00    +0.730 C 
ATOM      3  N   LIG    1       -0.156   6.057  -0.197  0.00  0.00    -0.630 N 
ATOM      4  C   LIG    1        0.541   5.718  -1.451  0.00  0.00    +0.260 C 
ATOM      5  C   LIG    1        1.313   7.005  -1.836  0.00  0.00    +0.050 C 
ATOM      6  C   LIG    1        0.311   8.109  -1.405  0.00  0.00    +0.250 C 
ATOM      7  C   LIG    1       -0.338   7.514  -0.138  0.00  0.00    +0.260 C 
ATOM      8  N   LIG    1       -0.342   3.858   0.563  0.00  0.00    -0.680 N 
ATOM      9  H   LIG    1        0.183   3.550  -0.193  0.00  0.00    +0.410 HD
ENDROOT
BRANCH   8  10
ATOM     10  C   LIG    1       -0.868   2.933   1.473  0.00  0.00    +0.210 A 
ATOM     11  C   LIG    1       -1.993   3.255   2.219  0.00  0.00    +0.010 A 
ATOM     12  C   LIG    1       -2.506   2.343   3.121  0.00  0.00    +0.060 A 
ATOM     13  C   LIG    1       -1.904   1.108   3.276  0.00  0.00    -0.010 A 
ATOM     14  C   LIG    1       -0.787   0.782   2.529  0.00  0.00    +0.070 A 
ATOM     15  C   LIG    1       -0.269   1.690   1.626  0.00  0.00    -0.210 A 
BRANCH  15  16
ATOM     16  C   LIG    1        0.949   1.334   0.813  0.00  0.00    +0.430 C 
ATOM     17  F   LIG    1        0.632   1.385  -0.549  0.00  0.00    -0.200 F 
ATOM     18  F   LIG    1        1.975   2.244   1.087  0.00  0.00    -0.200 F 
ENDBRANCH  15  16
ENDBRANCH   8  10
BRANCH   6  19
ATOM     19  N   LIG    1        1.015   9.357  -1.099  0.00  0.00    -0.690 N 
ATOM     20  H   LIG    1        1.945   9.334  -0.824  0.00  0.00    +0.420 HD
BRANCH  19  21
ATOM     21  C   LIG    1        0.349  10.575  -1.201  0.00  0.00    +0.420 A 
ATOM     22  N   LIG    1       -0.907  10.597  -1.578  0.00  0.00    -0.350 NA
ATOM     23  N   LIG    1       -1.597  11.809  -1.684  0.00  0.00    -0.250 N 
ATOM     24  C   LIG    1       -2.874  12.120  -2.040  0.00  0.00    +0.170 A 
ATOM     25  C   LIG    1       -2.993  13.468  -1.970  0.00  0.00    +0.200 A 
ATOM     26  N   LIG    1       -1.824  13.978  -1.581  0.00  0.00    -0.460 NA
ATOM     27  C   LIG    1       -0.959  12.989  -1.401  0.00  0.00    +0.140 A 
ATOM     28  C   LIG    1        0.392  12.963  -1.001  0.00  0.00    +0.180 A 
ATOM     29  C   LIG    1        1.033  11.769  -0.904  0.00  0.00    -0.050 A 
ENDBRANCH  19  21
ENDBRANCH   6  19
TORSDOF 4
