REMARK  Name = ZINCpe000000Tjen.0
REMARK                            x       y       z     vdW  Elec       q    Type
REMARK                         _______ _______ _______ _____ _____    ______ ____
ROOT
ATOM      1  C   LIG    1        5.759   0.495   0.052  0.00  0.00    +0.010 C 
ATOM      2  C   LIG    1        6.532   1.720   0.544  0.00  0.00    +0.100 C 
ENDROOT
BRANCH   1   3
ATOM      3  C   LIG    1        4.280   0.779   0.109  0.00  0.00    +0.540 C 
ATOM      4  N   LIG    1        3.644   1.260  -0.978  0.00  0.00    -0.600 N 
ATOM      5  O   LIG    1        3.662   0.574   1.132  0.00  0.00    -0.510 OA
BRANCH   4   6
ATOM      6  C   LIG    1        2.189   1.430  -0.960  0.00  0.00    +0.280 C 
ATOM      7  C   LIG    1        1.795   2.395   0.172  0.00  0.00    +0.070 C 
ATOM      8  C   LIG    1        0.260   2.270   0.348  0.00  0.00    -0.300 C 
ATOM      9  S   LIG    1       -0.009   0.461   0.232  0.00  0.00    +2.400 S 
ATOM     10  O   LIG    1       -1.147   0.204  -0.580  0.00  0.00    -0.940 OA
ATOM     11  O   LIG    1        0.078  -0.112   1.530  0.00  0.00    -0.920 OA
ATOM     12  C   LIG    1        1.511   0.068  -0.707  0.00  0.00    -0.330 C 
ENDBRANCH   4   6
BRANCH   4  13
ATOM     13  C   LIG    1        4.408   1.612  -2.177  0.00  0.00    +0.270 C 
ATOM     14  C   LIG    1        4.700   3.114  -2.172  0.00  0.00    +0.010 C 
ENDBRANCH   4  13
ENDBRANCH   1   3
BRANCH   1  15
ATOM     15  S   LIG    1        6.142  -0.924   1.108  0.00  0.00    +0.100 S 
BRANCH  15  22
ATOM     16  N   LIG    1        8.683  -2.082   1.281  0.00  0.00    -0.530 N 
ATOM     17  C   LIG    1        9.916  -1.916   0.762  0.00  0.00    +0.650 A 
ATOM     18  N   LIG    1        9.863  -0.869  -0.087  0.00  0.00    -0.540 N 
ATOM     19  H   LIG    1       10.600  -0.515  -0.608  0.00  0.00    +0.460 HD
ATOM     20  N   LIG    1        8.545  -0.391  -0.082  0.00  0.00    -0.280 NA
ATOM     21  O   LIG    1       10.900  -2.589   1.015  0.00  0.00    -0.550 OA
ATOM     22  C   LIG    1        7.854  -1.123   0.744  0.00  0.00    +0.240 A 
BRANCH  16  23
ATOM     23  C   LIG    1        8.292  -3.108   2.252  0.00  0.00    +0.320 C 
BRANCH  23  24
ATOM     24  C   LIG    1        7.821  -4.360   1.509  0.00  0.00    +0.000 C 
BRANCH  24  26
ATOM     25  C   LIG    1        6.942  -6.683   1.779  0.00  0.00    +0.020 C 
ATOM     26  C   LIG    1        7.413  -5.431   2.522  0.00  0.00    +0.020 C 
ENDBRANCH  24  26
ENDBRANCH  23  24
ENDBRANCH  16  23
ENDBRANCH  15  22
ENDBRANCH   1  15
TORSDOF 8
