REMARK  Name = ZINCkj00000GeOZI.0
REMARK                            x       y       z     vdW  Elec       q    Type
REMARK                         _______ _______ _______ _____ _____    ______ ____
ROOT
ATOM      1  C   LIG    1       -1.488   2.816   1.183  0.00  0.00    +0.120 C 
ATOM      2  C   LIG    1       -1.378   1.846   0.005  0.00  0.00    +0.160 C 
ENDROOT
BRANCH   2   3
ATOM      3  C   LIG    1        0.057   1.419  -0.163  0.00  0.00    +0.500 C 
ATOM      4  N   LIG    1        0.948   2.258  -0.729  0.00  0.00    -0.580 N 
ATOM      5  C   LIG    1        2.372   1.904  -0.795  0.00  0.00    +0.290 C 
ATOM      6  C   LIG    1        2.837   2.020  -2.255  0.00  0.00    -0.030 C 
ATOM      7  C   LIG    1        2.513   3.421  -2.778  0.00  0.00    +0.030 C 
ATOM      8  C   LIG    1        1.000   3.646  -2.735  0.00  0.00    -0.010 C 
ATOM      9  C   LIG    1        0.301   2.581  -3.583  0.00  0.00    +0.030 C 
ATOM     10  C   LIG    1        4.347   1.784  -2.328  0.00  0.00    +0.040 C 
ATOM     11  C   LIG    1        0.513   3.546  -1.286  0.00  0.00    +0.270 C 
ATOM     12  O   LIG    1        0.410   0.320   0.206  0.00  0.00    -0.530 OA
ENDBRANCH   2   3
BRANCH   2  13
ATOM     13  N   LIG    1       -2.213   0.665   0.263  0.00  0.00    -0.490 N 
ATOM     14  H   LIG    1       -1.951   0.255   1.147  0.00  0.00    +0.440 HD
ATOM     15  H   LIG    1       -2.078  -0.011  -0.474  0.00  0.00    +0.430 HD
BRANCH  13  16
ATOM     16  C   LIG    1       -3.626   1.064   0.308  0.00  0.00    +0.260 C 
BRANCH  16  17
ATOM     17  C   LIG    1       -4.495  -0.166   0.577  0.00  0.00    +0.350 C 
BRANCH  17  18
ATOM     18  N   LIG    1       -5.904   0.233   0.621  0.00  0.00    -0.390 N 
ATOM     19  C   LIG    1       -6.901  -0.290  -0.124  0.00  0.00    +0.240 A 
ATOM     20  C   LIG    1       -8.046   0.346   0.215  0.00  0.00    -0.090 A 
ATOM     21  C   LIG    1       -7.739   1.290   1.201  0.00  0.00    +0.260 A 
ATOM     22  N   LIG    1       -6.456   1.218   1.450  0.00  0.00    -0.300 NA
ENDBRANCH  17  18
ENDBRANCH  16  17
ENDBRANCH  13  16
ENDBRANCH   2  13
TORSDOF 5
