REMARK  Name = ZINCqH0000008qZU.1
REMARK                            x       y       z     vdW  Elec       q    Type
REMARK                         _______ _______ _______ _____ _____    ______ ____
ROOT
ATOM      1  C   LIG    1       -1.469   2.790   1.418  0.00  0.00    +0.060 C 
ATOM      2  C   LIG    1       -1.263   2.203   0.020  0.00  0.00    +0.340 C 
ENDROOT
BRANCH   2   3
ATOM      3  C   LIG    1       -0.016   1.356   0.009  0.00  0.00    +0.290 A 
ATOM      4  N   LIG    1        1.199   1.820   0.000  0.00  0.00    -0.460 NA
ATOM      5  C   LIG    1        2.082   0.788  -0.014  0.00  0.00    +0.050 A 
ATOM      6  C   LIG    1        3.477   0.713  -0.026  0.00  0.00    +0.070 A 
ATOM      7  C   LIG    1        4.093  -0.506  -0.039  0.00  0.00    +0.010 A 
ATOM      8  C   LIG    1        3.347  -1.676  -0.039  0.00  0.00    +0.050 A 
ATOM      9  C   LIG    1        1.969  -1.626  -0.025  0.00  0.00    +0.020 A 
ATOM     10  C   LIG    1        1.326  -0.397  -0.013  0.00  0.00    +0.060 A 
ATOM     11  N   LIG    1        0.002  -0.004   0.002  0.00  0.00    -0.540 N 
BRANCH  11  12
ATOM     12  C   LIG    1       -1.166  -0.888   0.008  0.00  0.00    +0.650 C 
ATOM     13  F   LIG    1       -2.221  -0.263   0.681  0.00  0.00    -0.170 F 
ATOM     14  F   LIG    1       -0.842  -2.084   0.658  0.00  0.00    -0.170 F 
ENDBRANCH  11  12
ENDBRANCH   2   3
BRANCH   2  15
ATOM     15  N   LIG    1       -1.124   3.290  -0.951  0.00  0.00    -0.710 N 
ATOM     16  H   LIG    1       -0.241   3.603  -1.206  0.00  0.00    +0.420 HD
ATOM     17  C   LIG    1       -2.221   3.856  -1.492  0.00  0.00    +0.610 C 
ATOM     18  O   LIG    1       -3.327   3.464  -1.173  0.00  0.00    -0.520 OA
BRANCH  17  19
ATOM     19  C   LIG    1       -2.080   4.950  -2.469  0.00  0.00    -0.000 A 
ATOM     20  N   LIG    1       -0.957   5.480  -2.903  0.00  0.00    -0.200 NA
ATOM     21  N   LIG    1       -1.166   6.417  -3.756  0.00  0.00    -0.410 N 
ATOM     22  H   LIG    1       -0.466   6.927  -4.192  0.00  0.00    +0.450 HD
ATOM     23  C   LIG    1       -2.507   6.607  -3.967  0.00  0.00    +0.060 A 
ATOM     24  C   LIG    1       -3.261   7.466  -4.760  0.00  0.00    +0.010 A 
ATOM     25  C   LIG    1       -4.635   7.389  -4.732  0.00  0.00    +0.050 A 
ATOM     26  C   LIG    1       -5.279   6.463  -3.921  0.00  0.00    -0.010 A 
ATOM     27  C   LIG    1       -4.557   5.609  -3.134  0.00  0.00    +0.090 A 
ATOM     28  C   LIG    1       -3.167   5.670  -3.147  0.00  0.00    -0.110 A 
ENDBRANCH  17  19
ENDBRANCH   2  15
TORSDOF 4
