REMARK  Name = ZINCqH0000008qZU.0
REMARK                            x       y       z     vdW  Elec       q    Type
REMARK                         _______ _______ _______ _____ _____    ______ ____
ROOT
ATOM      1  C   LIG    1        7.698   2.666   1.380  0.00  0.00    +0.060 C 
ATOM      2  C   LIG    1        7.200   2.877  -0.051  0.00  0.00    +0.340 C 
ENDROOT
BRANCH   2   3
ATOM      3  C   LIG    1        7.889   4.074  -0.652  0.00  0.00    +0.280 A 
ATOM      4  N   LIG    1        7.614   5.314  -0.366  0.00  0.00    -0.470 NA
ATOM      5  C   LIG    1        8.422   6.137  -1.081  0.00  0.00    +0.050 A 
ATOM      6  C   LIG    1        8.556   7.526  -1.161  0.00  0.00    +0.070 A 
ATOM      7  C   LIG    1        9.483   8.074  -2.002  0.00  0.00    +0.020 A 
ATOM      8  C   LIG    1       10.297   7.265  -2.781  0.00  0.00    +0.050 A 
ATOM      9  C   LIG    1       10.184   5.892  -2.718  0.00  0.00    +0.020 A 
ATOM     10  C   LIG    1        9.248   5.317  -1.870  0.00  0.00    +0.060 A 
ATOM     11  N   LIG    1        8.886   4.018  -1.576  0.00  0.00    -0.540 N 
BRANCH  11  12
ATOM     12  C   LIG    1        9.469   2.803  -2.151  0.00  0.00    +0.650 C 
ATOM     13  F   LIG    1        9.396   1.764  -1.218  0.00  0.00    -0.170 F 
ATOM     14  F   LIG    1       10.807   3.040  -2.484  0.00  0.00    -0.170 F 
ENDBRANCH  11  12
ENDBRANCH   2   3
BRANCH   2  15
ATOM     15  N   LIG    1        5.753   3.103  -0.036  0.00  0.00    -0.720 N 
ATOM     16  H   LIG    1        5.403   4.007  -0.028  0.00  0.00    +0.410 HD
ATOM     17  C   LIG    1        4.907   2.053  -0.034  0.00  0.00    +0.600 C 
ATOM     18  O   LIG    1        5.345   0.918  -0.044  0.00  0.00    -0.510 OA
BRANCH  17  19
ATOM     19  C   LIG    1        3.460   2.279  -0.019  0.00  0.00    -0.040 A 
ATOM     20  C   LIG    1        2.457   1.301  -0.014  0.00  0.00    -0.090 A 
ATOM     21  C   LIG    1        2.405  -0.098  -0.021  0.00  0.00    +0.070 A 
ATOM     22  C   LIG    1        1.197  -0.724  -0.013  0.00  0.00    +0.010 A 
ATOM     23  C   LIG    1        0.002  -0.004   0.002  0.00  0.00    +0.030 A 
ATOM     24  C   LIG    1       -0.016   1.354   0.009  0.00  0.00    +0.060 A 
ATOM     25  C   LIG    1        1.200   2.066   0.002  0.00  0.00    +0.050 A 
ATOM     26  N   LIG    1        1.544   3.341   0.005  0.00  0.00    -0.260 NA
ATOM     27  N   LIG    1        2.821   3.482  -0.006  0.00  0.00    -0.320 N 
ATOM     28  H   LIG    1        3.275   4.340  -0.006  0.00  0.00    +0.450 HD
ENDBRANCH  17  19
ENDBRANCH   2  15
TORSDOF 4
