REMARK  Name = ZINC9l0000002ik7.0
REMARK                            x       y       z     vdW  Elec       q    Type
REMARK                         _______ _______ _______ _____ _____    ______ ____
ROOT
ATOM      1  C   LIG    1       -0.361  -2.905  -0.083  0.00  0.00    +0.040 C 
ATOM      2  C   LIG    1       -1.270  -1.683  -0.229  0.00  0.00    -0.100 C 
ATOM      3  C   LIG    1       -1.084  -0.640   0.886  0.00  0.00    +0.030 C 
ATOM      4  C   LIG    1        0.002  -0.004   0.002  0.00  0.00    -0.110 C 
ATOM      5  C   LIG    1       -2.732  -2.056  -0.481  0.00  0.00    +0.030 C 
ATOM      6  C   LIG    1       -0.724  -0.623  -1.204  0.00  0.00    +0.020 C 
ENDROOT
BRANCH   4   7
ATOM      7  C   LIG    1       -0.018   1.503   0.010  0.00  0.00    +0.500 C 
ATOM      8  O   LIG    1       -1.082   2.098   0.019  0.00  0.00    -0.700 OA
ATOM      9  O   LIG    1        1.029   2.127   0.004  0.00  0.00    -0.710 OA
ENDBRANCH   4   7
TORSDOF 1
