REMARK  Name = ZINCpk00000y6wTV.0
REMARK                            x       y       z     vdW  Elec       q    Type
REMARK                         _______ _______ _______ _____ _____    ______ ____
ROOT
ATOM      1  C   LIG    1       -1.696   1.496   6.926  0.00  0.00    +0.210 A 
ATOM      2  N   LIG    1       -1.573   0.388   7.594  0.00  0.00    -0.460 NA
ATOM      3  C   LIG    1       -2.644   0.262   8.423  0.00  0.00    -0.080 A 
ATOM      4  C   LIG    1       -3.432   1.355   8.228  0.00  0.00    +0.250 A 
ATOM      5  O   LIG    1       -2.826   2.113   7.300  0.00  0.00    -0.180 OA
ENDROOT
BRANCH   3   6
ATOM      6  C   LIG    1       -2.902  -0.848   9.358  0.00  0.00    +0.610 C 
ATOM      7  N   LIG    1       -2.029  -1.871   9.447  0.00  0.00    -0.710 N 
ATOM      8  H   LIG    1       -1.230  -1.876   8.896  0.00  0.00    +0.410 HD
ATOM      9  O   LIG    1       -3.903  -0.842  10.048  0.00  0.00    -0.530 OA
BRANCH   7  10
ATOM     10  C   LIG    1       -2.285  -2.974  10.376  0.00  0.00    +0.280 C 
BRANCH  10  11
ATOM     11  C   LIG    1       -1.149  -3.995  10.282  0.00  0.00    +0.130 C 
BRANCH  11  12
ATOM     12  C   LIG    1       -1.413  -5.130  11.237  0.00  0.00    -0.010 A 
ATOM     13  C   LIG    1       -1.008  -5.200  12.516  0.00  0.00    -0.040 A 
ATOM     14  O   LIG    1       -1.454  -6.372  13.010  0.00  0.00    -0.200 OA
ATOM     15  C   LIG    1       -2.115  -7.003  12.030  0.00  0.00    +0.190 A 
ATOM     16  C   LIG    1       -2.777  -8.351  12.145  0.00  0.00    +0.220 C 
ATOM     17  C   LIG    1       -0.207  -4.162  13.259  0.00  0.00    +0.190 C 
ATOM     18  N   LIG    1       -2.092  -6.257  10.962  0.00  0.00    -0.480 NA
ENDBRANCH  11  12
ENDBRANCH  10  11
ENDBRANCH   7  10
ENDBRANCH   3   6
BRANCH   1  19
ATOM     19  C   LIG    1       -0.720   2.010   5.900  0.00  0.00    +0.340 C 
BRANCH  19  23
ATOM     20  C   LIG    1       -0.068   1.127   2.404  0.00  0.00    +0.150 C 
ATOM     21  C   LIG    1       -0.732  -0.171   2.920  0.00  0.00    +0.020 C 
ATOM     22  C   LIG    1       -0.787   0.054   4.452  0.00  0.00    +0.190 C 
ATOM     23  N   LIG    1       -1.093   1.502   4.573  0.00  0.00    -0.510 NA
ATOM     24  C   LIG    1       -0.309   2.170   3.510  0.00  0.00    +0.200 C 
BRANCH  20  26
ATOM     25  C   LIG    1       -0.013   1.086   0.008  0.00  0.00    +0.200 C 
ATOM     26  O   LIG    1       -0.682   1.547   1.184  0.00  0.00    -0.380 OA
ENDBRANCH  20  26
ENDBRANCH  19  23
ENDBRANCH   1  19
TORSDOF 7
