REMARK  Name = ZINCkj000005iqFU.0
REMARK                            x       y       z     vdW  Elec       q    Type
REMARK                         _______ _______ _______ _____ _____    ______ ____
ROOT
ATOM      1  C   LIG    1       -0.154   2.833   8.500  0.00  0.00    +0.160 C 
ATOM      2  C   LIG    1       -0.918   3.322   7.267  0.00  0.00    +0.010 C 
ATOM      3  C   LIG    1        0.026   3.342   6.061  0.00  0.00    +0.300 C 
ATOM      4  N   LIG    1        0.627   2.010   5.909  0.00  0.00    -0.610 N 
ATOM      5  C   LIG    1        1.304   1.404   7.065  0.00  0.00    +0.230 C 
ATOM      6  C   LIG    1        0.555   1.354   4.734  0.00  0.00    +0.530 C 
ATOM      7  O   LIG    1        1.141   0.301   4.590  0.00  0.00    -0.520 OA
ATOM      8  C   LIG    1        0.350   1.409   8.258  0.00  0.00    +0.020 C 
ENDROOT
BRANCH   1  10
ATOM      9  C   LIG    1       -1.017   4.076  10.359  0.00  0.00    +0.220 C 
ATOM     10  O   LIG    1       -1.023   2.845   9.634  0.00  0.00    -0.380 OA
ENDBRANCH   1  10
BRANCH   5  11
ATOM     11  C   LIG    1        1.698  -0.036   6.731  0.00  0.00    +0.300 C 
BRANCH  11  12
ATOM     12  N   LIG    1        2.337  -0.652   7.902  0.00  0.00    -0.640 N 
ATOM     13  H   LIG    1        1.665  -0.727   8.651  0.00  0.00    +0.430 HD
ATOM     14  H   LIG    1        3.113  -0.081   8.201  0.00  0.00    +0.430 HD
ATOM     15  H   LIG    1        2.672  -1.572   7.657  0.00  0.00    +0.440 HD
ENDBRANCH  11  12
ENDBRANCH   5  11
BRANCH   6  16
ATOM     16  C   LIG    1       -0.254   1.927   3.600  0.00  0.00    +0.220 C 
BRANCH  16  17
ATOM     17  O   LIG    1       -0.176   1.055   2.470  0.00  0.00    -0.360 OA
BRANCH  17  18
ATOM     18  C   LIG    1       -0.912   1.509   1.333  0.00  0.00    +0.150 C 
ATOM     19  C   LIG    1       -0.232   1.016   0.055  0.00  0.00    +0.020 C 
ATOM     20  C   LIG    1       -1.021   1.502  -1.163  0.00  0.00    +0.010 C 
ATOM     21  C   LIG    1       -2.447   0.952  -1.099  0.00  0.00    +0.010 C 
ATOM     22  C   LIG    1       -3.127   1.445   0.179  0.00  0.00    +0.010 C 
ATOM     23  C   LIG    1       -2.339   0.959   1.397  0.00  0.00    -0.010 C 
ENDBRANCH  17  18
ENDBRANCH  16  17
ENDBRANCH   6  16
TORSDOF 6
