REMARK  Name = ZINCkj000005h6vl.0
REMARK                            x       y       z     vdW  Elec       q    Type
REMARK                         _______ _______ _______ _____ _____    ______ ____
ROOT
ATOM      1  C   LIG    1       -2.683   4.043   0.037  0.00  0.00    +0.180 C 
ENDROOT
BRANCH   1   5
ATOM      2  C   LIG    1       -3.412   8.152   0.968  0.00  0.00    +0.150 C 
ATOM      3  C   LIG    1       -3.997   7.554  -0.314  0.00  0.00    +0.050 C 
ATOM      4  C   LIG    1       -4.048   6.030  -0.184  0.00  0.00    +0.210 C 
ATOM      5  N   LIG    1       -2.693   5.512   0.045  0.00  0.00    -0.540 NA
ATOM      6  C   LIG    1       -2.129   6.035   1.295  0.00  0.00    +0.200 C 
ATOM      7  C   LIG    1       -2.021   7.559   1.209  0.00  0.00    +0.050 C 
BRANCH   2   9
ATOM      8  C   LIG    1       -4.643  10.176   0.589  0.00  0.00    +0.320 C 
ATOM      9  N   LIG    1       -3.308   9.610   0.827  0.00  0.00    -0.380 N 
ATOM     10  C   LIG    1       -2.746  10.183   2.058  0.00  0.00    +0.330 C 
ATOM     11  H   LIG    1       -2.705   9.831   0.048  0.00  0.00    +0.430 HD
ENDBRANCH   2   9
ENDBRANCH   1   5
BRANCH   1  12
ATOM     12  C   LIG    1       -1.237   3.543   0.027  0.00  0.00    +0.270 C 
BRANCH  12  13
ATOM     13  N   LIG    1       -1.227   2.078   0.019  0.00  0.00    -0.730 N 
ATOM     14  H   LIG    1       -2.064   1.587   0.021  0.00  0.00    +0.410 HD
BRANCH  13  15
ATOM     15  C   LIG    1       -0.017   1.390   0.010  0.00  0.00    +0.190 A 
ATOM     16  C   LIG    1        0.002  -0.004   0.002  0.00  0.00    +0.000 A 
ATOM     17  C   LIG    1        1.226  -0.646  -0.013  0.00  0.00    +0.090 A 
ATOM     18  C   LIG    1        2.394   0.118  -0.020  0.00  0.00    +0.130 A 
ATOM     19  N   LIG    1        2.337   1.446  -0.012  0.00  0.00    -0.410 NA
ATOM     20  C   LIG    1        1.190   2.087   0.002  0.00  0.00    +0.200 A 
BRANCH  18  21
ATOM     21  C   LIG    1        3.668  -0.536  -0.036  0.00  0.00    +0.270 C 
ATOM     22  N   LIG    1        4.679  -1.054  -0.048  0.00  0.00    -0.390 NA
ENDBRANCH  18  21
ENDBRANCH  13  15
ENDBRANCH  12  13
ENDBRANCH   1  12
TORSDOF 6
