REMARK  Name = ZINCc70000002nQX.0
REMARK                            x       y       z     vdW  Elec       q    Type
REMARK                         _______ _______ _______ _____ _____    ______ ____
ROOT
ATOM      1  C   LIG    1       -1.333   2.239   0.021  0.00  0.00    -0.360 C 
ENDROOT
BRANCH   1   2
ATOM      2  S   LIG    1       -1.026   4.026   0.029  0.00  0.00    +2.630 S 
ATOM      3  O   LIG    1       -0.464   4.441  -1.209  0.00  0.00    -0.940 OA
ATOM      4  O   LIG    1       -0.453   4.428   1.265  0.00  0.00    -0.940 OA
BRANCH   2   5
ATOM      5  N   LIG    1       -2.537   4.705   0.040  0.00  0.00    -1.010 NA
ATOM      6  C   LIG    1       -3.211   5.012  -1.224  0.00  0.00    +0.310 C 
ATOM      7  C   LIG    1       -3.199   4.998   1.313  0.00  0.00    +0.300 C 
ENDBRANCH   2   5
ENDBRANCH   1   2
BRANCH   1   8
ATOM      8  C   LIG    1       -0.018   1.503   0.010  0.00  0.00    +0.390 C 
ATOM      9  O   LIG    1        1.019   2.121   0.004  0.00  0.00    -0.440 OA
BRANCH   8  11
ATOM     10  C   LIG    1       -0.005  -0.506  -1.443  0.00  0.00    +0.060 C 
ATOM     11  C   LIG    1        0.002  -0.004   0.002  0.00  0.00    -0.030 C 
ATOM     12  C   LIG    1        1.265  -0.501   0.709  0.00  0.00    +0.050 C 
ENDBRANCH   8  11
ENDBRANCH   1   8
TORSDOF 4
