REMARK  Name = ZINCvU0000000Cu3.0
REMARK                            x       y       z     vdW  Elec       q    Type
REMARK                         _______ _______ _______ _____ _____    ______ ____
ROOT
ATOM      1  C   LIG    1        1.101  -2.179  -0.021  0.00  0.00    +0.180 C 
ATOM      2  C   LIG    1        1.141  -0.672  -0.012  0.00  0.00    +0.350 A 
ATOM      3  N   LIG    1        0.002  -0.004   0.002  0.00  0.00    -0.530 NA
ATOM      4  C   LIG    1       -0.016   1.321   0.009  0.00  0.00    +0.220 A 
ATOM      5  C   LIG    1        1.218   2.025   0.001  0.00  0.00    -0.170 A 
ATOM      6  C   LIG    1        1.486   3.447   0.006  0.00  0.00    +0.060 A 
ATOM      7  C   LIG    1        2.780   3.769  -0.004  0.00  0.00    -0.120 A 
ATOM      8  S   LIG    1        3.790   2.336  -0.022  0.00  0.00    +0.200 S 
ATOM      9  C   LIG    1        2.394   1.268  -0.014  0.00  0.00    +0.100 A 
ATOM     10  N   LIG    1        2.307  -0.069  -0.020  0.00  0.00    -0.490 NA
ENDROOT
BRANCH   7  11
ATOM     11  C   LIG    1        3.296   5.154  -0.001  0.00  0.00    -0.030 A 
ATOM     12  C   LIG    1        2.409   6.232   0.008  0.00  0.00    +0.030 A 
ATOM     13  C   LIG    1        2.897   7.523   0.016  0.00  0.00    +0.020 A 
ATOM     14  C   LIG    1        4.262   7.749   0.004  0.00  0.00    +0.020 A 
ATOM     15  C   LIG    1        5.146   6.685  -0.010  0.00  0.00    +0.020 A 
ATOM     16  C   LIG    1        4.671   5.390  -0.013  0.00  0.00    +0.010 A 
ENDBRANCH   7  11
BRANCH   4  17
ATOM     17  S   LIG    1       -1.545   2.196   0.021  0.00  0.00    -0.010 S 
BRANCH  17  18
ATOM     18  C   LIG    1       -2.703   0.805   0.019  0.00  0.00    +0.180 C 
BRANCH  18  19
ATOM     19  C   LIG    1       -4.117   1.327   0.029  0.00  0.00    -0.110 A 
ATOM     20  C   LIG    1       -4.770   1.573  -1.163  0.00  0.00    +0.170 A 
ATOM     21  C   LIG    1       -6.067   2.053  -1.155  0.00  0.00    -0.070 A 
ATOM     22  C   LIG    1       -6.711   2.289   0.045  0.00  0.00    +0.160 A 
ATOM     23  C   LIG    1       -6.061   2.045   1.241  0.00  0.00    -0.200 A 
ATOM     24  C   LIG    1       -6.772   2.310   2.544  0.00  0.00    +0.320 C 
ATOM     25  O   LIG    1       -6.075   1.650   3.606  0.00  0.00    -0.380 OA
ATOM     26  C   LIG    1       -4.664   1.896   3.587  0.00  0.00    +0.450 C 
ATOM     27  O   LIG    1       -4.114   1.310   2.404  0.00  0.00    -0.310 OA
ATOM     28  C   LIG    1       -4.764   1.556   1.236  0.00  0.00    +0.210 A 
BRANCH  21  29
ATOM     29  N   LIG    1       -6.766   2.316  -2.433  0.00  0.00    +0.030 N 
ATOM     30  O   LIG    1       -7.908   2.738  -2.426  0.00  0.00    -0.160 OA
ATOM     31  O   LIG    1       -6.199   2.108  -3.490  0.00  0.00    -0.150 OA
ENDBRANCH  21  29
ENDBRANCH  18  19
ENDBRANCH  17  18
ENDBRANCH   4  17
TORSDOF 5
