REMARK  Name = ZINCtV00001bB3cM.0
REMARK                            x       y       z     vdW  Elec       q    Type
REMARK                         _______ _______ _______ _____ _____    ______ ____
ROOT
ATOM      1  C   LIG    1        2.576  -2.786  -0.036  0.00  0.00    -0.200 A 
ATOM      2  C   LIG    1        3.839  -2.225  -0.044  0.00  0.00    +0.280 A 
ATOM      3  N   LIG    1        4.736  -3.228  -0.058  0.00  0.00    -0.300 N 
ATOM      4  N   LIG    1        4.069  -4.456  -0.059  0.00  0.00    -0.250 NA
ATOM      5  C   LIG    1        2.770  -4.242  -0.040  0.00  0.00    +0.170 A 
ENDROOT
BRANCH   5   6
ATOM      6  C   LIG    1        1.711  -5.270  -0.029  0.00  0.00    +0.090 A 
ATOM      7  C   LIG    1        1.775  -6.462  -0.672  0.00  0.00    +0.030 A 
ATOM      8  C   LIG    1        0.514  -7.147  -0.382  0.00  0.00    -0.140 A 
ATOM      9  C   LIG    1       -0.026  -8.384  -0.737  0.00  0.00    +0.070 A 
ATOM     10  C   LIG    1       -1.270  -8.735  -0.291  0.00  0.00    +0.000 A 
ATOM     11  C   LIG    1       -1.997  -7.869   0.513  0.00  0.00    +0.050 A 
ATOM     12  C   LIG    1       -1.481  -6.642   0.875  0.00  0.00    +0.030 A 
ATOM     13  C   LIG    1       -0.219  -6.266   0.433  0.00  0.00    +0.070 A 
ATOM     14  O   LIG    1        0.533  -5.161   0.616  0.00  0.00    -0.180 OA
ENDBRANCH   5   6
BRANCH   3  15
ATOM     15  C   LIG    1        6.127  -3.066  -0.068  0.00  0.00    +0.140 A 
ATOM     16  C   LIG    1        6.679  -1.792  -0.071  0.00  0.00    -0.010 A 
ATOM     17  C   LIG    1        8.051  -1.635  -0.076  0.00  0.00    +0.050 A 
ATOM     18  C   LIG    1        8.875  -2.745  -0.089  0.00  0.00    +0.010 A 
ATOM     19  C   LIG    1        8.328  -4.016  -0.092  0.00  0.00    +0.050 A 
ATOM     20  C   LIG    1        6.957  -4.179  -0.082  0.00  0.00    +0.030 A 
ENDBRANCH   3  15
BRANCH   1  22
ATOM     21  C   LIG    1        1.277  -0.717  -0.013  0.00  0.00    -0.130 C 
ATOM     22  C   LIG    1        1.296  -2.070  -0.021  0.00  0.00    +0.190 C 
BRANCH  21  24
ATOM     23  O   LIG    1       -1.046  -0.628   0.008  0.00  0.00    -0.460 OA
ATOM     24  C   LIG    1        0.002  -0.004   0.002  0.00  0.00    +0.460 C 
BRANCH  24  25
ATOM     25  C   LIG    1       -0.018   1.463   0.010  0.00  0.00    -0.290 A 
ATOM     26  C   LIG    1       -1.142   2.241   0.019  0.00  0.00    +0.090 A 
ATOM     27  C   LIG    1       -0.870   3.589   0.030  0.00  0.00    +0.000 A 
ATOM     28  C   LIG    1        0.430   3.906   0.019  0.00  0.00    -0.060 A 
ATOM     29  S   LIG    1        1.400   2.503   0.002  0.00  0.00    +0.210 S 
ENDBRANCH  24  25
ENDBRANCH  21  24
ENDBRANCH   1  22
TORSDOF 5
