REMARK  Name = ZINCrH000004jXv0.0
REMARK                            x       y       z     vdW  Elec       q    Type
REMARK                         _______ _______ _______ _____ _____    ______ ____
ROOT
ATOM      1  C   LIG    1       -0.119   8.530  -0.503  0.00  0.00    +0.280 C 
ATOM      2  N   LIG    1       -0.116   7.584  -1.622  0.00  0.00    -0.610 N 
ATOM      3  C   LIG    1       -0.096   6.258  -1.384  0.00  0.00    +0.520 C 
ATOM      4  O   LIG    1       -0.094   5.475  -2.310  0.00  0.00    -0.530 OA
ENDROOT
BRANCH   3   5
ATOM      5  C   LIG    1       -0.076   5.747   0.034  0.00  0.00    +0.110 C 
BRANCH   5   6
ATOM      6  C   LIG    1       -0.056   4.240   0.025  0.00  0.00    -0.010 A 
ATOM      7  C   LIG    1        1.151   3.566   0.010  0.00  0.00    +0.050 A 
ATOM      8  C   LIG    1        1.170   2.183   0.003  0.00  0.00    +0.110 A 
ATOM      9  C   LIG    1       -0.018   1.476   0.010  0.00  0.00    -0.040 A 
ATOM     10  C   LIG    1       -1.224   2.151   0.019  0.00  0.00    +0.100 A 
ATOM     11  C   LIG    1       -1.243   3.533   0.033  0.00  0.00    +0.040 A 
BRANCH   9  12
ATOM     12  N   LIG    1        0.002  -0.004   0.002  0.00  0.00    +0.030 N 
ATOM     13  O   LIG    1       -1.044  -0.627   0.009  0.00  0.00    -0.160 OA
ATOM     14  O   LIG    1        1.065  -0.599  -0.011  0.00  0.00    -0.160 OA
ENDBRANCH   9  12
ENDBRANCH   5   6
ENDBRANCH   3   5
BRANCH   2  15
ATOM     15  C   LIG    1       -0.136   8.080  -3.001  0.00  0.00    +0.340 C 
BRANCH  15  16
ATOM     16  C   LIG    1       -1.563   8.231  -3.460  0.00  0.00    -0.140 A 
ATOM     17  C   LIG    1       -2.203   7.174  -4.082  0.00  0.00    +0.060 A 
ATOM     18  C   LIG    1       -3.513   7.307  -4.499  0.00  0.00    -0.040 A 
ATOM     19  C   LIG    1       -4.184   8.508  -4.303  0.00  0.00    +0.120 A 
ATOM     20  C   LIG    1       -3.536   9.569  -3.684  0.00  0.00    -0.030 A 
ATOM     21  C   LIG    1       -2.228   9.428  -3.264  0.00  0.00    +0.040 A 
BRANCH  19  22
ATOM     22  N   LIG    1       -5.507   8.648  -4.730  0.00  0.00    -0.490 N 
ATOM     23  C   LIG    1       -6.376   9.059  -3.620  0.00  0.00    +0.180 C 
ATOM     24  C   LIG    1       -7.783   9.343  -4.151  0.00  0.00    +0.020 C 
ATOM     25  C   LIG    1       -8.337   8.080  -4.817  0.00  0.00    +0.010 C 
ATOM     26  C   LIG    1       -7.387   7.645  -5.937  0.00  0.00    +0.020 C 
ATOM     27  C   LIG    1       -5.992   7.411  -5.355  0.00  0.00    +0.180 C 
ENDBRANCH  19  22
ENDBRANCH  15  16
ENDBRANCH   2  15
TORSDOF 6
