REMARK  Name = ZINCtV00000L6jSI.0
REMARK                            x       y       z     vdW  Elec       q    Type
REMARK                         _______ _______ _______ _____ _____    ______ ____
ROOT
ATOM      1  C   LIG    1       -1.956   3.100  -0.013  0.00  0.00    +0.620 C 
ATOM      2  N   LIG    1       -3.287   3.020   0.603  0.00  0.00    -0.750 N 
ATOM      3  H   LIG    1       -3.591   3.739   1.178  0.00  0.00    +0.420 HD
ATOM      4  C   LIG    1       -4.119   1.927   0.372  0.00  0.00    +0.210 A 
ATOM      5  C   LIG    1       -5.498   2.050   0.410  0.00  0.00    -0.040 A 
ATOM      6  C   LIG    1       -6.293   0.938   0.202  0.00  0.00    +0.070 A 
ATOM      7  C   LIG    1       -5.727  -0.301  -0.046  0.00  0.00    -0.030 A 
ATOM      8  C   LIG    1       -4.352  -0.441  -0.095  0.00  0.00    +0.100 A 
ATOM      9  C   LIG    1       -3.546   0.668   0.107  0.00  0.00    -0.090 A 
ATOM     10  C   LIG    1       -2.072   0.605   0.056  0.00  0.00    +0.330 A 
ATOM     11  N   LIG    1       -1.276  -0.426   0.019  0.00  0.00    -0.470 NA
ATOM     12  C   LIG    1        0.002  -0.004   0.002  0.00  0.00    +0.050 A 
ATOM     13  C   LIG    1        1.214  -0.705  -0.017  0.00  0.00    +0.090 A 
ATOM     14  C   LIG    1        2.374   0.048  -0.024  0.00  0.00    +0.000 A 
ATOM     15  C   LIG    1        2.351   1.432  -0.015  0.00  0.00    +0.030 A 
ATOM     16  C   LIG    1        1.165   2.147   0.003  0.00  0.00    +0.010 A 
ATOM     17  C   LIG    1       -0.017   1.416   0.010  0.00  0.00    +0.070 A 
ATOM     18  N   LIG    1       -1.329   1.776   0.019  0.00  0.00    -0.510 N 
ENDROOT
BRANCH   1  22
ATOM     19  C   LIG    1       -2.852   3.775  -3.490  0.00  0.00    +0.040 A 
ATOM     20  C   LIG    1       -1.752   4.568  -3.387  0.00  0.00    -0.030 A 
ATOM     21  C   LIG    1       -1.272   4.426  -2.069  0.00  0.00    -0.010 A 
ATOM     22  C   LIG    1       -2.089   3.556  -1.443  0.00  0.00    -0.050 A 
ATOM     23  O   LIG    1       -3.044   3.167  -2.304  0.00  0.00    -0.150 OA
BRANCH  19  28
ATOM     24 BR   LIG    1       -6.335   3.082  -8.497  0.00  0.00    -0.040 Br
ATOM     25  C   LIG    1       -5.262   3.296  -6.954  0.00  0.00    -0.080 A 
ATOM     26  C   LIG    1       -5.576   2.606  -5.795  0.00  0.00    +0.050 A 
ATOM     27  C   LIG    1       -4.797   2.758  -4.667  0.00  0.00    +0.050 A 
ATOM     28  C   LIG    1       -3.690   3.608  -4.696  0.00  0.00    -0.000 A 
ATOM     29  C   LIG    1       -3.382   4.304  -5.866  0.00  0.00    +0.050 A 
ATOM     30  C   LIG    1       -4.166   4.140  -6.989  0.00  0.00    +0.050 A 
ENDBRANCH  19  28
ENDBRANCH   1  22
TORSDOF 2
