REMARK  Name = ZINCpk000000pSwi.0
REMARK                            x       y       z     vdW  Elec       q    Type
REMARK                         _______ _______ _______ _____ _____    ______ ____
ROOT
ATOM      1  C   LIG    1       -4.847  -2.763   1.345  0.00  0.00    +0.000 C 
ATOM      2  C   LIG    1       -3.626  -2.089   0.683  0.00  0.00    +0.240 C 
ATOM      3  N   LIG    1       -3.374  -0.834   1.407  0.00  0.00    -0.620 N 
ATOM      4  C   LIG    1       -4.356  -0.714   2.500  0.00  0.00    +0.220 C 
ATOM      5  C   LIG    1       -2.403   0.056   1.123  0.00  0.00    +0.530 C 
ATOM      6  O   LIG    1       -2.287   1.061   1.790  0.00  0.00    -0.510 OA
ATOM      7  C   LIG    1       -5.562  -1.576   2.043  0.00  0.00    +0.180 C 
ENDROOT
BRANCH   7   8
ATOM      8  N   LIG    1       -6.343  -2.039   3.198  0.00  0.00    -0.520 NA
ATOM      9  C   LIG    1       -7.138  -0.942   3.770  0.00  0.00    +0.150 C 
ATOM     10  C   LIG    1       -7.980  -1.480   4.931  0.00  0.00    +0.220 C 
ATOM     11  O   LIG    1       -7.117  -2.086   5.898  0.00  0.00    -0.380 OA
ATOM     12  C   LIG    1       -6.329  -3.158   5.375  0.00  0.00    +0.220 C 
ATOM     13  C   LIG    1       -5.471  -2.637   4.219  0.00  0.00    +0.150 C 
ENDBRANCH   7   8
BRANCH   1  15
ATOM     14  C   LIG    1       -5.009  -4.535  -0.408  0.00  0.00    +0.000 C 
ATOM     15  C   LIG    1       -5.755  -3.396   0.288  0.00  0.00    +0.030 C 
ENDBRANCH   1  15
BRANCH   5  16
ATOM     16  C   LIG    1       -1.461  -0.199  -0.026  0.00  0.00    +0.170 C 
BRANCH  16  17
ATOM     17  C   LIG    1       -0.477   0.938  -0.130  0.00  0.00    +0.070 A 
ATOM     18  C   LIG    1        0.869   0.819  -0.123  0.00  0.00    +0.090 A 
ATOM     19  N   LIG    1        1.387   2.080  -0.237  0.00  0.00    -0.360 N 
ATOM     20  C   LIG    1        2.666   2.552  -0.283  0.00  0.00    +0.210 A 
ATOM     21  C   LIG    1        2.907   3.875  -0.403  0.00  0.00    +0.010 A 
ATOM     22  C   LIG    1        1.840   4.785  -0.482  0.00  0.00    +0.040 A 
ATOM     23  C   LIG    1        0.560   4.328  -0.437  0.00  0.00    +0.070 A 
ATOM     24  C   LIG    1        0.325   2.944  -0.312  0.00  0.00    +0.220 A 
ATOM     25  N   LIG    1       -0.790   2.231  -0.245  0.00  0.00    -0.460 NA
ENDBRANCH  16  17
ENDBRANCH   5  16
TORSDOF 4
