REMARK  Name = ZINCpe00000VVH4K.0
REMARK                            x       y       z     vdW  Elec       q    Type
REMARK                         _______ _______ _______ _____ _____    ______ ____
ROOT
ATOM      1  C   LIG    1        2.732  -0.141  -0.096  0.00  0.00    +0.240 C 
ENDROOT
BRANCH   1   2
ATOM      2  C   LIG    1        4.087  -0.800  -0.118  0.00  0.00    +0.520 C 
ATOM      3  N   LIG    1        4.183  -2.145  -0.105  0.00  0.00    -0.610 N 
ATOM      4  C   LIG    1        2.978  -2.987  -0.063  0.00  0.00    +0.280 C 
ATOM      5  C   LIG    1        3.075  -4.025  -1.192  0.00  0.00    +0.180 C 
ATOM      6  N   LIG    1        4.345  -4.753  -1.072  0.00  0.00    -0.530 NA
ATOM      7  C   LIG    1        5.494  -3.854  -1.247  0.00  0.00    +0.200 C 
ATOM      8  C   LIG    1        5.495  -2.809  -0.126  0.00  0.00    +0.300 C 
ATOM      9  O   LIG    1        5.092  -0.121  -0.148  0.00  0.00    -0.510 OA
BRANCH   6  10
ATOM     10  C   LIG    1        4.403  -5.871  -2.023  0.00  0.00    +0.230 C 
BRANCH  10  11
ATOM     11  C   LIG    1        3.997  -5.380  -3.414  0.00  0.00    +0.120 C 
ATOM     12  C   LIG    1        3.910  -6.570  -4.371  0.00  0.00    +0.010 C 
BRANCH  11  13
ATOM     13  O   LIG    1        4.971  -4.452  -3.895  0.00  0.00    -0.560 OA
ATOM     14  H   LIG    1        4.777  -4.098  -4.774  0.00  0.00    +0.380 HD
ENDBRANCH  11  13
ENDBRANCH  10  11
ENDBRANCH   6  10
ENDBRANCH   1   2
BRANCH   1  15
ATOM     15  O   LIG    1        2.893   1.279  -0.116  0.00  0.00    -0.270 OA
BRANCH  15  21
ATOM     16  C   LIG    1        1.847   3.420  -0.116  0.00  0.00    +0.110 A 
ATOM     17  C   LIG    1        0.696   4.183  -0.100  0.00  0.00    +0.020 A 
ATOM     18  C   LIG    1       -0.554   3.557  -0.066  0.00  0.00    -0.030 A 
ATOM     19  C   LIG    1       -0.633   2.163  -0.054  0.00  0.00    +0.080 A 
ATOM     20  C   LIG    1        0.520   1.407  -0.065  0.00  0.00    -0.030 A 
ATOM     21  C   LIG    1        1.760   2.028  -0.099  0.00  0.00    +0.130 A 
BRANCH  18  22
ATOM     22  C   LIG    1       -1.750   4.344  -0.050  0.00  0.00    +0.250 C 
ATOM     23  N   LIG    1       -2.699   4.968  -0.036  0.00  0.00    -0.410 NA
ENDBRANCH  18  22
BRANCH  16  24
ATOM     24  O   LIG    1        3.064   4.025  -0.149  0.00  0.00    -0.300 OA
BRANCH  24  26
ATOM     25  C   LIG    1        4.524   5.950  -0.202  0.00  0.00    +0.070 C 
ATOM     26  C   LIG    1        3.078   5.454  -0.165  0.00  0.00    +0.170 C 
ENDBRANCH  24  26
ENDBRANCH  16  24
ENDBRANCH  15  21
ENDBRANCH   1  15
TORSDOF 9
