REMARK  Name = ZINCpk00000xIdgQ.0
REMARK                            x       y       z     vdW  Elec       q    Type
REMARK                         _______ _______ _______ _____ _____    ______ ____
ROOT
ATOM      1  C   LIG    1       -1.031   1.272   3.626  0.00  0.00    +0.110 A 
ATOM      2  C   LIG    1       -0.440   0.881   2.440  0.00  0.00    -0.030 A 
ATOM      3  C   LIG    1       -0.704   1.565   1.257  0.00  0.00    -0.060 A 
ATOM      4  C   LIG    1       -1.568   2.637   1.270  0.00  0.00    -0.090 A 
ATOM      5  C   LIG    1       -1.909   3.412   0.022  0.00  0.00    +0.350 C 
ATOM      6  N   LIG    1       -1.003   3.023  -1.065  0.00  0.00    -1.010 NA
ATOM      7  C   LIG    1       -0.738   1.585  -1.240  0.00  0.00    +0.300 C 
ATOM      8  C   LIG    1       -2.161   3.036   2.460  0.00  0.00    -0.030 A 
ATOM      9  C   LIG    1       -0.013   1.086   0.008  0.00  0.00    +0.080 C 
ATOM     10  C   LIG    1       -1.899   2.361   3.638  0.00  0.00    +0.100 A 
ENDROOT
BRANCH   6  11
ATOM     11  S   LIG    1       -0.307   4.154  -2.054  0.00  0.00    +2.780 S 
ATOM     12  O   LIG    1        0.868   3.556  -2.583  0.00  0.00    -0.970 OA
ATOM     13  O   LIG    1       -0.298   5.374  -1.324  0.00  0.00    -0.970 OA
BRANCH  11  14
ATOM     14  N   LIG    1       -1.332   4.383  -3.334  0.00  0.00    -1.010 NA
ATOM     15  C   LIG    1       -1.209   3.575  -4.557  0.00  0.00    +0.270 C 
ATOM     16  C   LIG    1       -2.595   3.005  -4.897  0.00  0.00    +0.200 C 
ATOM     17  O   LIG    1       -3.545   4.072  -4.935  0.00  0.00    -0.370 OA
ATOM     18  C   LIG    1       -3.716   4.749  -3.688  0.00  0.00    +0.140 C 
ATOM     19  C   LIG    1       -4.795   5.824  -3.832  0.00  0.00    +0.060 C 
ATOM     20  C   LIG    1       -3.010   1.990  -3.829  0.00  0.00    +0.010 C 
ATOM     21  C   LIG    1       -2.390   5.405  -3.284  0.00  0.00    +0.270 C 
ENDBRANCH  11  14
ENDBRANCH   6  11
BRANCH   1  23
ATOM     22  C   LIG    1        0.132  -0.510   4.687  0.00  0.00    +0.250 C 
ATOM     23  O   LIG    1       -0.767   0.596   4.776  0.00  0.00    -0.310 OA
ENDBRANCH   1  23
BRANCH  10  24
ATOM     24  O   LIG    1       -2.483   2.758   4.799  0.00  0.00    -0.310 OA
ATOM     25  C   LIG    1       -3.362   3.883   4.732  0.00  0.00    +0.240 C 
ENDBRANCH  10  24
TORSDOF 4
