REMARK  Name = ZINCpe00000gLSpy.0
REMARK                            x       y       z     vdW  Elec       q    Type
REMARK                         _______ _______ _______ _____ _____    ______ ____
ROOT
ATOM      1  N   LIG    1       -0.749   3.617  -0.171  0.00  0.00    -0.590 N 
ATOM      2  C   LIG    1       -0.901   2.981   0.992  0.00  0.00    +0.520 C 
ATOM      3  C   LIG    1       -0.773   1.493   1.146  0.00  0.00    +0.070 C 
ATOM      4  C   LIG    1       -0.039   0.905  -0.062  0.00  0.00    +0.040 C 
ATOM      5  C   LIG    1       -0.685   1.459  -1.338  0.00  0.00    -0.020 C 
ATOM      6  O   LIG    1       -1.156   3.641   1.977  0.00  0.00    -0.550 OA
ATOM      7  C   LIG    1       -0.396   2.958  -1.422  0.00  0.00    +0.320 C 
ENDROOT
BRANCH   7   8
ATOM      8  C   LIG    1       -1.206   3.560  -2.542  0.00  0.00    -0.260 A 
ATOM      9  C   LIG    1       -0.725   3.981  -3.735  0.00  0.00    +0.260 A 
ATOM     10  N   LIG    1       -1.765   4.452  -4.454  0.00  0.00    -0.370 N 
ATOM     11  N   LIG    1       -2.923   4.316  -3.678  0.00  0.00    -0.290 NA
ATOM     12  C   LIG    1       -1.695   5.008  -5.808  0.00  0.00    +0.360 C 
ATOM     13  C   LIG    1       -2.587   3.775  -2.535  0.00  0.00    +0.250 A 
ENDBRANCH   7   8
BRANCH   1  15
ATOM     14  C   LIG    1        0.399   5.771  -0.022  0.00  0.00    +0.010 C 
ATOM     15  C   LIG    1       -0.949   5.068  -0.191  0.00  0.00    +0.270 C 
ENDBRANCH   1  15
BRANCH   5  16
ATOM     16  C   LIG    1       -0.094   0.753  -2.560  0.00  0.00    +0.290 C 
BRANCH  16  17
ATOM     17  N   LIG    1       -0.458  -0.666  -2.528  0.00  0.00    -0.720 N 
ATOM     18  H   LIG    1       -0.996  -1.012  -1.799  0.00  0.00    +0.400 HD
ATOM     19  C   LIG    1       -0.045  -1.490  -3.511  0.00  0.00    +0.600 C 
ATOM     20  O   LIG    1        0.550  -1.040  -4.473  0.00  0.00    -0.540 OA
BRANCH  19  21
ATOM     21  C   LIG    1       -0.312  -2.930  -3.422  0.00  0.00    -0.090 A 
ATOM     22  C   LIG    1       -1.044  -3.570  -2.461  0.00  0.00    +0.220 A 
ATOM     23  N   LIG    1       -1.042  -4.872  -2.747  0.00  0.00    -0.500 NA
ATOM     24  C   LIG    1       -0.348  -5.083  -3.836  0.00  0.00    +0.420 A 
ATOM     25  N   LIG    1        0.121  -3.909  -4.296  0.00  0.00    -0.430 N 
ATOM     26  C   LIG    1        0.938  -3.706  -5.494  0.00  0.00    +0.340 C 
ENDBRANCH  19  21
ENDBRANCH  16  17
ENDBRANCH   5  16
TORSDOF 5
