REMARK  Name = ZINCqH0000038c2s.0
REMARK                            x       y       z     vdW  Elec       q    Type
REMARK                         _______ _______ _______ _____ _____    ______ ____
ROOT
ATOM      1  C   LIG    1        0.080  -0.001  -0.008  0.00  0.00    +0.520 C 
ATOM      2  N   LIG    1       -0.016   1.344   0.009  0.00  0.00    -0.670 N 
ATOM      3  H   LIG    1        0.787   1.887   0.014  0.00  0.00    +0.420 HD
ATOM      4  O   LIG    1       -0.920  -0.681   0.084  0.00  0.00    -0.500 OA
ENDROOT
BRANCH   2   5
ATOM      5  C   LIG    1       -1.275   1.955   0.015  0.00  0.00    +0.170 A 
ATOM      6  C   LIG    1       -2.375   1.285  -0.500  0.00  0.00    +0.050 A 
ATOM      7  C   LIG    1       -3.621   1.894  -0.493  0.00  0.00    +0.140 A 
ATOM      8  C   LIG    1       -3.764   3.172   0.031  0.00  0.00    +0.000 A 
ATOM      9  C   LIG    1       -2.667   3.838   0.543  0.00  0.00    +0.080 A 
ATOM     10  C   LIG    1       -1.425   3.231   0.543  0.00  0.00    -0.110 A 
ATOM     11  C   LIG    1       -0.233   3.958   1.109  0.00  0.00    +0.110 C 
BRANCH   7  12
ATOM     12  N   LIG    1       -4.735   1.220  -1.014  0.00  0.00    -0.330 N 
ATOM     13  C   LIG    1       -6.008   1.667  -1.076  0.00  0.00    +0.470 A 
ATOM     14  N   LIG    1       -6.723   0.726  -1.636  0.00  0.00    -0.330 NA
ATOM     15  N   LIG    1       -5.990  -0.289  -1.924  0.00  0.00    -0.030 NA
ATOM     16  N   LIG    1       -4.767  -0.067  -1.577  0.00  0.00    -0.070 NA
ENDBRANCH   7  12
ENDBRANCH   2   5
BRANCH   1  17
ATOM     17  C   LIG    1        1.429  -0.658  -0.142  0.00  0.00    +0.100 C 
BRANCH  17  18
ATOM     18  C   LIG    1        1.259  -2.178  -0.135  0.00  0.00    +0.100 C 
BRANCH  18  19
ATOM     19  S   LIG    1        2.884  -2.969  -0.297  0.00  0.00    -0.110 S 
BRANCH  19  24
ATOM     20  C   LIG    1        1.543  -8.854  -0.203  0.00  0.00    +0.090 C 
ATOM     21  C   LIG    1        1.878  -7.385  -0.227  0.00  0.00    -0.090 A 
ATOM     22  C   LIG    1        0.868  -6.446  -0.123  0.00  0.00    +0.030 A 
ATOM     23  C   LIG    1        1.172  -5.099  -0.139  0.00  0.00    +0.000 A 
ATOM     24  C   LIG    1        2.492  -4.687  -0.270  0.00  0.00    -0.090 A 
ATOM     25  C   LIG    1        3.505  -5.634  -0.373  0.00  0.00    +0.030 A 
ATOM     26  C   LIG    1        3.194  -6.979  -0.352  0.00  0.00    -0.070 A 
ATOM     27  C   LIG    1        4.291  -8.006  -0.464  0.00  0.00    +0.090 C 
ENDBRANCH  19  24
ENDBRANCH  18  19
ENDBRANCH  17  18
ENDBRANCH   1  17
TORSDOF 6
