REMARK  Name = ZINCrg00000SjsPy.0
REMARK                            x       y       z     vdW  Elec       q    Type
REMARK                         _______ _______ _______ _____ _____    ______ ____
ROOT
ATOM      1  N   LIG    1       -3.405   3.816   0.640  0.00  0.00    -0.740 N 
ATOM      2  H   LIG    1       -4.174   4.378   0.824  0.00  0.00    +0.400 HD
ATOM      3  C   LIG    1       -2.634   3.377   1.655  0.00  0.00    +0.710 C 
ATOM      4  N   LIG    1       -2.869   3.802   2.912  0.00  0.00    -0.630 N 
ATOM      5  C   LIG    1       -1.978   3.418   4.019  0.00  0.00    +0.280 C 
ATOM      6  C   LIG    1       -1.583   4.694   4.779  0.00  0.00    +0.230 C 
ATOM      7  O   LIG    1       -2.765   5.414   5.136  0.00  0.00    -0.370 OA
ATOM      8  C   LIG    1       -3.533   5.868   4.019  0.00  0.00    +0.220 C 
ATOM      9  C   LIG    1       -4.026   4.657   3.219  0.00  0.00    +0.280 C 
ATOM     10  O   LIG    1       -1.726   2.599   1.435  0.00  0.00    -0.580 OA
ENDROOT
BRANCH   8  11
ATOM     11  C   LIG    1       -4.716   6.662   4.511  0.00  0.00    +0.200 A 
ATOM     12  C   LIG    1       -4.860   6.943   5.861  0.00  0.00    -0.070 A 
ATOM     13  C   LIG    1       -5.962   7.676   6.271  0.00  0.00    +0.340 A 
ATOM     14  N   LIG    1       -6.839   8.083   5.368  0.00  0.00    -0.550 NA
ATOM     15  C   LIG    1       -6.672   7.797   4.085  0.00  0.00    +0.490 A 
ATOM     16  N   LIG    1       -5.627   7.103   3.660  0.00  0.00    -0.520 NA
BRANCH  15  17
ATOM     17  N   LIG    1       -7.610   8.238   3.167  0.00  0.00    -0.450 N 
ATOM     18  C   LIG    1       -8.274   7.093   2.493  0.00  0.00    +0.210 C 
ATOM     19  C   LIG    1       -9.583   7.715   1.946  0.00  0.00    +0.030 C 
ATOM     20  C   LIG    1       -9.991   8.702   3.064  0.00  0.00    +0.020 C 
ATOM     21  C   LIG    1       -8.691   8.994   3.836  0.00  0.00    +0.220 C 
ENDBRANCH  15  17
ENDBRANCH   8  11
BRANCH   1  22
ATOM     22  C   LIG    1       -3.083   3.444  -0.739  0.00  0.00    +0.380 C 
BRANCH  22  28
ATOM     23  C   LIG    1       -5.846   2.273  -1.516  0.00  0.00    +0.360 C 
ATOM     24  N   LIG    1       -5.291   3.537  -2.006  0.00  0.00    -0.360 N 
ATOM     25  N   LIG    1       -5.912   4.417  -2.902  0.00  0.00    -0.290 NA
ATOM     26  C   LIG    1       -5.111   5.432  -3.099  0.00  0.00    +0.240 A 
ATOM     27  C   LIG    1       -3.955   5.231  -2.337  0.00  0.00    -0.090 A 
ATOM     28  C   LIG    1       -4.092   4.059  -1.675  0.00  0.00    +0.060 A 
ENDBRANCH  22  28
ENDBRANCH   1  22
TORSDOF 4
