REMARK  Name = ZINCvU00000009CE.0
REMARK                            x       y       z     vdW  Elec       q    Type
REMARK                         _______ _______ _______ _____ _____    ______ ____
ROOT
ATOM      1  C   LIG    1       -4.950   1.546   0.028  0.00  0.00    +0.140 A 
ATOM      2  N   LIG    1       -5.710   2.620   0.042  0.00  0.00    -0.270 NA
ATOM      3  N   LIG    1       -4.876   3.745   0.044  0.00  0.00    -0.320 N 
ATOM      4  C   LIG    1       -3.588   3.313   0.037  0.00  0.00    +0.270 A 
ATOM      5  C   LIG    1       -3.604   1.962   0.030  0.00  0.00    -0.230 A 
ENDROOT
BRANCH   1  10
ATOM      6  C   LIG    1       -6.803  -3.907  -0.021  0.00  0.00    +0.090 C 
ATOM      7  C   LIG    1       -6.318  -2.481  -0.008  0.00  0.00    -0.070 A 
ATOM      8  C   LIG    1       -5.168  -2.138  -0.694  0.00  0.00    +0.020 A 
ATOM      9  C   LIG    1       -4.722  -0.831  -0.691  0.00  0.00    +0.030 A 
ATOM     10  C   LIG    1       -5.427   0.141   0.016  0.00  0.00    -0.030 A 
ATOM     11  C   LIG    1       -6.586  -0.210   0.706  0.00  0.00    +0.050 A 
ATOM     12  C   LIG    1       -7.026  -1.518   0.691  0.00  0.00    -0.090 A 
ATOM     13  C   LIG    1       -8.279  -1.900   1.436  0.00  0.00    +0.090 C 
ENDBRANCH   1  10
BRANCH   3  14
ATOM     14  C   LIG    1       -5.295   5.082   0.053  0.00  0.00    +0.160 A 
ATOM     15  C   LIG    1       -4.357   6.106   0.059  0.00  0.00    -0.010 A 
ATOM     16  C   LIG    1       -4.774   7.422   0.061  0.00  0.00    +0.040 A 
ATOM     17  C   LIG    1       -6.124   7.722   0.069  0.00  0.00    +0.000 A 
ATOM     18  C   LIG    1       -7.061   6.704   0.069  0.00  0.00    +0.040 A 
ATOM     19  C   LIG    1       -6.650   5.386   0.060  0.00  0.00    +0.020 A 
ENDBRANCH   3  14
BRANCH   5  20
ATOM     20  C   LIG    1       -2.397   1.060   0.019  0.00  0.00    +0.330 C 
BRANCH  20  21
ATOM     21  O   LIG    1       -1.190   1.868   0.018  0.00  0.00    -0.350 OA
BRANCH  21  22
ATOM     22  C   LIG    1       -0.014   1.210   0.009  0.00  0.00    +0.510 C 
ATOM     23  O   LIG    1        0.002  -0.004   0.002  0.00  0.00    -0.490 OA
BRANCH  22  24
ATOM     24  C   LIG    1        1.257   1.967   0.001  0.00  0.00    -0.090 A 
ATOM     25  C   LIG    1        1.237   3.363   0.003  0.00  0.00    +0.060 A 
ATOM     26  C   LIG    1        2.420   4.069   0.001  0.00  0.00    +0.070 A 
ATOM     27  C   LIG    1        3.641   3.387  -0.015  0.00  0.00    -0.160 A 
ATOM     28  C   LIG    1        3.659   1.989  -0.022  0.00  0.00    +0.070 A 
ATOM     29  C   LIG    1        2.475   1.285  -0.015  0.00  0.00    +0.080 A 
BRANCH  27  30
ATOM     30  C   LIG    1        4.907   4.142  -0.023  0.00  0.00    +0.490 C 
ATOM     31  O   LIG    1        4.891   5.354  -0.016  0.00  0.00    -0.450 OA
ENDBRANCH  27  30
ENDBRANCH  22  24
ENDBRANCH  21  22
ENDBRANCH  20  21
ENDBRANCH   5  20
TORSDOF 7
