REMARK  Name = ZINCpe000000T02I.0
REMARK                            x       y       z     vdW  Elec       q    Type
REMARK                         _______ _______ _______ _____ _____    ______ ____
ROOT
ATOM      1  N   LIG    1       -0.018   1.467   0.010  0.00  0.00    -1.000 NA
ATOM      2  C   LIG    1        1.268   2.180   0.002  0.00  0.00    +0.320 C 
ATOM      3  C   LIG    1        2.147   1.614   1.123  0.00  0.00    +0.180 C 
ATOM      4  N   LIG    1        2.244   0.155   0.974  0.00  0.00    -0.500 N 
ATOM      5  C   LIG    1        0.930  -0.484   1.123  0.00  0.00    +0.180 C 
ATOM      6  C   LIG    1        0.002  -0.004   0.002  0.00  0.00    +0.320 C 
ENDROOT
BRANCH   4   7
ATOM      7  C   LIG    1        3.160  -0.376   1.872  0.00  0.00    +0.220 A 
ATOM      8  C   LIG    1        4.337  -1.006   1.421  0.00  0.00    -0.200 A 
ATOM      9  C   LIG    1        4.882  -1.262   0.142  0.00  0.00    +0.300 A 
ATOM     10  N   LIG    1        6.014  -1.887   0.293  0.00  0.00    -0.240 NA
ATOM     11  N   LIG    1        6.272  -2.073   1.656  0.00  0.00    -0.390 N 
ATOM     12  C   LIG    1        7.449  -2.736   2.225  0.00  0.00    +0.360 C 
ATOM     13  C   LIG    1        5.236  -1.529   2.367  0.00  0.00    +0.320 A 
ATOM     14  N   LIG    1        4.973  -1.428   3.665  0.00  0.00    -0.510 NA
ATOM     15  C   LIG    1        3.879  -0.844   4.108  0.00  0.00    +0.350 A 
ATOM     16  C   LIG    1        2.948  -0.297   3.243  0.00  0.00    -0.110 A 
ENDBRANCH   4   7
BRANCH   1  17
ATOM     17  S   LIG    1       -1.450   2.297   0.021  0.00  0.00    +2.610 S 
ATOM     18  O   LIG    1       -2.377   1.406  -0.584  0.00  0.00    -0.940 OA
ATOM     19  O   LIG    1       -1.136   3.546  -0.579  0.00  0.00    -0.940 OA
BRANCH  17  20
ATOM     20  C   LIG    1       -1.834   2.515   1.781  0.00  0.00    -0.360 C 
BRANCH  20  21
ATOM     21  C   LIG    1       -3.152   3.278   1.925  0.00  0.00    +0.200 C 
BRANCH  21  22
ATOM     22  O   LIG    1       -3.453   3.450   3.312  0.00  0.00    -0.370 OA
BRANCH  22  24
ATOM     23  C   LIG    1       -5.283   3.672   4.875  0.00  0.00    +0.040 C 
ATOM     24  C   LIG    1       -4.671   4.155   3.558  0.00  0.00    +0.140 C 
ATOM     25  C   LIG    1       -4.383   5.655   3.650  0.00  0.00    +0.020 C 
ENDBRANCH  22  24
ENDBRANCH  21  22
ENDBRANCH  20  21
ENDBRANCH  17  20
ENDBRANCH   1  17
TORSDOF 6
