REMARK  Name = ZINCrg00001JduUe.0
REMARK                            x       y       z     vdW  Elec       q    Type
REMARK                         _______ _______ _______ _____ _____    ______ ____
ROOT
ATOM      1  N   LIG    1       -6.229   8.568  -2.178  0.00  0.00    -0.360 N 
ATOM      2  C   LIG    1       -6.005   7.261  -1.928  0.00  0.00    +0.240 A 
ATOM      3  C   LIG    1       -4.780   6.953  -2.414  0.00  0.00    -0.230 A 
ATOM      4  C   LIG    1       -4.242   8.109  -2.989  0.00  0.00    +0.250 A 
ATOM      5  N   LIG    1       -5.110   9.078  -2.848  0.00  0.00    -0.290 NA
ENDROOT
BRANCH   1   6
ATOM      6  C   LIG    1       -7.434   9.320  -1.818  0.00  0.00    +0.440 C 
BRANCH   6   9
ATOM      7  N   LIG    1       -6.811  12.558  -0.290  0.00  0.00    -0.300 N 
ATOM      8  C   LIG    1       -7.366  11.819  -1.278  0.00  0.00    +0.200 A 
ATOM      9  C   LIG    1       -7.048  10.531  -1.010  0.00  0.00    -0.050 A 
ATOM     10  N   LIG    1       -6.328  10.545   0.118  0.00  0.00    -0.240 NA
ATOM     11  N   LIG    1       -6.201  11.761   0.516  0.00  0.00    -0.080 NA
BRANCH   7  12
ATOM     12  C   LIG    1       -6.890  14.015  -0.160  0.00  0.00    +0.500 C 
BRANCH  12  13
ATOM     13  O   LIG    1       -7.651  14.550  -1.245  0.00  0.00    -0.400 OA
BRANCH  13  14
ATOM     14  C   LIG    1       -7.790  15.972  -1.213  0.00  0.00    +0.190 C 
BRANCH  14  15
ATOM     15  C   LIG    1       -8.617  16.431  -2.415  0.00  0.00    +0.020 C 
BRANCH  15  17
ATOM     16  C   LIG    1       -9.594  18.412  -3.582  0.00  0.00    +0.030 C 
ATOM     17  C   LIG    1       -8.766  17.953  -2.380  0.00  0.00    +0.020 C 
ENDBRANCH  15  17
ENDBRANCH  14  15
ENDBRANCH  13  14
ENDBRANCH  12  13
ENDBRANCH   7  12
ENDBRANCH   6   9
ENDBRANCH   1   6
BRANCH   3  18
ATOM     18  C   LIG    1       -4.116   5.602  -2.353  0.00  0.00    +0.260 C 
BRANCH  18  19
ATOM     19  N   LIG    1       -3.327   5.499  -1.118  0.00  0.00    -0.530 NA
ATOM     20  C   LIG    1       -4.197   5.515   0.065  0.00  0.00    +0.200 C 
BRANCH  19  21
ATOM     21  C   LIG    1       -2.480   4.299  -1.133  0.00  0.00    +0.180 C 
BRANCH  21  22
ATOM     22  C   LIG    1       -1.498   4.354   0.040  0.00  0.00    +0.330 C 
BRANCH  22  23
ATOM     23  N   LIG    1       -0.654   3.157   0.025  0.00  0.00    -0.380 N 
ATOM     24  C   LIG    1        0.690   3.119   0.012  0.00  0.00    +0.480 A 
ATOM     25  N   LIG    1        1.061   1.865   0.002  0.00  0.00    -0.550 NA
ATOM     26  C   LIG    1       -0.013   1.076   0.008  0.00  0.00    +0.420 A 
ATOM     27  N   LIG    1       -1.087   1.821   0.017  0.00  0.00    -0.320 NA
ENDBRANCH  22  23
ENDBRANCH  21  22
ENDBRANCH  19  21
ENDBRANCH  18  19
ENDBRANCH   3  18
TORSDOF 12
