REMARK  Name = ZINCnE000008Jfbh.0
REMARK                            x       y       z     vdW  Elec       q    Type
REMARK                         _______ _______ _______ _____ _____    ______ ____
ROOT
ATOM      1  C   LIG    1       -0.787   2.893   1.346  0.00  0.00    +0.080 A 
ATOM      2  C   LIG    1       -0.260   3.747   0.397  0.00  0.00    +0.020 A 
ATOM      3  C   LIG    1       -0.371   5.129   0.567  0.00  0.00    -0.190 A 
ATOM      4  C   LIG    1       -1.015   5.642   1.696  0.00  0.00    +0.070 A 
ATOM      5  C   LIG    1       -1.539   4.784   2.639  0.00  0.00    -0.060 A 
ATOM      6  C   LIG    1       -1.433   3.411   2.468  0.00  0.00    +0.150 A 
ENDROOT
BRANCH   1   8
ATOM      7  C   LIG    1       -0.013   1.086   0.008  0.00  0.00    +0.230 C 
ATOM      8  O   LIG    1       -0.682   1.547   1.184  0.00  0.00    -0.300 OA
ENDBRANCH   1   8
BRANCH   3   9
ATOM      9  C   LIG    1        0.190   6.047  -0.445  0.00  0.00    +0.430 C 
ATOM     10  O   LIG    1        0.751   5.598  -1.430  0.00  0.00    -0.480 OA
BRANCH   9  11
ATOM     11  C   LIG    1        0.077   7.444  -0.272  0.00  0.00    -0.110 C 
ATOM     12  C   LIG    1        0.594   8.289  -1.204  0.00  0.00    +0.170 C 
BRANCH  12  13
ATOM     13  C   LIG    1        0.481   9.687  -1.030  0.00  0.00    -0.210 A 
ATOM     14  C   LIG    1        0.959  10.638  -1.896  0.00  0.00    +0.060 A 
ATOM     15  C   LIG    1        0.710  11.923  -1.480  0.00  0.00    -0.010 A 
ATOM     16  C   LIG    1        0.052  12.027  -0.318  0.00  0.00    -0.210 A 
ATOM     17  C   LIG    1       -0.330  13.332   0.332  0.00  0.00    +0.140 C 
ATOM     18  S   LIG    1       -0.302  10.488   0.326  0.00  0.00    +0.210 S 
ENDBRANCH  12  13
ENDBRANCH   9  11
ENDBRANCH   3   9
BRANCH   6  19
ATOM     19  O   LIG    1       -1.956   2.570   3.398  0.00  0.00    -0.260 OA
BRANCH  19  20
ATOM     20  C   LIG    1       -2.604   3.168   4.522  0.00  0.00    +0.110 C 
BRANCH  20  21
ATOM     21  C   LIG    1       -3.117   2.088   5.440  0.00  0.00    +0.500 C 
ATOM     22  O   LIG    1       -3.706   2.388   6.465  0.00  0.00    -0.690 OA
ATOM     23  O   LIG    1       -2.944   0.915   5.157  0.00  0.00    -0.670 OA
ENDBRANCH  20  21
ENDBRANCH  19  20
ENDBRANCH   6  19
TORSDOF 7
