REMARK  Name = ZINCqH00000078ez.1
REMARK                            x       y       z     vdW  Elec       q    Type
REMARK                         _______ _______ _______ _____ _____    ______ ____
ROOT
ATOM      1  C   LIG    1       -0.753   1.593  -1.232  0.00  0.00    +0.360 C 
ENDROOT
BRANCH   1   2
ATOM      2  C   LIG    1        0.019   1.211  -2.468  0.00  0.00    +0.280 A 
ATOM      3  N   LIG    1        1.266   1.510  -2.691  0.00  0.00    -0.470 NA
ATOM      4  C   LIG    1        1.647   1.012  -3.895  0.00  0.00    +0.050 A 
ATOM      5  C   LIG    1        2.846   1.035  -4.611  0.00  0.00    +0.070 A 
ATOM      6  C   LIG    1        2.920   0.433  -5.836  0.00  0.00    +0.000 A 
ATOM      7  C   LIG    1        1.813  -0.205  -6.378  0.00  0.00    +0.030 A 
ATOM      8  C   LIG    1        0.619  -0.240  -5.689  0.00  0.00    +0.010 A 
ATOM      9  C   LIG    1        0.526   0.366  -4.444  0.00  0.00    +0.050 A 
ATOM     10  N   LIG    1       -0.488   0.509  -3.518  0.00  0.00    -0.600 N 
ATOM     11  H   LIG    1       -1.393   0.172  -3.600  0.00  0.00    +0.420 HD
ENDBRANCH   1   2
BRANCH   1  13
ATOM     12  C   LIG    1       -3.107   1.552  -0.604  0.00  0.00    +0.520 C 
ATOM     13  N   LIG    1       -2.087   0.991  -1.284  0.00  0.00    -0.740 N 
ATOM     14  H   LIG    1       -2.237   0.188  -1.807  0.00  0.00    +0.400 HD
ATOM     15  O   LIG    1       -2.920   2.556   0.050  0.00  0.00    -0.510 OA
BRANCH  12  16
ATOM     16  C   LIG    1       -4.480   0.933  -0.658  0.00  0.00    +0.120 C 
BRANCH  16  20
ATOM     17  C   LIG    1       -7.178   3.241   1.719  0.00  0.00    +0.130 A 
ATOM     18  C   LIG    1       -7.006   3.540   0.375  0.00  0.00    -0.020 A 
ATOM     19  C   LIG    1       -6.133   2.792  -0.391  0.00  0.00    +0.070 A 
ATOM     20  C   LIG    1       -5.431   1.747   0.180  0.00  0.00    -0.110 A 
ATOM     21  C   LIG    1       -5.605   1.444   1.518  0.00  0.00    +0.060 A 
ATOM     22  C   LIG    1       -6.473   2.192   2.290  0.00  0.00    -0.080 A 
BRANCH  17  24
ATOM     23  C   LIG    1       -8.164   3.611   3.851  0.00  0.00    +0.250 C 
ATOM     24  O   LIG    1       -8.037   3.975   2.475  0.00  0.00    -0.320 OA
ENDBRANCH  17  24
ENDBRANCH  16  20
ENDBRANCH  12  16
ENDBRANCH   1  13
BRANCH   1  25
ATOM     25  C   LIG    1       -0.013   1.086   0.008  0.00  0.00    +0.070 C 
BRANCH  25  26
ATOM     26  C   LIG    1       -0.729   1.579   1.267  0.00  0.00    +0.100 C 
BRANCH  26  27
ATOM     27  S   LIG    1        0.148   0.978   2.736  0.00  0.00    -0.270 S 
ATOM     28  C   LIG    1       -0.834   1.655   4.103  0.00  0.00    +0.130 C 
ENDBRANCH  26  27
ENDBRANCH  25  26
ENDBRANCH   1  25
TORSDOF 8
