REMARK  Name = ZINCrH000004nBBL.0
REMARK                            x       y       z     vdW  Elec       q    Type
REMARK                         _______ _______ _______ _____ _____    ______ ____
ROOT
ATOM      1  N   LIG    1        3.390   3.225   0.980  0.00  0.00    -0.480 N 
ATOM      2  C   LIG    1        3.107   1.817   1.285  0.00  0.00    +0.200 C 
ATOM      3  C   LIG    1        2.246   1.218   0.168  0.00  0.00    +0.300 C 
ATOM      4  N   LIG    1        1.058   2.066  -0.011  0.00  0.00    -0.610 N 
ATOM      5  C   LIG    1        1.256   3.512  -0.192  0.00  0.00    +0.290 C 
ATOM      6  C   LIG    1       -0.179   1.531  -0.015  0.00  0.00    +0.540 C 
ATOM      7  O   LIG    1       -0.324   0.336   0.130  0.00  0.00    -0.520 OA
ATOM      8  C   LIG    1        2.156   4.021   0.946  0.00  0.00    +0.190 C 
ENDROOT
BRANCH   1  14
ATOM      9  C   LIG    1        5.622   3.298   1.913  0.00  0.00    +0.120 A 
ATOM     10  C   LIG    1        6.525   3.833   2.816  0.00  0.00    -0.060 A 
ATOM     11  C   LIG    1        6.123   4.824   3.693  0.00  0.00    +0.030 A 
ATOM     12  C   LIG    1        4.820   5.284   3.671  0.00  0.00    +0.000 A 
ATOM     13  C   LIG    1        3.913   4.760   2.769  0.00  0.00    +0.000 A 
ATOM     14  C   LIG    1        4.308   3.762   1.891  0.00  0.00    +0.070 A 
BRANCH   9  16
ATOM     15  C   LIG    1        7.377   1.897   1.131  0.00  0.00    +0.230 C 
ATOM     16  O   LIG    1        6.016   2.323   1.051  0.00  0.00    -0.310 OA
ENDBRANCH   9  16
ENDBRANCH   1  14
BRANCH   6  17
ATOM     17  C   LIG    1       -1.383   2.418  -0.206  0.00  0.00    +0.110 C 
BRANCH  17  18
ATOM     18  S   LIG    1       -2.886   1.411  -0.172  0.00  0.00    +0.090 S 
BRANCH  18  19
ATOM     19  C   LIG    1       -4.100   2.665  -0.411  0.00  0.00    +0.070 A 
ATOM     20  N   LIG    1       -3.844   3.921  -0.552  0.00  0.00    -0.470 NA
ATOM     21  C   LIG    1       -4.883   4.760  -0.732  0.00  0.00    +0.090 A 
ATOM     22  C   LIG    1       -4.868   6.159  -0.911  0.00  0.00    +0.070 A 
ATOM     23  C   LIG    1       -6.041   6.852  -1.075  0.00  0.00    +0.040 A 
ATOM     24  C   LIG    1       -7.259   6.190  -1.067  0.00  0.00    +0.040 A 
ATOM     25  C   LIG    1       -7.299   4.824  -0.894  0.00  0.00    +0.060 A 
ATOM     26  C   LIG    1       -6.119   4.104  -0.726  0.00  0.00    -0.180 A 
ATOM     27  S   LIG    1       -5.834   2.382  -0.485  0.00  0.00    +0.110 S 
ENDBRANCH  18  19
ENDBRANCH  17  18
ENDBRANCH   6  17
TORSDOF 5
