REMARK  Name = ZINCAx0000000fGf.0
REMARK                            x       y       z     vdW  Elec       q    Type
REMARK                         _______ _______ _______ _____ _____    ______ ____
ROOT
ATOM      1  C   LIG    1       -4.839  -1.061   0.041  0.00  0.00    +0.270 C 
ENDROOT
BRANCH   1   2
ATOM      2  N   LIG    1       -5.422  -1.988  -0.938  0.00  0.00    -0.500 NA
ATOM      3  C   LIG    1       -5.084  -3.380  -0.611  0.00  0.00    +0.180 C 
ATOM      4  C   LIG    1       -5.581  -4.302  -1.726  0.00  0.00    +0.030 C 
ATOM      5  C   LIG    1       -7.098  -4.146  -1.872  0.00  0.00    +0.000 C 
ATOM      6  C   LIG    1       -7.426  -2.679  -2.164  0.00  0.00    +0.210 C 
ATOM      7  C   LIG    1       -6.875  -1.804  -1.037  0.00  0.00    +0.210 C 
BRANCH   6   8
ATOM      8  O   LIG    1       -8.866  -2.513  -2.248  0.00  0.00    -0.360 OA
BRANCH   8   9
ATOM      9  C   LIG    1       -9.430  -2.664  -3.462  0.00  0.00    +0.650 C 
ATOM     10  N   LIG    1      -10.762  -2.522  -3.608  0.00  0.00    -0.610 N 
ATOM     11  C   LIG    1      -11.597  -2.204  -2.447  0.00  0.00    +0.290 C 
ATOM     12  C   LIG    1      -11.375  -2.686  -4.929  0.00  0.00    +0.320 C 
ATOM     13  O   LIG    1       -8.737  -2.927  -4.424  0.00  0.00    -0.570 OA
ENDBRANCH   8   9
ENDBRANCH   6   8
ENDBRANCH   1   2
BRANCH   1  14
ATOM     14  C   LIG    1       -3.341  -1.229   0.062  0.00  0.00    -0.230 A 
ATOM     15  C   LIG    1       -2.517  -1.145  -1.007  0.00  0.00    +0.310 A 
ATOM     16  N   LIG    1       -1.249  -1.355  -0.566  0.00  0.00    -0.320 N 
ATOM     17  N   LIG    1       -1.308  -1.580   0.816  0.00  0.00    -0.280 NA
ATOM     18  C   LIG    1       -2.559  -1.498   1.191  0.00  0.00    +0.260 A 
BRANCH  16  19
ATOM     19  C   LIG    1       -0.092  -1.354  -1.351  0.00  0.00    +0.370 A 
ATOM     20  C   LIG    1        1.142  -1.586  -0.758  0.00  0.00    -0.010 A 
ATOM     21  C   LIG    1        2.280  -1.583  -1.548  0.00  0.00    +0.100 A 
ATOM     22  C   LIG    1        2.141  -1.347  -2.908  0.00  0.00    -0.040 A 
ATOM     23  C   LIG    1        0.881  -1.123  -3.430  0.00  0.00    +0.310 A 
ATOM     24  N   LIG    1       -0.184  -1.133  -2.653  0.00  0.00    -0.500 NA
ENDBRANCH  16  19
ENDBRANCH   1  14
BRANCH   1  27
ATOM     25  N   LIG    1       -5.002  -0.629   2.471  0.00  0.00    -0.720 N 
ATOM     26  H   LIG    1       -4.359   0.088   2.355  0.00  0.00    +0.400 HD
ATOM     27  C   LIG    1       -5.397  -1.359   1.409  0.00  0.00    +0.490 C 
ATOM     28  O   LIG    1       -6.201  -2.255   1.554  0.00  0.00    -0.530 OA
BRANCH  25  29
ATOM     29  C   LIG    1       -5.545  -0.919   3.801  0.00  0.00    +0.330 C 
BRANCH  29  35
ATOM     30  C   LIG    1       -5.440   1.324   4.918  0.00  0.00    +0.140 A 
ATOM     31  C   LIG    1       -4.892   2.195   5.848  0.00  0.00    -0.080 A 
ATOM     32  C   LIG    1       -3.848   1.779   6.651  0.00  0.00    +0.060 A 
ATOM     33  C   LIG    1       -3.354   0.493   6.533  0.00  0.00    -0.030 A 
ATOM     34  C   LIG    1       -3.903  -0.379   5.611  0.00  0.00    +0.070 A 
ATOM     35  C   LIG    1       -4.947   0.032   4.805  0.00  0.00    -0.150 A 
BRANCH  30  37
ATOM     36  C   LIG    1       -6.921   3.077   4.293  0.00  0.00    +0.250 C 
ATOM     37  O   LIG    1       -6.463   1.734   4.122  0.00  0.00    -0.310 OA
ENDBRANCH  30  37
ENDBRANCH  29  35
ENDBRANCH  25  29
ENDBRANCH   1  27
TORSDOF 9
