REMARK  Name = ZINCvU0000000IF1.0
REMARK                            x       y       z     vdW  Elec       q    Type
REMARK                         _______ _______ _______ _____ _____    ______ ____
ROOT
ATOM      1  C   LIG    1       -0.018   1.503   0.010  0.00  0.00    +0.000 C 
ATOM      2  C   LIG    1       -0.752   2.011  -1.234  0.00  0.00    +0.040 C 
ATOM      3  C   LIG    1       -0.716   3.541  -1.251  0.00  0.00    +0.170 C 
ATOM      4  N   LIG    1        0.679   4.000  -1.262  0.00  0.00    -0.530 NA
ATOM      5  C   LIG    1        1.390   3.563  -0.054  0.00  0.00    +0.190 C 
ATOM      6  C   LIG    1        1.418   2.034  -0.001  0.00  0.00    +0.070 C 
ENDROOT
BRANCH   1   8
ATOM      7  O   LIG    1        1.060  -0.596  -0.011  0.00  0.00    -0.460 OA
ATOM      8  C   LIG    1        0.002  -0.004   0.002  0.00  0.00    +0.510 C 
ATOM      9  N   LIG    1       -1.156  -0.694   0.009  0.00  0.00    -0.640 N 
ATOM     10  H   LIG    1       -2.002  -0.220   0.020  0.00  0.00    +0.420 HD
BRANCH   9  11
ATOM     11  C   LIG    1       -1.137  -2.082   0.002  0.00  0.00    +0.270 A 
ATOM     12  N   LIG    1       -0.062  -2.809  -0.018  0.00  0.00    -0.470 NA
ATOM     13  C   LIG    1       -0.222  -4.115  -0.018  0.00  0.00    +0.270 A 
ATOM     14  C   LIG    1       -1.510  -4.517  -0.008  0.00  0.00    -0.210 A 
ATOM     15  S   LIG    1       -2.526  -3.078   0.010  0.00  0.00    +0.150 S 
BRANCH  14  16
ATOM     16  C   LIG    1       -1.984  -5.916  -0.010  0.00  0.00    +0.000 A 
ATOM     17  C   LIG    1       -1.066  -6.968  -0.030  0.00  0.00    +0.050 A 
ATOM     18  C   LIG    1       -1.515  -8.272  -0.026  0.00  0.00    +0.040 A 
ATOM     19  C   LIG    1       -2.873  -8.540  -0.015  0.00  0.00    -0.040 A 
ATOM     20  C   LIG    1       -3.789  -7.501  -0.000  0.00  0.00    +0.040 A 
ATOM     21 CL   LIG    1       -3.430 -10.184  -0.017  0.00  0.00    -0.060 Cl
ATOM     22  C   LIG    1       -3.353  -6.193   0.002  0.00  0.00    +0.030 A 
ENDBRANCH  14  16
ENDBRANCH   9  11
ENDBRANCH   1   8
BRANCH   4  23
ATOM     23  C   LIG    1        0.752   5.458  -1.418  0.00  0.00    +0.310 C 
BRANCH  23  24
ATOM     24  C   LIG    1       -0.183   5.894  -2.516  0.00  0.00    +0.280 A 
ATOM     25  N   LIG    1        0.112   5.911  -3.783  0.00  0.00    -0.470 NA
ATOM     26  C   LIG    1       -0.957   6.352  -4.495  0.00  0.00    +0.040 A 
ATOM     27  C   LIG    1       -1.189   6.560  -5.857  0.00  0.00    +0.070 A 
ATOM     28  C   LIG    1       -2.400   7.032  -6.277  0.00  0.00    +0.000 A 
ATOM     29  C   LIG    1       -3.408   7.308  -5.364  0.00  0.00    +0.030 A 
ATOM     30  C   LIG    1       -3.201   7.112  -4.015  0.00  0.00    +0.010 A 
ATOM     31  C   LIG    1       -1.977   6.633  -3.570  0.00  0.00    +0.050 A 
ATOM     32  N   LIG    1       -1.457   6.332  -2.326  0.00  0.00    -0.600 N 
ATOM     33  H   LIG    1       -1.915   6.418  -1.476  0.00  0.00    +0.420 HD
ENDBRANCH  23  24
ENDBRANCH   4  23
TORSDOF 5
