REMARK  Name = ZINCtV000002PpHC.0
REMARK                            x       y       z     vdW  Elec       q    Type
REMARK                         _______ _______ _______ _____ _____    ______ ____
ROOT
ATOM      1  O   LIG    1       -2.062  -0.017  -0.522  0.00  0.00    -0.250 OA
ENDROOT
BRANCH   1   2
ATOM      2  C   LIG    1       -0.710   0.057  -0.407  0.00  0.00    +0.040 A 
ATOM      3  C   LIG    1        0.047  -1.102  -0.348  0.00  0.00    +0.070 A 
ATOM      4  C   LIG    1        1.423  -1.026  -0.238  0.00  0.00    +0.030 A 
ATOM      5  C   LIG    1        2.048   0.207  -0.180  0.00  0.00    -0.010 A 
ATOM      6  C   LIG    1        1.299   1.369  -0.232  0.00  0.00    +0.050 A 
ATOM      7 CL   LIG    1        3.776   0.296  -0.041  0.00  0.00    -0.050 Cl
ATOM      8  C   LIG    1       -0.081   1.299  -0.342  0.00  0.00    +0.160 A 
BRANCH   8   9
ATOM      9  N   LIG    1       -0.842   2.475  -0.395  0.00  0.00    -0.670 N 
ATOM     10  H   LIG    1       -1.772   2.463  -0.119  0.00  0.00    +0.420 HD
ATOM     11  C   LIG    1       -0.281   3.621  -0.830  0.00  0.00    +0.530 C 
ATOM     12  O   LIG    1        0.845   3.613  -1.279  0.00  0.00    -0.510 OA
BRANCH  11  13
ATOM     13  C   LIG    1       -1.055   4.912  -0.757  0.00  0.00    -0.020 C 
ATOM     14  C   LIG    1       -2.054   5.098  -1.911  0.00  0.00    +0.040 C 
ATOM     15  C   LIG    1       -1.626   6.576  -1.938  0.00  0.00    +0.030 C 
ATOM     16  C   LIG    1       -0.291   6.120  -1.325  0.00  0.00    +0.060 C 
ENDBRANCH  11  13
ENDBRANCH   8   9
ENDBRANCH   1   2
BRANCH   1  20
ATOM     17  C   LIG    1       -3.689  -0.011  -4.316  0.00  0.00    -0.200 A 
ATOM     18  C   LIG    1       -4.512  -0.194  -3.200  0.00  0.00    +0.120 A 
ATOM     19  C   LIG    1       -3.966  -0.195  -1.937  0.00  0.00    -0.010 A 
ATOM     20  C   LIG    1       -2.597  -0.015  -1.769  0.00  0.00    +0.150 A 
ATOM     21  C   LIG    1       -1.775   0.172  -2.875  0.00  0.00    -0.070 A 
ATOM     22  C   LIG    1       -2.313   0.169  -4.142  0.00  0.00    +0.100 A 
BRANCH  17  24
ATOM     23  O   LIG    1       -5.442  -0.288  -5.830  0.00  0.00    -0.450 OA
ATOM     24  C   LIG    1       -4.270  -0.009  -5.671  0.00  0.00    +0.440 C 
BRANCH  24  25
ATOM     25  C   LIG    1       -3.427   0.334  -6.835  0.00  0.00    -0.160 A 
ATOM     26  C   LIG    1       -2.454   1.329  -6.728  0.00  0.00    +0.040 A 
ATOM     27  C   LIG    1       -1.667   1.641  -7.818  0.00  0.00    +0.000 A 
ATOM     28  C   LIG    1       -1.848   0.976  -9.018  0.00  0.00    +0.040 A 
ATOM     29  C   LIG    1       -2.814  -0.008  -9.133  0.00  0.00    +0.000 A 
ATOM     30  C   LIG    1       -3.604  -0.333  -8.050  0.00  0.00    +0.060 A 
ENDBRANCH  24  25
ENDBRANCH  17  24
ENDBRANCH   1  20
TORSDOF 6
