REMARK  Name = ZINCrD000000Alte.1
REMARK                            x       y       z     vdW  Elec       q    Type
REMARK                         _______ _______ _______ _____ _____    ______ ____
ROOT
ATOM      1  C   LIG    1       -0.698   0.917  -3.538  0.00  0.00    +0.140 A 
ATOM      2  C   LIG    1       -1.770   1.687  -3.105  0.00  0.00    +0.090 A 
ATOM      3  C   LIG    1       -2.582   2.318  -4.026  0.00  0.00    +0.040 A 
ATOM      4  C   LIG    1       -2.334   2.177  -5.380  0.00  0.00    +0.040 A 
ATOM      5  C   LIG    1       -1.270   1.406  -5.815  0.00  0.00    -0.650 A 
ATOM      6 CL   LIG    1       -3.360   2.967  -6.536  0.00  0.00    -0.040 Cl
ATOM      7  C   LIG    1       -0.452   0.776  -4.897  0.00  0.00    +0.110 A 
ENDROOT
BRANCH   1  10
ATOM      8  O   LIG    1       -0.052   1.970  -1.181  0.00  0.00    -0.500 OA
ATOM      9  C   LIG    1        0.369   0.856  -1.412  0.00  0.00    +0.510 C 
ATOM     10  N   LIG    1        0.129   0.279  -2.606  0.00  0.00    -0.680 N 
ATOM     11  H   LIG    1        0.529  -0.578  -2.819  0.00  0.00    +0.420 HD
BRANCH   9  12
ATOM     12  C   LIG    1        1.159   0.117  -0.363  0.00  0.00    +0.220 C 
BRANCH  12  13
ATOM     13  N   LIG    1        1.281   0.954   0.838  0.00  0.00    -0.530 NA
ATOM     14  C   LIG    1        2.000   2.212   0.537  0.00  0.00    +0.180 C 
ATOM     15  C   LIG    1        2.388   2.973   1.776  0.00  0.00    +0.030 C 
ATOM     16  C   LIG    1        3.826   2.572   2.167  0.00  0.00    +0.000 C 
ATOM     17  C   LIG    1        3.872   1.283   2.848  0.00  0.00    +0.000 C 
ATOM     18  C   LIG    1        3.344   0.136   1.961  0.00  0.00    -0.020 C 
ATOM     19  C   LIG    1        1.840   0.180   1.969  0.00  0.00    +0.210 C 
ENDBRANCH  12  13
ENDBRANCH   9  12
ENDBRANCH   1  10
BRANCH   5  20
ATOM     20  S   LIG    1       -0.958   1.228  -7.540  0.00  0.00    +2.690 S 
ATOM     21  O   LIG    1        0.199   0.411  -7.656  0.00  0.00    -0.950 OA
ATOM     22  O   LIG    1       -1.048   2.531  -8.100  0.00  0.00    -0.940 OA
BRANCH  20  23
ATOM     23  N   LIG    1       -2.213   0.356  -8.178  0.00  0.00    -0.990 NA
ATOM     24  C   LIG    1       -2.217  -1.111  -8.107  0.00  0.00    +0.290 C 
ATOM     25  C   LIG    1       -3.537  -1.565  -7.465  0.00  0.00    +0.010 C 
ATOM     26  C   LIG    1       -4.709  -0.971  -8.248  0.00  0.00    +0.020 C 
ATOM     27  C   LIG    1       -4.645   0.557  -8.186  0.00  0.00    +0.010 C 
ATOM     28  C   LIG    1       -3.340   1.036  -8.831  0.00  0.00    +0.290 C 
ENDBRANCH  20  23
ENDBRANCH   5  20
TORSDOF 5
