REMARK  Name = ZINCtV00000L6kWi.0
REMARK                            x       y       z     vdW  Elec       q    Type
REMARK                         _______ _______ _______ _____ _____    ______ ____
ROOT
ATOM      1  C   LIG    1       -2.468   1.015   0.013  0.00  0.00    +0.070 C 
ENDROOT
BRANCH   1   2
ATOM      2  C   LIG    1       -3.718   1.853  -0.065  0.00  0.00    -0.080 A 
ATOM      3  C   LIG    1       -4.048   2.699   0.978  0.00  0.00    +0.060 A 
ATOM      4  C   LIG    1       -5.194   3.469   0.911  0.00  0.00    +0.040 A 
ATOM      5  C   LIG    1       -6.015   3.395  -0.202  0.00  0.00    +0.040 A 
ATOM      6  O   LIG    1       -7.180   4.036  -0.512  0.00  0.00    -0.310 OA
ATOM      7  C   LIG    1       -7.770   3.267  -1.577  0.00  0.00    +0.430 C 
ATOM      8  O   LIG    1       -6.639   2.650  -2.221  0.00  0.00    -0.310 OA
ATOM      9  C   LIG    1       -5.683   2.543  -1.253  0.00  0.00    +0.040 A 
ATOM     10  C   LIG    1       -4.530   1.779  -1.182  0.00  0.00    +0.050 A 
ENDBRANCH   1   2
BRANCH   1  11
ATOM     11  C   LIG    1       -1.240   1.927  -0.030  0.00  0.00    +0.080 C 
BRANCH  11  13
ATOM     12  O   LIG    1       -0.075  -0.127  -0.074  0.00  0.00    -0.430 OA
ATOM     13  C   LIG    1        0.009   1.085  -0.076  0.00  0.00    +0.420 C 
BRANCH  13  14
ATOM     14  C   LIG    1        1.277   1.704  -0.127  0.00  0.00    -0.310 A 
ATOM     15  C   LIG    1        2.482   1.050  -0.177  0.00  0.00    +0.110 A 
ATOM     16  C   LIG    1        3.558   1.899  -0.220  0.00  0.00    -0.010 A 
ATOM     17  C   LIG    1        3.254   3.205  -0.206  0.00  0.00    -0.050 A 
ATOM     18  S   LIG    1        1.566   3.439  -0.144  0.00  0.00    +0.220 S 
ENDBRANCH  13  14
ENDBRANCH  11  13
ENDBRANCH   1  11
BRANCH   1  19
ATOM     19  S   LIG    1       -2.467   0.073   1.564  0.00  0.00    -0.020 S 
BRANCH  19  20
ATOM     20  C   LIG    1       -3.741  -1.116   1.305  0.00  0.00    -0.060 A 
ATOM     21  C   LIG    1       -4.358  -1.218   0.076  0.00  0.00    +0.010 A 
ATOM     22  C   LIG    1       -5.361  -2.157  -0.143  0.00  0.00    +0.040 A 
ATOM     23  C   LIG    1       -5.769  -2.992   0.853  0.00  0.00    +0.020 A 
ATOM     24  C   LIG    1       -5.170  -2.916   2.121  0.00  0.00    -0.090 A 
ATOM     25  C   LIG    1       -5.570  -3.764   3.171  0.00  0.00    +0.080 A 
ATOM     26  C   LIG    1       -4.945  -3.635   4.378  0.00  0.00    -0.030 A 
ATOM     27  C   LIG    1       -3.942  -2.682   4.543  0.00  0.00    +0.290 A 
ATOM     28  N   LIG    1       -3.573  -1.893   3.562  0.00  0.00    -0.460 NA
ATOM     29  C   LIG    1       -4.144  -1.969   2.358  0.00  0.00    +0.140 A 
ENDBRANCH  19  20
ENDBRANCH   1  19
TORSDOF 6
