REMARK  Name = ZINCrD000000fQID.0
REMARK                            x       y       z     vdW  Elec       q    Type
REMARK                         _______ _______ _______ _____ _____    ______ ____
ROOT
ATOM      1  C   LIG    1       -0.037   1.383  -0.013  0.00  0.00    +0.170 A 
ATOM      2  C   LIG    1       -1.262   2.042   0.045  0.00  0.00    +0.000 A 
ATOM      3  C   LIG    1       -1.306   3.417   0.035  0.00  0.00    +0.070 A 
ATOM      4  C   LIG    1       -0.120   4.152  -0.045  0.00  0.00    -0.140 A 
ATOM      5  C   LIG    1        1.108   3.488  -0.110  0.00  0.00    +0.100 A 
ATOM      6  C   LIG    1        1.146   2.112  -0.094  0.00  0.00    +0.010 A 
ENDROOT
BRANCH   4   7
ATOM      7  C   LIG    1       -0.164   5.627  -0.062  0.00  0.00    +0.560 C 
ATOM      8  N   LIG    1       -1.349   6.266  -0.000  0.00  0.00    -0.720 N 
ATOM      9  H   LIG    1       -2.173   5.757   0.056  0.00  0.00    +0.400 HD
ATOM     10  O   LIG    1        0.868   6.265  -0.133  0.00  0.00    -0.530 OA
BRANCH   8  11
ATOM     11  C   LIG    1       -1.393   7.730  -0.018  0.00  0.00    +0.230 C 
ATOM     12  C   LIG    1       -1.249   8.280   1.417  0.00  0.00    +0.000 C 
ATOM     13  C   LIG    1       -2.194   9.508   1.448  0.00  0.00    +0.010 C 
ATOM     14  C   LIG    1       -3.399   9.035   0.597  0.00  0.00    +0.020 C 
ATOM     15  C   LIG    1       -2.759   8.210  -0.539  0.00  0.00    +0.020 C 
ENDBRANCH   8  11
ENDBRANCH   4   7
BRANCH   1  16
ATOM     16  N   LIG    1        0.005  -0.007   0.002  0.00  0.00    -1.050 N 
ATOM     17  H   LIG    1        0.563  -0.483  -0.633  0.00  0.00    +0.430 HD
BRANCH  16  18
ATOM     18  S   LIG    1       -0.898  -0.850   1.105  0.00  0.00    +2.690 S 
ATOM     19  O   LIG    1       -0.554  -2.220   0.941  0.00  0.00    -0.940 OA
ATOM     20  O   LIG    1       -2.228  -0.364   0.991  0.00  0.00    -0.940 OA
BRANCH  18  24
ATOM     21  C   LIG    1        0.554   0.349   5.227  0.00  0.00    -0.110 A 
ATOM     22  C   LIG    1       -0.550   0.991   4.656  0.00  0.00    +0.070 A 
ATOM     23  C   LIG    1       -0.986   0.620   3.401  0.00  0.00    +0.120 A 
ATOM     24  C   LIG    1       -0.333  -0.384   2.707  0.00  0.00    -0.650 A 
ATOM     25  C   LIG    1        0.757  -1.027   3.267  0.00  0.00    +0.120 A 
ATOM     26  C   LIG    1        1.208  -0.664   4.519  0.00  0.00    +0.060 A 
BRANCH  21  28
ATOM     27  C   LIG    1        2.214   0.045   7.177  0.00  0.00    +0.090 C 
ATOM     28  C   LIG    1        1.024   0.739   6.566  0.00  0.00    +0.390 C 
ATOM     29  O   LIG    1        0.455   1.617   7.177  0.00  0.00    -0.440 OA
ENDBRANCH  21  28
ENDBRANCH  18  24
ENDBRANCH  16  18
ENDBRANCH   1  16
TORSDOF 6
