REMARK  Name = ZINCpk00000y6xU7.0
REMARK                            x       y       z     vdW  Elec       q    Type
REMARK                         _______ _______ _______ _____ _____    ______ ____
ROOT
ATOM      1  N   LIG    1       -8.638   1.861  -2.197  0.00  0.00    -0.580 N 
ATOM      2  C   LIG    1       -7.848   1.077  -1.433  0.00  0.00    +0.530 C 
ATOM      3  C   LIG    1       -6.459   1.667  -1.544  0.00  0.00    +0.210 C 
ATOM      4  C   LIG    1       -5.935   2.071  -0.166  0.00  0.00    +0.330 C 
ATOM      5  N   LIG    1       -4.858   3.055  -0.351  0.00  0.00    -0.600 N 
ATOM      6  C   LIG    1       -5.123   4.300  -1.084  0.00  0.00    +0.280 C 
ATOM      7  C   LIG    1       -5.668   3.952  -2.480  0.00  0.00    +0.350 C 
ATOM      8  C   LIG    1       -3.628   2.813   0.145  0.00  0.00    +0.490 C 
ATOM      9  O   LIG    1       -3.385   1.746   0.668  0.00  0.00    -0.470 OA
ATOM     10  N   LIG    1       -6.688   2.915  -2.306  0.00  0.00    -0.620 N 
ATOM     11  O   LIG    1       -8.181   0.104  -0.792  0.00  0.00    -0.450 OA
ATOM     12  C   LIG    1       -7.953   2.882  -2.732  0.00  0.00    +0.710 C 
ATOM     13  O   LIG    1       -8.427   3.684  -3.513  0.00  0.00    -0.530 OA
ENDROOT
BRANCH   8  14
ATOM     14  C   LIG    1       -2.556   3.868   0.050  0.00  0.00    +0.340 C 
ATOM     15  F   LIG    1       -1.349   3.350   0.531  0.00  0.00    -0.150 F 
ATOM     16  F   LIG    1       -2.398   4.253  -1.286  0.00  0.00    -0.170 F 
BRANCH  14  17
ATOM     17  C   LIG    1       -2.954   5.064   0.875  0.00  0.00    -0.210 A 
ATOM     18  C   LIG    1       -3.116   6.297   0.271  0.00  0.00    +0.090 A 
ATOM     19  C   LIG    1       -3.475   7.396   1.028  0.00  0.00    +0.010 A 
ATOM     20  C   LIG    1       -3.684   7.262   2.388  0.00  0.00    +0.080 A 
ATOM     21  C   LIG    1       -3.527   6.029   2.993  0.00  0.00    +0.000 A 
ATOM     22  C   LIG    1       -3.162   4.929   2.237  0.00  0.00    +0.140 A 
ATOM     23  F   LIG    1       -3.009   3.723   2.827  0.00  0.00    -0.120 F 
ENDBRANCH  14  17
ENDBRANCH   8  14
BRANCH   1  25
ATOM     24  C   LIG    1      -10.254   0.731  -3.644  0.00  0.00    +0.030 C 
ATOM     25  C   LIG    1      -10.067   1.624  -2.416  0.00  0.00    +0.320 C 
ENDBRANCH   1  25
TORSDOF 3
