REMARK  Name = ZINCpe000000YdTG.0
REMARK                            x       y       z     vdW  Elec       q    Type
REMARK                         _______ _______ _______ _____ _____    ______ ____
ROOT
ATOM      1  C   LIG    1       -3.663   5.274  -4.218  0.00  0.00    +0.350 C 
ATOM      2  N   LIG    1       -4.598   4.198  -3.879  0.00  0.00    -0.510 N 
ATOM      3  C   LIG    1       -5.876   4.261  -4.298  0.00  0.00    +0.710 A 
ATOM      4  N   LIG    1       -6.762   3.294  -4.006  0.00  0.00    -0.650 N 
ATOM      5  H   LIG    1       -7.675   3.370  -4.324  0.00  0.00    +0.440 HD
ATOM      6  C   LIG    1       -6.400   2.217  -3.278  0.00  0.00    +0.600 A 
ATOM      7  C   LIG    1       -5.075   2.110  -2.820  0.00  0.00    -0.180 A 
ATOM      8  N   LIG    1       -4.378   1.170  -2.072  0.00  0.00    -0.450 N 
ATOM      9  C   LIG    1       -4.913  -0.075  -1.516  0.00  0.00    +0.340 C 
ATOM     10  C   LIG    1       -3.104   1.629  -1.955  0.00  0.00    +0.560 A 
ATOM     11  N   LIG    1       -2.996   2.784  -2.581  0.00  0.00    -0.530 NA
ATOM     12  O   LIG    1       -7.213   1.346  -3.020  0.00  0.00    -0.520 OA
ATOM     13  O   LIG    1       -6.238   5.218  -4.956  0.00  0.00    -0.540 OA
ATOM     14  C   LIG    1       -4.167   3.117  -3.128  0.00  0.00    +0.360 A 
ENDROOT
BRANCH  10  15
ATOM     15  N   LIG    1       -2.087   0.991  -1.284  0.00  0.00    -0.690 N 
ATOM     16  H   LIG    1       -2.254   0.142  -0.845  0.00  0.00    +0.410 HD
BRANCH  15  17
ATOM     17  C   LIG    1       -0.753   1.593  -1.232  0.00  0.00    +0.320 C 
BRANCH  17  18
ATOM     18  C   LIG    1        0.019   1.211  -2.468  0.00  0.00    -0.100 A 
ATOM     19  C   LIG    1       -0.074  -0.072  -2.973  0.00  0.00    +0.010 A 
ATOM     20  C   LIG    1        0.630  -0.421  -4.110  0.00  0.00    +0.000 A 
ATOM     21  C   LIG    1        1.435   0.511  -4.737  0.00  0.00    +0.000 A 
ATOM     22  C   LIG    1        1.533   1.793  -4.229  0.00  0.00    +0.000 A 
ATOM     23  C   LIG    1        0.825   2.143  -3.095  0.00  0.00    +0.020 A 
ENDBRANCH  17  18
BRANCH  17  24
ATOM     24  C   LIG    1       -0.013   1.086   0.008  0.00  0.00    +0.040 C 
BRANCH  24  25
ATOM     25  C   LIG    1       -0.729   1.579   1.267  0.00  0.00    +0.020 C 
BRANCH  25  26
ATOM     26  C   LIG    1        0.011   1.072   2.506  0.00  0.00    +0.170 C 
BRANCH  26  27
ATOM     27  O   LIG    1       -0.658   1.533   3.682  0.00  0.00    -0.580 OA
ATOM     28  H   LIG    1       -0.242   1.249   4.508  0.00  0.00    +0.380 HD
ENDBRANCH  26  27
ENDBRANCH  25  26
ENDBRANCH  24  25
ENDBRANCH  17  24
ENDBRANCH  15  17
ENDBRANCH  10  15
TORSDOF 7
