REMARK  Name = ZINCpk00000y6ytD.0
REMARK                            x       y       z     vdW  Elec       q    Type
REMARK                         _______ _______ _______ _____ _____    ______ ____
ROOT
ATOM      1  C   LIG    1        2.247   0.739  -0.739  0.00  0.00    +0.500 C 
ATOM      2  N   LIG    1        1.998  -0.390  -1.431  0.00  0.00    -0.720 N 
ATOM      3  H   LIG    1        1.389  -1.054  -1.073  0.00  0.00    +0.400 HD
ATOM      4  O   LIG    1        3.008   1.570  -1.187  0.00  0.00    -0.520 OA
ENDROOT
BRANCH   1  11
ATOM      5  C   LIG    1        0.847   0.029   5.200  0.00  0.00    +0.090 C 
ATOM      6  C   LIG    1        1.452  -0.337   3.869  0.00  0.00    +0.520 C 
ATOM      7  N   LIG    1        1.801   0.630   2.998  0.00  0.00    -0.600 N 
ATOM      8  C   LIG    1        1.598   2.047   3.332  0.00  0.00    +0.260 C 
ATOM      9  C   LIG    1        0.793   2.708   2.209  0.00  0.00    +0.030 C 
ATOM     10  C   LIG    1        1.501   2.472   0.873  0.00  0.00    +0.080 C 
ATOM     11  C   LIG    1        1.578   0.970   0.592  0.00  0.00    +0.110 C 
ATOM     12  C   LIG    1        2.392   0.289   1.698  0.00  0.00    +0.270 C 
ATOM     13  O   LIG    1        1.625  -1.503   3.582  0.00  0.00    -0.550 OA
BRANCH  11  14
ATOM     14  O   LIG    1        0.259   0.421   0.565  0.00  0.00    -0.530 OA
ATOM     15  H   LIG    1        0.232  -0.530   0.394  0.00  0.00    +0.370 HD
ENDBRANCH  11  14
ENDBRANCH   1  11
BRANCH   2  16
ATOM     16  C   LIG    1        2.648  -0.614  -2.725  0.00  0.00    +0.320 C 
BRANCH  16  17
ATOM     17  C   LIG    1        2.197  -1.960  -3.296  0.00  0.00    -0.110 C 
ATOM     18  C   LIG    1        3.238  -3.078  -3.374  0.00  0.00    +0.050 C 
ATOM     19  C   LIG    1        2.769  -2.379  -4.652  0.00  0.00    +0.060 C 
BRANCH  17  20
ATOM     20  C   LIG    1        0.775  -2.353  -2.989  0.00  0.00    -0.100 A 
ATOM     21  C   LIG    1        0.519  -3.453  -2.192  0.00  0.00    +0.090 A 
ATOM     22  C   LIG    1       -0.785  -3.815  -1.910  0.00  0.00    -0.010 A 
ATOM     23  C   LIG    1       -1.836  -3.075  -2.424  0.00  0.00    +0.140 A 
ATOM     24  C   LIG    1       -1.581  -1.972  -3.221  0.00  0.00    -0.040 A 
ATOM     25  F   LIG    1       -3.110  -3.429  -2.148  0.00  0.00    -0.130 F 
ATOM     26  C   LIG    1       -0.275  -1.608  -3.500  0.00  0.00    +0.150 A 
ATOM     27  F   LIG    1       -0.024  -0.529  -4.274  0.00  0.00    -0.120 F 
ENDBRANCH  17  20
ENDBRANCH  16  17
ENDBRANCH   2  16
TORSDOF 5
