REMARK  Name = ZINCkj00000GeP5O.1
REMARK                            x       y       z     vdW  Elec       q    Type
REMARK                         _______ _______ _______ _____ _____    ______ ____
ROOT
ATOM      1  N   LIG    1       -1.274   2.880   1.374  0.00  0.00    -0.390 N 
ATOM      2  C   LIG    1        0.178   3.022   1.195  0.00  0.00    +0.240 C 
ATOM      3  C   LIG    1        0.601   2.325  -0.101  0.00  0.00    +0.280 C 
ATOM      4  O   LIG    1        0.210   0.951  -0.047  0.00  0.00    -0.320 OA
ATOM      5  C   LIG    1       -1.194   0.760   0.150  0.00  0.00    +0.220 C 
ATOM      6  C   LIG    1       -1.620   1.453   1.446  0.00  0.00    +0.270 C 
ATOM      7  H   LIG    1       -1.752   3.302   0.592  0.00  0.00    +0.420 HD
ENDROOT
BRANCH   5   8
ATOM      8  C   LIG    1       -1.950   1.354  -1.011  0.00  0.00    +0.470 C 
ATOM      9  O   LIG    1       -1.355   1.966  -1.873  0.00  0.00    -0.510 OA
ATOM     10  N   LIG    1       -3.287   1.204  -1.092  0.00  0.00    -0.840 N 
ATOM     11  H   LIG    1       -3.773   1.586  -1.840  0.00  0.00    +0.420 HD
ATOM     12  H   LIG    1       -3.762   0.714  -0.403  0.00  0.00    +0.410 HD
ENDBRANCH   5   8
BRANCH   1  14
ATOM     13  C   LIG    1       -0.852   3.006   3.783  0.00  0.00    +0.100 C 
ATOM     14  C   LIG    1       -1.683   3.547   2.617  0.00  0.00    +0.160 C 
BRANCH  14  15
ATOM     15  C   LIG    1       -1.455   5.054   2.485  0.00  0.00    +0.070 C 
BRANCH  15  16
ATOM     16  C   LIG    1       -2.362   5.612   1.386  0.00  0.00    +0.070 C 
BRANCH  16  17
ATOM     17  C   LIG    1       -2.232   7.113   1.342  0.00  0.00    -0.070 A 
ATOM     18  C   LIG    1       -3.071   7.902   2.107  0.00  0.00    +0.010 A 
ATOM     19  C   LIG    1       -2.949   9.279   2.072  0.00  0.00    +0.060 A 
ATOM     20  C   LIG    1       -1.996   9.868   1.264  0.00  0.00    -0.010 A 
ATOM     21  C   LIG    1       -1.159   9.079   0.493  0.00  0.00    +0.110 A 
ATOM     22  F   LIG    1       -0.227   9.655  -0.298  0.00  0.00    -0.130 F 
ATOM     23  C   LIG    1       -1.278   7.701   0.533  0.00  0.00    -0.020 A 
ENDBRANCH  16  17
ENDBRANCH  15  16
ENDBRANCH  14  15
ENDBRANCH   1  14
TORSDOF 5
