REMARK  Name = ZINCkj00000GeP5O.0
REMARK                            x       y       z     vdW  Elec       q    Type
REMARK                         _______ _______ _______ _____ _____    ______ ____
ROOT
ATOM      1  N   LIG    1       -0.791   5.114   1.423  0.00  0.00    -0.380 N 
ATOM      2  C   LIG    1       -2.191   5.560   1.456  0.00  0.00    +0.240 C 
ATOM      3  C   LIG    1       -2.917   5.048   0.209  0.00  0.00    +0.280 C 
ATOM      4  O   LIG    1       -2.820   3.622   0.160  0.00  0.00    -0.330 OA
ATOM      5  C   LIG    1       -1.474   3.138   0.150  0.00  0.00    +0.160 C 
ATOM      6  C   LIG    1       -0.746   3.646   1.397  0.00  0.00    +0.260 C 
ATOM      7  H   LIG    1       -0.341   5.479   0.597  0.00  0.00    +0.420 HD
ENDROOT
BRANCH   5   8
ATOM      8  C   LIG    1       -1.482   1.631   0.151  0.00  0.00    +0.520 C 
ATOM      9  O   LIG    1       -2.531   1.029   0.246  0.00  0.00    -0.490 OA
ATOM     10  N   LIG    1       -0.323   0.951   0.045  0.00  0.00    -0.850 N 
ATOM     11  H   LIG    1        0.516   1.432  -0.035  0.00  0.00    +0.400 HD
ATOM     12  H   LIG    1       -0.328  -0.019   0.046  0.00  0.00    +0.420 HD
ENDBRANCH   5   8
BRANCH   1  14
ATOM     13  C   LIG    1        1.336   5.057   2.635  0.00  0.00    +0.080 C 
ATOM     14  C   LIG    1       -0.092   5.604   2.619  0.00  0.00    +0.160 C 
BRANCH  14  15
ATOM     15  C   LIG    1       -0.052   7.134   2.595  0.00  0.00    +0.040 C 
BRANCH  15  16
ATOM     16  C   LIG    1        0.556   7.648   3.901  0.00  0.00    +0.110 C 
BRANCH  16  17
ATOM     17  C   LIG    1        0.480   9.153   3.932  0.00  0.00    -0.070 A 
ATOM     18  C   LIG    1       -0.628   9.778   4.472  0.00  0.00    +0.000 A 
ATOM     19  C   LIG    1       -0.699  11.158   4.502  0.00  0.00    +0.060 A 
ATOM     20  C   LIG    1        0.338  11.915   3.991  0.00  0.00    -0.010 A 
ATOM     21  C   LIG    1        1.449  11.290   3.450  0.00  0.00    +0.110 A 
ATOM     22  F   LIG    1        2.463  12.029   2.950  0.00  0.00    -0.130 F 
ATOM     23  C   LIG    1        1.521   9.908   3.425  0.00  0.00    -0.010 A 
ENDBRANCH  16  17
ENDBRANCH  15  16
ENDBRANCH  14  15
ENDBRANCH   1  14
TORSDOF 5
