REMARK  Name = ZINCtV000002ILFP.0
REMARK                            x       y       z     vdW  Elec       q    Type
REMARK                         _______ _______ _______ _____ _____    ______ ____
ROOT
ATOM      1  C   LIG    1       -1.188   2.184  -0.638  0.00  0.00    +0.040 C 
ENDROOT
BRANCH   1   4
ATOM      2  N   LIG    1        1.151   1.923   0.120  0.00  0.00    -0.680 N 
ATOM      3  H   LIG    1        1.033   2.719   0.662  0.00  0.00    +0.410 HD
ATOM      4  C   LIG    1        0.145   1.484  -0.662  0.00  0.00    +0.520 C 
ATOM      5  O   LIG    1        0.315   0.527  -1.388  0.00  0.00    -0.520 OA
BRANCH   2  12
ATOM      6  C   LIG    1        1.093  -0.874   0.642  0.00  0.00    +0.080 C 
ATOM      7  C   LIG    1        2.384  -0.135   0.402  0.00  0.00    -0.070 A 
ATOM      8  C   LIG    1        3.585  -0.816   0.426  0.00  0.00    +0.020 A 
ATOM      9  C   LIG    1        4.771  -0.137   0.212  0.00  0.00    +0.000 A 
ATOM     10  C   LIG    1        4.758   1.223  -0.033  0.00  0.00    +0.020 A 
ATOM     11  C   LIG    1        3.560   1.909  -0.064  0.00  0.00    -0.080 A 
ATOM     12  C   LIG    1        2.367   1.231   0.151  0.00  0.00    +0.140 A 
BRANCH  11  13
ATOM     13  C   LIG    1        3.546   3.393  -0.331  0.00  0.00    +0.010 C 
ATOM     14  C   LIG    1        4.166   3.670  -1.702  0.00  0.00    +0.030 C 
ATOM     15  C   LIG    1        4.356   4.112   0.750  0.00  0.00    +0.030 C 
ENDBRANCH  11  13
ENDBRANCH   2  12
ENDBRANCH   1   4
BRANCH   1  16
ATOM     16  C   LIG    1       -2.144   1.496  -1.614  0.00  0.00    +0.320 C 
BRANCH  16  17
ATOM     17  N   LIG    1       -3.441   2.177  -1.591  0.00  0.00    -0.580 N 
ATOM     18  C   LIG    1       -4.424   1.748  -0.693  0.00  0.00    +0.190 A 
ATOM     19  C   LIG    1       -4.583   0.402  -0.416  0.00  0.00    -0.020 A 
ATOM     20  C   LIG    1       -5.558  -0.012   0.474  0.00  0.00    +0.050 A 
ATOM     21  C   LIG    1       -6.375   0.912   1.097  0.00  0.00    +0.000 A 
ATOM     22  C   LIG    1       -6.221   2.264   0.833  0.00  0.00    +0.070 A 
ATOM     23  C   LIG    1       -5.248   2.683  -0.055  0.00  0.00    -0.150 A 
ATOM     24  S   LIG    1       -5.031   4.399  -0.406  0.00  0.00    +0.010 S 
ATOM     25  C   LIG    1       -4.408   4.352  -2.057  0.00  0.00    -0.150 A 
ATOM     26  C   LIG    1       -4.642   5.399  -2.927  0.00  0.00    +0.070 A 
ATOM     27  C   LIG    1       -4.141   5.346  -4.218  0.00  0.00    +0.000 A 
ATOM     28  C   LIG    1       -3.410   4.249  -4.632  0.00  0.00    +0.050 A 
ATOM     29  C   LIG    1       -3.174   3.197  -3.765  0.00  0.00    -0.020 A 
ATOM     30  C   LIG    1       -3.672   3.240  -2.472  0.00  0.00    +0.190 A 
ENDBRANCH  16  17
ENDBRANCH   1  16
TORSDOF 5
