REMARK  Name = ZINCqH0000038Uq2.0
REMARK                            x       y       z     vdW  Elec       q    Type
REMARK                         _______ _______ _______ _____ _____    ______ ____
ROOT
ATOM      1  N   LIG    1       -1.153   1.883  -3.446  0.00  0.00    -0.650 N 
ATOM      2  H   LIG    1       -1.945   2.402  -3.235  0.00  0.00    +0.410 HD
ATOM      3  C   LIG    1       -0.398   1.373  -2.453  0.00  0.00    +0.730 C 
ATOM      4  N   LIG    1       -0.743   1.582  -1.167  0.00  0.00    -0.630 N 
ATOM      5  C   LIG    1       -1.915   2.349  -0.707  0.00  0.00    +0.260 C 
ATOM      6  C   LIG    1       -1.545   2.819   0.722  0.00  0.00    +0.050 C 
ATOM      7  C   LIG    1       -0.756   1.594   1.262  0.00  0.00    +0.280 C 
ATOM      8  C   LIG    1       -0.013   1.086   0.008  0.00  0.00    +0.290 C 
ATOM      9  O   LIG    1        0.595   0.723  -2.718  0.00  0.00    -0.570 OA
ENDROOT
BRANCH   1  13
ATOM     10  C   LIG    1        1.253   0.355  -7.466  0.00  0.00    +0.370 C 
ATOM     11  N   LIG    1        0.272   0.988  -6.581  0.00  0.00    -0.380 N 
ATOM     12  C   LIG    1        0.288   0.966  -5.223  0.00  0.00    +0.250 A 
ATOM     13  C   LIG    1       -0.792   1.664  -4.789  0.00  0.00    +0.010 A 
ATOM     14  C   LIG    1       -1.482   2.133  -5.917  0.00  0.00    +0.070 A 
ATOM     15  N   LIG    1       -0.846   1.729  -6.986  0.00  0.00    -0.270 NA
BRANCH  14  16
ATOM     16  C   LIG    1       -2.740   2.962  -5.899  0.00  0.00    +0.080 C 
ATOM     17  C   LIG    1       -3.856   2.211  -6.628  0.00  0.00    +0.020 C 
ATOM     18  C   LIG    1       -5.134   3.052  -6.610  0.00  0.00    +0.000 C 
ATOM     19  C   LIG    1       -4.875   4.387  -7.312  0.00  0.00    +0.000 C 
ATOM     20  C   LIG    1       -3.760   5.138  -6.583  0.00  0.00    +0.000 C 
ATOM     21  C   LIG    1       -2.482   4.297  -6.601  0.00  0.00    +0.020 C 
ENDBRANCH  14  16
ENDBRANCH   1  13
BRANCH   7  22
ATOM     22  N   LIG    1        0.196   2.002   2.298  0.00  0.00    -0.360 N 
ATOM     23  C   LIG    1        1.408   2.559   2.089  0.00  0.00    +0.250 A 
ATOM     24  C   LIG    1        1.971   2.786   3.299  0.00  0.00    -0.180 A 
ATOM     25  C   LIG    1        1.072   2.354   4.280  0.00  0.00    +0.260 A 
ATOM     26 CL   LIG    1        3.533   3.490   3.583  0.00  0.00    -0.040 Cl
ATOM     27  N   LIG    1        0.006   1.888   3.682  0.00  0.00    -0.280 NA
ENDBRANCH   7  22
TORSDOF 3
