REMARK  Name = ZINCzw0000000eML.1
REMARK                            x       y       z     vdW  Elec       q    Type
REMARK                         _______ _______ _______ _____ _____    ______ ____
ROOT
ATOM      1  C   LIG    1        6.761   0.808  -1.420  0.00  0.00    +0.160 C 
ATOM      2  C   LIG    1        6.067   1.731  -0.392  0.00  0.00    +0.320 C 
ATOM      3  N   LIG    1        4.712   1.147  -0.265  0.00  0.00    -0.630 N 
ATOM      4  C   LIG    1        4.897  -0.315  -0.296  0.00  0.00    +0.280 C 
ATOM      5  C   LIG    1        3.548   1.816  -0.150  0.00  0.00    +0.730 C 
ATOM      6  N   LIG    1        2.388   1.137  -0.048  0.00  0.00    -0.670 N 
ATOM      7  H   LIG    1        2.396   0.169   0.009  0.00  0.00    +0.410 HD
ATOM      8  O   LIG    1        3.544   3.032  -0.138  0.00  0.00    -0.550 OA
ATOM      9  C   LIG    1        6.208  -0.590  -1.058  0.00  0.00    +0.000 C 
ATOM     10  C   LIG    1        5.926  -1.395  -2.327  0.00  0.00    +0.070 C 
ENDROOT
BRANCH   1  16
ATOM     11  C   LIG    1       12.549   0.286  -3.645  0.00  0.00    +0.120 C 
ATOM     12  C   LIG    1       11.951   1.404  -2.831  0.00  0.00    +0.520 C 
ATOM     13  N   LIG    1       10.883   1.168  -2.044  0.00  0.00    -0.640 N 
ATOM     14  C   LIG    1       10.348  -0.193  -1.883  0.00  0.00    +0.320 C 
ATOM     15  C   LIG    1        8.837  -0.154  -2.136  0.00  0.00    +0.260 C 
ATOM     16  N   LIG    1        8.220   0.848  -1.256  0.00  0.00    -0.370 N 
ATOM     17  C   LIG    1        8.714   2.187  -1.603  0.00  0.00    +0.270 C 
ATOM     18  H   LIG    1        8.456   0.642  -0.297  0.00  0.00    +0.420 HD
ATOM     19  C   LIG    1       10.218   2.264  -1.322  0.00  0.00    +0.330 C 
ATOM     20  O   LIG    1       12.432   2.516  -2.883  0.00  0.00    -0.510 OA
ENDBRANCH   1  16
BRANCH   6  21
ATOM     21  C   LIG    1        1.176   1.827  -0.025  0.00  0.00    +0.180 A 
ATOM     22  C   LIG    1        0.051   1.274  -0.629  0.00  0.00    -0.020 A 
ATOM     23  C   LIG    1       -1.145   1.954  -0.612  0.00  0.00    +0.070 A 
ATOM     24  C   LIG    1       -1.232   3.197   0.022  0.00  0.00    -0.140 A 
ATOM     25  C   LIG    1       -0.100   3.749   0.628  0.00  0.00    +0.100 A 
ATOM     26  C   LIG    1        1.095   3.066   0.603  0.00  0.00    +0.020 A 
BRANCH  24  27
ATOM     27  C   LIG    1       -2.515   3.926   0.047  0.00  0.00    +0.560 C 
ATOM     28  N   LIG    1       -3.605   3.392  -0.537  0.00  0.00    -0.730 N 
ATOM     29  H   LIG    1       -3.547   2.528  -0.975  0.00  0.00    +0.400 HD
ATOM     30  O   LIG    1       -2.588   5.009   0.595  0.00  0.00    -0.530 OA
BRANCH  28  31
ATOM     31  C   LIG    1       -4.878   4.116  -0.512  0.00  0.00    +0.260 C 
BRANCH  31  32
ATOM     32  C   LIG    1       -5.946   3.297  -1.241  0.00  0.00    +0.070 C 
BRANCH  32  33
ATOM     33  C   LIG    1       -7.255   4.042  -1.215  0.00  0.00    -0.090 A 
ATOM     34  C   LIG    1       -8.146   3.839  -0.177  0.00  0.00    +0.010 A 
ATOM     35  C   LIG    1       -9.345   4.526  -0.151  0.00  0.00    +0.000 A 
ATOM     36  C   LIG    1       -9.659   5.408  -1.169  0.00  0.00    +0.000 A 
ATOM     37  C   LIG    1       -8.771   5.606  -2.209  0.00  0.00    +0.000 A 
ATOM     38  C   LIG    1       -7.569   4.923  -2.232  0.00  0.00    +0.010 A 
ENDBRANCH  32  33
ENDBRANCH  31  32
ENDBRANCH  28  31
ENDBRANCH  24  27
ENDBRANCH   6  21
TORSDOF 6
