REMARK  Name = ZINCvU0000000Ani.0
REMARK                            x       y       z     vdW  Elec       q    Type
REMARK                         _______ _______ _______ _____ _____    ______ ____
ROOT
ATOM      1  N   LIG    1        2.026   3.999  -0.986  0.00  0.00    -0.560 N 
ATOM      2  C   LIG    1        2.144   5.322  -0.871  0.00  0.00    +0.520 C 
ATOM      3  C   LIG    1        2.554   6.011   0.399  0.00  0.00    +0.100 C 
ATOM      4  C   LIG    1        3.215   5.006   1.346  0.00  0.00    +0.070 C 
ATOM      5  C   LIG    1        2.319   3.766   1.439  0.00  0.00    +0.130 C 
ATOM      6  O   LIG    1        1.907   6.007  -1.844  0.00  0.00    -0.520 OA
ATOM      7  C   LIG    1        2.322   3.056   0.085  0.00  0.00    +0.330 C 
ENDROOT
BRANCH   1  12
ATOM      8  C   LIG    1        0.260   1.911  -5.957  0.00  0.00    +0.090 C 
ATOM      9  C   LIG    1        0.729   2.465  -4.636  0.00  0.00    -0.080 A 
ATOM     10  C   LIG    1       -0.130   3.223  -3.862  0.00  0.00    +0.020 A 
ATOM     11  C   LIG    1        0.297   3.733  -2.651  0.00  0.00    +0.030 A 
ATOM     12  C   LIG    1        1.590   3.484  -2.212  0.00  0.00    +0.130 A 
ATOM     13  C   LIG    1        2.452   2.727  -2.995  0.00  0.00    +0.010 A 
ATOM     14  C   LIG    1        2.018   2.215  -4.202  0.00  0.00    +0.020 A 
ENDBRANCH   1  12
BRANCH   5  15
ATOM     15  C   LIG    1        2.851   2.836   2.499  0.00  0.00    +0.190 A 
ATOM     16  N   LIG    1        2.214   2.424   3.568  0.00  0.00    -0.460 NA
ATOM     17  C   LIG    1        3.075   1.617   4.214  0.00  0.00    +0.180 A 
ATOM     18  N   LIG    1        4.170   1.579   3.517  0.00  0.00    -0.370 NA
ATOM     19  O   LIG    1        4.061   2.268   2.525  0.00  0.00    +0.080 OA
BRANCH  17  20
ATOM     20  C   LIG    1        2.815   0.889   5.508  0.00  0.00    +0.240 C 
BRANCH  20  21
ATOM     21  C   LIG    1        2.229  -0.467   5.213  0.00  0.00    -0.140 A 
ATOM     22  C   LIG    1        3.055  -1.565   5.033  0.00  0.00    +0.080 A 
ATOM     23  C   LIG    1        2.472  -2.794   4.764  0.00  0.00    -0.030 A 
ATOM     24  C   LIG    1        1.095  -2.882   4.683  0.00  0.00    +0.260 A 
ATOM     25  N   LIG    1        0.339  -1.816   4.860  0.00  0.00    -0.480 NA
ATOM     26  C   LIG    1        0.859  -0.633   5.122  0.00  0.00    +0.280 A 
ENDBRANCH  20  21
ENDBRANCH  17  20
ENDBRANCH   5  15
BRANCH   7  27
ATOM     27  C   LIG    1        1.282   1.966   0.090  0.00  0.00    -0.210 A 
ATOM     28  C   LIG    1        1.539   0.658   0.141  0.00  0.00    +0.020 A 
ATOM     29  C   LIG    1        0.420  -0.157   0.135  0.00  0.00    +0.000 A 
ATOM     30  C   LIG    1       -0.746   0.489   0.080  0.00  0.00    -0.030 A 
ATOM     31  S   LIG    1       -0.457   2.224   0.032  0.00  0.00    +0.140 S 
ENDBRANCH   7  27
TORSDOF 5
