REMARK  Name = ZINCvU0000000CPe.0
REMARK                            x       y       z     vdW  Elec       q    Type
REMARK                         _______ _______ _______ _____ _____    ______ ____
ROOT
ATOM      1  C   LIG    1       -2.583   1.263  -0.300  0.00  0.00    +0.520 C 
ATOM      2  O   LIG    1       -2.468   0.059  -0.181  0.00  0.00    -0.500 OA
ENDROOT
BRANCH   1   6
ATOM      3  C   LIG    1        0.858   3.683  -0.790  0.00  0.00    -0.050 A 
ATOM      4  C   LIG    1        0.992   2.304  -0.654  0.00  0.00    +0.030 A 
ATOM      5  C   LIG    1       -0.115   1.521  -0.491  0.00  0.00    +0.120 A 
ATOM      6  C   LIG    1       -1.386   2.106  -0.468  0.00  0.00    -0.140 A 
ATOM      7  C   LIG    1       -1.517   3.492  -0.599  0.00  0.00    +0.120 A 
ATOM      8  C   LIG    1       -0.406   4.270  -0.761  0.00  0.00    -0.020 A 
BRANCH   3   9
ATOM      9  S   LIG    1        2.289   4.690  -0.999  0.00  0.00    -0.070 S 
BRANCH   9  10
ATOM     10  C   LIG    1        1.597   6.362  -1.126  0.00  0.00    +0.180 C 
BRANCH  10  14
ATOM     11  C   LIG    1        4.770   9.096  -3.788  0.00  0.00    +0.180 C 
ATOM     12  C   LIG    1        4.125   8.569  -2.532  0.00  0.00    +0.050 A 
ATOM     13  N   LIG    1        3.164   7.709  -2.499  0.00  0.00    -0.470 NA
ATOM     14  C   LIG    1        2.715   7.355  -1.312  0.00  0.00    +0.080 A 
ATOM     15  C   LIG    1        3.328   7.954  -0.286  0.00  0.00    -0.060 A 
ATOM     16  S   LIG    1        4.562   9.026  -0.943  0.00  0.00    +0.140 S 
ENDBRANCH  10  14
ENDBRANCH   9  10
ENDBRANCH   3   9
ENDBRANCH   1   6
BRANCH   1  17
ATOM     17  O   LIG    1       -3.807   1.828  -0.278  0.00  0.00    -0.320 OA
BRANCH  17  18
ATOM     18  C   LIG    1       -4.941   0.938  -0.109  0.00  0.00    +0.190 C 
ATOM     19  C   LIG    1       -5.435   0.475  -1.481  0.00  0.00    +0.070 C 
BRANCH  18  20
ATOM     20  C   LIG    1       -6.050   1.667   0.605  0.00  0.00    +0.520 C 
ATOM     21  N   LIG    1       -7.170   1.007   0.962  0.00  0.00    -0.670 N 
ATOM     22  H   LIG    1       -7.295   0.083   0.694  0.00  0.00    +0.420 HD
ATOM     23  O   LIG    1       -5.936   2.847   0.857  0.00  0.00    -0.480 OA
BRANCH  21  24
ATOM     24  C   LIG    1       -8.149   1.652   1.718  0.00  0.00    +0.190 A 
ATOM     25  C   LIG    1       -7.780   2.604   2.663  0.00  0.00    +0.030 A 
ATOM     26  C   LIG    1       -8.743   3.248   3.408  0.00  0.00    +0.120 A 
ATOM     27  C   LIG    1      -10.093   2.936   3.222  0.00  0.00    -0.030 A 
ATOM     28  C   LIG    1      -10.460   1.974   2.275  0.00  0.00    +0.030 A 
ATOM     29 CL   LIG    1      -12.135   1.581   2.039  0.00  0.00    -0.040 Cl
ATOM     30  C   LIG    1       -9.490   1.338   1.530  0.00  0.00    +0.010 A 
BRANCH  27  31
ATOM     31  C   LIG    1      -11.097   3.599   3.998  0.00  0.00    +0.250 C 
ATOM     32  N   LIG    1      -11.893   4.125   4.615  0.00  0.00    -0.390 NA
ENDBRANCH  27  31
ENDBRANCH  21  24
ENDBRANCH  18  20
ENDBRANCH  17  18
ENDBRANCH   1  17
TORSDOF 9
