REMARK  Name = ZINCvU0000000CiY.0
REMARK                            x       y       z     vdW  Elec       q    Type
REMARK                         _______ _______ _______ _____ _____    ______ ____
ROOT
ATOM      1  C   LIG    1       -3.798  -5.164  -0.427  0.00  0.00    +0.190 A 
ATOM      2  N   LIG    1       -4.939  -4.516  -0.414  0.00  0.00    -0.470 NA
ATOM      3  C   LIG    1       -5.956  -5.391  -0.542  0.00  0.00    +0.070 A 
ATOM      4  C   LIG    1       -5.412  -6.658  -0.629  0.00  0.00    +0.040 A 
ATOM      5  N   LIG    1       -4.040  -6.498  -0.554  0.00  0.00    -0.540 N 
ATOM      6  H   LIG    1       -3.376  -7.203  -0.587  0.00  0.00    +0.430 HD
ENDROOT
BRANCH   4   7
ATOM      7  C   LIG    1       -6.147  -7.928  -0.773  0.00  0.00    -0.020 A 
ATOM      8  C   LIG    1       -7.140  -8.058  -1.748  0.00  0.00    +0.050 A 
ATOM      9  C   LIG    1       -7.820  -9.251  -1.881  0.00  0.00    +0.010 A 
ATOM     10  C   LIG    1       -7.529 -10.314  -1.044  0.00  0.00    +0.020 A 
ATOM     11  C   LIG    1       -6.551 -10.191  -0.073  0.00  0.00    +0.010 A 
ATOM     12  C   LIG    1       -5.859  -9.006   0.068  0.00  0.00    +0.010 A 
ENDBRANCH   4   7
BRANCH   3  13
ATOM     13  C   LIG    1       -7.398  -5.056  -0.576  0.00  0.00    -0.010 A 
ATOM     14  C   LIG    1       -7.829  -3.879  -1.190  0.00  0.00    +0.030 A 
ATOM     15  C   LIG    1       -9.174  -3.575  -1.224  0.00  0.00    +0.000 A 
ATOM     16  C   LIG    1      -10.094  -4.428  -0.641  0.00  0.00    +0.000 A 
ATOM     17  C   LIG    1       -9.673  -5.594  -0.026  0.00  0.00    +0.000 A 
ATOM     18  C   LIG    1       -8.331  -5.912   0.009  0.00  0.00    +0.020 A 
ENDBRANCH   3  13
BRANCH   1  19
ATOM     19  S   LIG    1       -2.204  -4.425  -0.292  0.00  0.00    +0.070 S 
BRANCH  19  20
ATOM     20  C   LIG    1       -2.675  -2.682  -0.160  0.00  0.00    +0.120 C 
BRANCH  20  23
ATOM     21  N   LIG    1       -1.544  -0.496   0.082  0.00  0.00    -0.650 N 
ATOM     22  H   LIG    1       -2.418  -0.085   0.164  0.00  0.00    +0.420 HD
ATOM     23  C   LIG    1       -1.436  -1.835  -0.031  0.00  0.00    +0.530 C 
ATOM     24  O   LIG    1       -0.341  -2.357  -0.028  0.00  0.00    -0.510 OA
BRANCH  21  31
ATOM     25  C   LIG    1       -0.410   1.556   0.689  0.00  0.00    +0.090 A 
ATOM     26  C   LIG    1        0.731   2.341   0.684  0.00  0.00    -0.050 A 
ATOM     27  C   LIG    1        1.885   1.879   0.078  0.00  0.00    +0.030 A 
ATOM     28  C   LIG    1        1.904   0.636  -0.525  0.00  0.00    -0.100 A 
ATOM     29  C   LIG    1        0.769  -0.154  -0.525  0.00  0.00    +0.060 A 
ATOM     30  C   LIG    1        3.165   0.139  -1.184  0.00  0.00    +0.100 C 
ATOM     31  C   LIG    1       -0.392   0.302   0.081  0.00  0.00    +0.120 A 
BRANCH  25  33
ATOM     32  C   LIG    1       -1.493   3.305   1.882  0.00  0.00    +0.250 C 
ATOM     33  O   LIG    1       -1.548   2.010   1.280  0.00  0.00    -0.320 OA
ENDBRANCH  25  33
ENDBRANCH  21  31
ENDBRANCH  20  23
ENDBRANCH  19  20
ENDBRANCH   1  19
TORSDOF 7
