REMARK  Name = ZINCpe00000MJK54.0
REMARK                            x       y       z     vdW  Elec       q    Type
REMARK                         _______ _______ _______ _____ _____    ______ ____
ROOT
ATOM      1  N   LIG    1       -1.169   4.977   3.508  0.00  0.00    -0.740 N 
ATOM      2  H   LIG    1       -0.633   5.357   4.222  0.00  0.00    +0.400 HD
ATOM      3  C   LIG    1       -1.256   3.640   3.369  0.00  0.00    +0.720 C 
ATOM      4  N   LIG    1       -0.598   2.830   4.222  0.00  0.00    -0.630 N 
ATOM      5  C   LIG    1        0.162   3.266   5.408  0.00  0.00    +0.240 C 
ATOM      6  C   LIG    1        0.178   2.032   6.345  0.00  0.00    +0.040 C 
ATOM      7  C   LIG    1        0.312   0.869   5.327  0.00  0.00    +0.040 C 
ATOM      8  C   LIG    1       -0.518   1.365   4.124  0.00  0.00    +0.280 C 
ATOM      9  O   LIG    1       -1.927   3.163   2.474  0.00  0.00    -0.580 OA
ENDROOT
BRANCH   1  10
ATOM     10  C   LIG    1       -1.884   5.858   2.581  0.00  0.00    +0.280 C 
BRANCH  10  11
ATOM     11  C   LIG    1       -1.620   7.317   2.957  0.00  0.00    +0.070 C 
BRANCH  11  16
ATOM     12  C   LIG    1       -2.421   9.489  -0.036  0.00  0.00    -0.130 A 
ATOM     13  C   LIG    1       -3.725   9.890   0.259  0.00  0.00    +0.040 A 
ATOM     14  C   LIG    1       -4.331   9.455   1.420  0.00  0.00    +0.010 A 
ATOM     15  C   LIG    1       -3.648   8.624   2.291  0.00  0.00    +0.050 A 
ATOM     16  C   LIG    1       -2.355   8.223   2.003  0.00  0.00    -0.090 A 
ATOM     17  C   LIG    1       -1.737   8.655   0.849  0.00  0.00    +0.090 A 
BRANCH  12  21
ATOM     18  C   LIG    1       -1.780  11.216  -3.361  0.00  0.00    +0.290 C 
ATOM     19  N   LIG    1       -2.429  10.759  -2.130  0.00  0.00    -0.730 N 
ATOM     20  H   LIG    1       -3.335  11.039  -1.926  0.00  0.00    +0.400 HD
ATOM     21  C   LIG    1       -1.767   9.950  -1.279  0.00  0.00    +0.560 C 
ATOM     22  O   LIG    1       -0.631   9.599  -1.534  0.00  0.00    -0.530 OA
ENDBRANCH  12  21
ENDBRANCH  11  16
ENDBRANCH  10  11
ENDBRANCH   1  10
BRANCH   8  23
ATOM     23  C   LIG    1        0.170   0.967   2.817  0.00  0.00    -0.360 C 
BRANCH  23  24
ATOM     24  S   LIG    1        0.321  -0.839   2.737  0.00  0.00    +2.420 S 
ATOM     25  O   LIG    1        1.296  -1.254   3.684  0.00  0.00    -0.930 OA
ATOM     26  O   LIG    1       -0.982  -1.404   2.790  0.00  0.00    -0.930 OA
ATOM     27  C   LIG    1        0.991  -1.086   1.070  0.00  0.00    -0.270 C 
ENDBRANCH  23  24
ENDBRANCH   8  23
TORSDOF 6
