REMARK  Name = ZINCvU00000004iX.0
REMARK                            x       y       z     vdW  Elec       q    Type
REMARK                         _______ _______ _______ _____ _____    ______ ____
ROOT
ATOM      1  N   LIG    1        0.198   5.964  -0.409  0.00  0.00    -0.410 N 
ATOM      2  C   LIG    1       -0.148   6.048  -1.729  0.00  0.00    +0.160 A 
ATOM      3  N   LIG    1        0.552   7.031  -2.252  0.00  0.00    -0.280 NA
ATOM      4  N   LIG    1        1.311   7.557  -1.359  0.00  0.00    -0.260 NA
ATOM      5  C   LIG    1        1.141   6.947  -0.209  0.00  0.00    +0.240 A 
ENDROOT
BRANCH   1   9
ATOM      6  C   LIG    1       -1.285   3.279   2.423  0.00  0.00    +0.120 A 
ATOM      7  C   LIG    1       -1.580   4.628   2.525  0.00  0.00    -0.010 A 
ATOM      8  C   LIG    1       -1.090   5.517   1.587  0.00  0.00    +0.050 A 
ATOM      9  C   LIG    1       -0.300   5.060   0.542  0.00  0.00    +0.100 A 
ATOM     10  C   LIG    1        0.002   3.709   0.440  0.00  0.00    -0.010 A 
ATOM     11  C   LIG    1       -0.494   2.817   1.375  0.00  0.00    +0.120 A 
BRANCH   6  13
ATOM     12  C   LIG    1       -2.574   2.949   4.395  0.00  0.00    +0.250 C 
ATOM     13  O   LIG    1       -1.768   2.405   3.347  0.00  0.00    -0.300 OA
ENDBRANCH   6  13
BRANCH  11  14
ATOM     14  O   LIG    1       -0.203   1.492   1.274  0.00  0.00    -0.300 OA
ATOM     15  C   LIG    1        0.614   1.089   0.174  0.00  0.00    +0.250 C 
ENDBRANCH  11  14
ENDBRANCH   1   9
BRANCH   5  16
ATOM     16  C   LIG    1        1.831   7.258   1.061  0.00  0.00    -0.020 A 
ATOM     17  C   LIG    1        2.479   8.484   1.225  0.00  0.00    +0.070 A 
ATOM     18  C   LIG    1        3.116   8.769   2.414  0.00  0.00    +0.010 A 
ATOM     19  C   LIG    1        3.125   7.840   3.439  0.00  0.00    +0.030 A 
ATOM     20  C   LIG    1        2.490   6.620   3.281  0.00  0.00    +0.010 A 
ATOM     21  C   LIG    1        1.844   6.324   2.099  0.00  0.00    +0.030 A 
ENDBRANCH   5  16
BRANCH   2  22
ATOM     22  S   LIG    1       -1.316   5.033  -2.572  0.00  0.00    +0.030 S 
BRANCH  22  23
ATOM     23  C   LIG    1       -1.213   5.746  -4.232  0.00  0.00    +0.150 C 
BRANCH  23  24
ATOM     24  C   LIG    1       -2.155   5.014  -5.153  0.00  0.00    -0.040 A 
ATOM     25  C   LIG    1       -3.456   5.448  -5.298  0.00  0.00    +0.040 A 
ATOM     26  C   LIG    1       -4.322   4.777  -6.143  0.00  0.00    +0.050 A 
ATOM     27  C   LIG    1       -3.891   3.667  -6.847  0.00  0.00    +0.030 A 
ATOM     28  C   LIG    1       -2.592   3.222  -6.711  0.00  0.00    +0.070 A 
ATOM     29  C   LIG    1       -1.711   3.898  -5.865  0.00  0.00    -0.010 A 
BRANCH  29  30
ATOM     30  C   LIG    1       -0.360   3.446  -5.723  0.00  0.00    +0.240 C 
ATOM     31  N   LIG    1        0.712   3.086  -5.611  0.00  0.00    -0.400 NA
ENDBRANCH  29  30
ENDBRANCH  23  24
ENDBRANCH  22  23
ENDBRANCH   2  22
TORSDOF 8
