REMARK  Name = ZINCrH000004jWMY.0
REMARK                            x       y       z     vdW  Elec       q    Type
REMARK                         _______ _______ _______ _____ _____    ______ ____
ROOT
ATOM      1  C   LIG    1        3.683   1.803  -2.018  0.00  0.00    +0.600 C 
ATOM      2  N   LIG    1        2.965   0.822  -1.437  0.00  0.00    -0.610 N 
ATOM      3  C   LIG    1        2.621  -0.383  -2.196  0.00  0.00    +0.290 C 
ATOM      4  O   LIG    1        3.880   2.846  -1.425  0.00  0.00    -0.520 OA
ENDROOT
BRANCH   1   8
ATOM      5  C   LIG    1        6.108  -0.117  -5.941  0.00  0.00    +0.360 C 
ATOM      6  N   LIG    1        5.297   0.769  -5.103  0.00  0.00    -0.360 N 
ATOM      7  C   LIG    1        5.014   0.564  -3.807  0.00  0.00    +0.290 A 
ATOM      8  C   LIG    1        4.230   1.612  -3.373  0.00  0.00    -0.280 A 
ATOM      9  C   LIG    1        4.042   2.494  -4.528  0.00  0.00    +0.160 A 
ATOM     10  N   LIG    1        4.698   1.958  -5.532  0.00  0.00    -0.270 NA
BRANCH   9  11
ATOM     11  C   LIG    1        3.262   3.756  -4.558  0.00  0.00    -0.070 A 
ATOM     12  C   LIG    1        3.681   4.831  -5.346  0.00  0.00    +0.100 A 
ATOM     13  C   LIG    1        2.918   5.987  -5.339  0.00  0.00    -0.030 A 
ATOM     14  C   LIG    1        1.778   6.039  -4.559  0.00  0.00    +0.270 A 
ATOM     15  N   LIG    1        1.407   5.007  -3.825  0.00  0.00    -0.480 NA
ATOM     16  C   LIG    1        2.097   3.886  -3.804  0.00  0.00    +0.290 A 
ENDBRANCH   9  11
ENDBRANCH   1   8
BRANCH   2  17
ATOM     17  C   LIG    1        2.529   0.960  -0.045  0.00  0.00    +0.340 C 
BRANCH  17  18
ATOM     18  C   LIG    1        1.178   1.627  -0.007  0.00  0.00    -0.080 A 
ATOM     19  C   LIG    1        0.028   0.861  -0.049  0.00  0.00    +0.020 A 
ATOM     20  C   LIG    1       -1.212   1.473  -0.019  0.00  0.00    +0.070 A 
ATOM     21  C   LIG    1       -1.301   2.850   0.063  0.00  0.00    -0.180 A 
ATOM     22  C   LIG    1       -0.151   3.615   0.106  0.00  0.00    +0.070 A 
ATOM     23  C   LIG    1        1.088   3.004   0.071  0.00  0.00    +0.050 A 
BRANCH  21  24
ATOM     24  C   LIG    1       -2.652   3.516   0.101  0.00  0.00    +0.510 C 
ATOM     25  F   LIG    1       -2.563   4.708   0.828  0.00  0.00    -0.180 F 
ATOM     26  F   LIG    1       -3.576   2.664   0.714  0.00  0.00    -0.180 F 
ATOM     27  F   LIG    1       -3.070   3.796  -1.204  0.00  0.00    -0.170 F 
ENDBRANCH  21  24
ENDBRANCH  17  18
ENDBRANCH   2  17
TORSDOF 5
