REMARK  Name = ZINCvU0000000A8z.0
REMARK                            x       y       z     vdW  Elec       q    Type
REMARK                         _______ _______ _______ _____ _____    ______ ____
ROOT
ATOM      1  C   LIG    1       -4.244  -1.984  -0.797  0.00  0.00    +0.070 C 
ATOM      2  C   LIG    1       -3.069  -2.099  -1.769  0.00  0.00    +0.010 C 
ENDROOT
BRANCH   2   3
ATOM      3  C   LIG    1       -1.927  -2.816  -1.095  0.00  0.00    +0.540 C 
ATOM      4  N   LIG    1       -1.118  -2.148  -0.249  0.00  0.00    -0.610 N 
ATOM      5  C   LIG    1        0.005  -2.820   0.426  0.00  0.00    +0.290 C 
ATOM      6  C   LIG    1        1.301  -2.178  -0.067  0.00  0.00    +0.070 C 
ATOM      7  C   LIG    1        1.205  -0.675  -0.024  0.00  0.00    -0.130 A 
ATOM      8  C   LIG    1        2.394   0.045  -0.026  0.00  0.00    +0.050 A 
ATOM      9  C   LIG    1        2.381   1.423  -0.013  0.00  0.00    -0.070 A 
ATOM     10  C   LIG    1        1.169   2.101   0.002  0.00  0.00    +0.220 A 
ATOM     11  C   LIG    1       -0.017   1.382   0.010  0.00  0.00    -0.070 A 
ATOM     12  C   LIG    1        0.002  -0.004   0.002  0.00  0.00    -0.050 A 
ATOM     13  C   LIG    1       -1.323  -0.725   0.038  0.00  0.00    +0.330 C 
ATOM     14  O   LIG    1       -1.736  -3.994  -1.314  0.00  0.00    -0.510 OA
BRANCH  10  15
ATOM     15  N   LIG    1        1.145   3.498   0.010  0.00  0.00    -0.640 N 
ATOM     16  C   LIG    1        2.400   4.253   0.002  0.00  0.00    +0.280 C 
ATOM     17  C   LIG    1       -0.137   4.208   0.026  0.00  0.00    +0.270 C 
ENDBRANCH  10  15
ENDBRANCH   2   3
BRANCH   2  18
ATOM     18  S   LIG    1       -3.586  -3.032  -3.236  0.00  0.00    -0.140 S 
BRANCH  18  19
ATOM     19  C   LIG    1       -4.839  -1.954  -3.984  0.00  0.00    +0.220 C 
BRANCH  19  20
ATOM     20  C   LIG    1       -5.375  -2.601  -5.236  0.00  0.00    +0.210 A 
ATOM     21  N   LIG    1       -6.400  -3.405  -5.292  0.00  0.00    -0.450 NA
ATOM     22  C   LIG    1       -6.585  -3.783  -6.566  0.00  0.00    +0.180 A 
ATOM     23  C   LIG    1       -5.628  -3.179  -7.315  0.00  0.00    +0.000 A 
ATOM     24  O   LIG    1       -4.880  -2.436  -6.470  0.00  0.00    -0.190 OA
BRANCH  23  25
ATOM     25  C   LIG    1       -5.444  -3.304  -8.777  0.00  0.00    -0.010 A 
ATOM     26  C   LIG    1       -6.301  -4.113  -9.524  0.00  0.00    +0.060 A 
ATOM     27  C   LIG    1       -6.126  -4.223 -10.888  0.00  0.00    +0.040 A 
ATOM     28  C   LIG    1       -5.097  -3.539 -11.514  0.00  0.00    -0.030 A 
ATOM     29  C   LIG    1       -4.241  -2.739 -10.777  0.00  0.00    +0.030 A 
ATOM     30 CL   LIG    1       -4.880  -3.687 -13.230  0.00  0.00    -0.060 Cl
ATOM     31  C   LIG    1       -4.408  -2.618  -9.413  0.00  0.00    +0.050 A 
ENDBRANCH  23  25
ENDBRANCH  19  20
ENDBRANCH  18  19
ENDBRANCH   2  18
TORSDOF 6
