REMARK  Name = ZINCvU00000009Ws.0
REMARK                            x       y       z     vdW  Elec       q    Type
REMARK                         _______ _______ _______ _____ _____    ______ ____
ROOT
ATOM      1  C   LIG    1        4.949  -4.127   0.821  0.00  0.00    -0.100 A 
ATOM      2  C   LIG    1        3.752  -4.844   0.830  0.00  0.00    +0.130 A 
ATOM      3  C   LIG    1        2.555  -4.207   0.558  0.00  0.00    +0.080 A 
ATOM      4  C   LIG    1        2.537  -2.846   0.275  0.00  0.00    -0.070 A 
ATOM      5  C   LIG    1        1.259  -2.157  -0.018  0.00  0.00    +0.440 C 
ATOM      6  C   LIG    1        1.218  -0.679  -0.013  0.00  0.00    -0.120 A 
ATOM      7  C   LIG    1        0.002  -0.004   0.002  0.00  0.00    +0.090 A 
ATOM      8  C   LIG    1       -0.017   1.381   0.010  0.00  0.00    +0.040 A 
ATOM      9  C   LIG    1        1.165   2.098   0.002  0.00  0.00    +0.050 A 
ATOM     10  C   LIG    1        2.385   1.441  -0.014  0.00  0.00    +0.080 A 
ATOM     11  C   LIG    1        2.422   0.051  -0.021  0.00  0.00    -0.110 A 
ATOM     12  C   LIG    1        3.714  -0.667  -0.037  0.00  0.00    +0.430 C 
ATOM     13  O   LIG    1        4.744  -0.075  -0.296  0.00  0.00    -0.400 OA
ATOM     14  O   LIG    1        0.256  -2.799  -0.260  0.00  0.00    -0.410 OA
ATOM     15  C   LIG    1        3.740  -2.115   0.264  0.00  0.00    -0.130 A 
ATOM     16  C   LIG    1        4.944  -2.756   0.538  0.00  0.00    +0.050 A 
ATOM     17 CL   LIG    1        6.432  -1.863   0.526  0.00  0.00    +0.020 Cl
ENDROOT
BRANCH   1  19
ATOM     18  O   LIG    1        7.266  -4.192   1.104  0.00  0.00    -0.470 OA
ATOM     19  C   LIG    1        6.224  -4.815   1.112  0.00  0.00    +0.510 C 
BRANCH  19  20
ATOM     20  O   LIG    1        6.230  -6.134   1.385  0.00  0.00    -0.340 OA
BRANCH  20  21
ATOM     21  C   LIG    1        7.519  -6.744   1.660  0.00  0.00    +0.260 C 
BRANCH  21  22
ATOM     22  C   LIG    1        7.327  -8.235   1.946  0.00  0.00    +0.230 C 
BRANCH  22  23
ATOM     23  O   LIG    1        6.844  -8.887   0.769  0.00  0.00    -0.290 OA
BRANCH  23  24
ATOM     24  C   LIG    1        6.619 -10.225   0.853  0.00  0.00    +0.150 A 
ATOM     25  C   LIG    1        6.863 -10.897   2.041  0.00  0.00    -0.040 A 
ATOM     26  C   LIG    1        6.628 -12.256   2.126  0.00  0.00    +0.080 A 
ATOM     27  C   LIG    1        6.161 -12.949   1.024  0.00  0.00    -0.060 A 
ATOM     28  C   LIG    1        5.921 -12.282  -0.165  0.00  0.00    +0.090 A 
ATOM     29 CL   LIG    1        5.874 -14.658   1.132  0.00  0.00    -0.050 Cl
ATOM     30  C   LIG    1        6.149 -10.922  -0.252  0.00  0.00    -0.060 A 
ATOM     31 CL   LIG    1        5.849 -10.085  -1.744  0.00  0.00    -0.040 Cl
ENDBRANCH  23  24
ENDBRANCH  22  23
ENDBRANCH  21  22
ENDBRANCH  20  21
ENDBRANCH  19  20
ENDBRANCH   1  19
TORSDOF 6
