REMARK  Name = ZINCrg00000fS4ME.0
REMARK                            x       y       z     vdW  Elec       q    Type
REMARK                         _______ _______ _______ _____ _____    ______ ____
ROOT
ATOM      1  C   LIG    1        7.913   0.505  -0.069  0.00  0.00    +0.560 C 
ATOM      2  N   LIG    1        7.023   1.517  -0.055  0.00  0.00    -0.720 N 
ATOM      3  H   LIG    1        7.334   2.436  -0.052  0.00  0.00    +0.410 HD
ATOM      4  O   LIG    1        7.523  -0.647  -0.072  0.00  0.00    -0.510 OA
ENDROOT
BRANCH   1   9
ATOM      5  C   LIG    1       11.169   2.381  -0.088  0.00  0.00    +0.120 A 
ATOM      6  C   LIG    1       12.084   1.333  -0.102  0.00  0.00    +0.060 A 
ATOM      7  C   LIG    1       11.645   0.024  -0.105  0.00  0.00    +0.020 A 
ATOM      8  C   LIG    1       10.287  -0.255  -0.095  0.00  0.00    +0.170 A 
ATOM      9  C   LIG    1        9.360   0.795  -0.080  0.00  0.00    -0.150 A 
ATOM     10  C   LIG    1        9.810   2.117  -0.082  0.00  0.00    +0.060 A 
BRANCH   5  11
ATOM     11  N   LIG    1       11.624   3.704  -0.085  0.00  0.00    -1.060 N 
ATOM     12  H   LIG    1       11.225   4.353   0.517  0.00  0.00    +0.430 HD
BRANCH  11  14
ATOM     13  C   LIG    1       12.137   3.970  -2.768  0.00  0.00    -0.280 C 
ATOM     14  S   LIG    1       12.842   4.164  -1.108  0.00  0.00    +2.610 S 
ATOM     15  O   LIG    1       13.867   3.205  -0.885  0.00  0.00    -0.950 OA
ATOM     16  O   LIG    1       13.048   5.539  -0.811  0.00  0.00    -0.950 OA
ENDBRANCH  11  14
ENDBRANCH   5  11
BRANCH   8  17
ATOM     17  O   LIG    1        9.858  -1.543  -0.098  0.00  0.00    -0.480 OA
ATOM     18  H   LIG    1        9.726  -1.911  -0.983  0.00  0.00    +0.400 HD
ENDBRANCH   8  17
ENDBRANCH   1   9
BRANCH   2  19
ATOM     19  C   LIG    1        5.587   1.230  -0.044  0.00  0.00    +0.310 C 
BRANCH  19  20
ATOM     20  C   LIG    1        4.815   2.524  -0.029  0.00  0.00    +0.530 C 
ATOM     21  N   LIG    1        3.467   2.505  -0.018  0.00  0.00    -0.610 N 
ATOM     22  C   LIG    1        2.611   1.316  -0.016  0.00  0.00    +0.320 C 
ATOM     23  C   LIG    1        1.177   1.783   0.000  0.00  0.00    -0.110 A 
ATOM     24  C   LIG    1       -0.013   1.076   0.008  0.00  0.00    +0.040 A 
ATOM     25  C   LIG    1       -1.219   1.749   0.017  0.00  0.00    +0.020 A 
ATOM     26  C   LIG    1       -1.238   3.131   0.031  0.00  0.00    +0.020 A 
ATOM     27  C   LIG    1       -0.051   3.838   0.024  0.00  0.00    +0.040 A 
ATOM     28  C   LIG    1        1.158   3.164   0.008  0.00  0.00    -0.110 A 
ATOM     29  C   LIG    1        2.578   3.671  -0.003  0.00  0.00    +0.330 C 
ATOM     30  O   LIG    1        5.407   3.583  -0.029  0.00  0.00    -0.530 OA
ENDBRANCH  19  20
ENDBRANCH   2  19
TORSDOF 6
