REMARK  Name = ZINCvU0000000FHd.0
REMARK                            x       y       z     vdW  Elec       q    Type
REMARK                         _______ _______ _______ _____ _____    ______ ____
ROOT
ATOM      1  C   LIG    1       -1.401  -0.501  -0.214  0.00  0.00    +0.530 C 
ATOM      2  N   LIG    1       -1.631  -1.829  -0.181  0.00  0.00    -0.610 N 
ATOM      3  C   LIG    1       -0.576  -2.765  -0.579  0.00  0.00    +0.280 C 
ATOM      4  O   LIG    1       -2.274   0.274   0.115  0.00  0.00    -0.530 OA
ENDROOT
BRANCH   1   5
ATOM      5  C   LIG    1       -0.059   0.020  -0.661  0.00  0.00    +0.100 C 
BRANCH   5   6
ATOM      6  C   LIG    1       -0.063   1.549  -0.606  0.00  0.00    +0.110 C 
BRANCH   6   7
ATOM      7  C   LIG    1        1.314   2.067  -0.934  0.00  0.00    +0.250 A 
ATOM      8  N   LIG    1        1.943   1.848  -2.049  0.00  0.00    -0.460 NA
ATOM      9  C   LIG    1        3.154   2.467  -1.998  0.00  0.00    +0.020 A 
ATOM     10  C   LIG    1        4.223   2.574  -2.889  0.00  0.00    +0.080 A 
ATOM     11  C   LIG    1        5.344   3.287  -2.527  0.00  0.00    +0.020 A 
ATOM     12  C   LIG    1        5.418   3.899  -1.285  0.00  0.00    +0.050 A 
ATOM     13  C   LIG    1        4.368   3.803  -0.395  0.00  0.00    +0.050 A 
ATOM     14  C   LIG    1        3.232   3.089  -0.742  0.00  0.00    +0.010 A 
ATOM     15  O   LIG    1        2.068   2.815  -0.113  0.00  0.00    -0.210 OA
ENDBRANCH   6   7
BRANCH   6  17
ATOM     16  C   LIG    1       -1.672   3.444  -1.403  0.00  0.00    +0.070 C 
ATOM     17  C   LIG    1       -1.052   2.086  -1.608  0.00  0.00    +0.380 C 
ATOM     18  O   LIG    1       -1.349   1.427  -2.576  0.00  0.00    -0.430 OA
ENDBRANCH   6  17
ENDBRANCH   5   6
ENDBRANCH   1   5
BRANCH   2  19
ATOM     19  C   LIG    1       -2.935  -2.336   0.253  0.00  0.00    +0.320 C 
BRANCH  19  20
ATOM     20  C   LIG    1       -3.162  -1.967   1.696  0.00  0.00    -0.080 A 
ATOM     21  C   LIG    1       -2.145  -2.124   2.618  0.00  0.00    +0.000 A 
ATOM     22  C   LIG    1       -2.352  -1.781   3.941  0.00  0.00    +0.000 A 
ATOM     23  C   LIG    1       -3.580  -1.291   4.344  0.00  0.00    +0.000 A 
ATOM     24  C   LIG    1       -4.600  -1.139   3.423  0.00  0.00    +0.000 A 
ATOM     25  C   LIG    1       -4.391  -1.477   2.099  0.00  0.00    +0.020 A 
ENDBRANCH  19  20
BRANCH  19  26
ATOM     26  C   LIG    1       -2.965  -3.836   0.107  0.00  0.00    -0.090 A 
ATOM     27  C   LIG    1       -2.009  -4.611   0.737  0.00  0.00    +0.020 A 
ATOM     28  C   LIG    1       -2.039  -5.986   0.607  0.00  0.00    +0.000 A 
ATOM     29  C   LIG    1       -3.019  -6.587  -0.162  0.00  0.00    +0.010 A 
ATOM     30  C   LIG    1       -3.971  -5.811  -0.796  0.00  0.00    +0.010 A 
ATOM     31  C   LIG    1       -3.944  -4.436  -0.662  0.00  0.00    +0.020 A 
ENDBRANCH  19  26
ENDBRANCH   2  19
TORSDOF 7
