REMARK  Name = ZINCvU0000000BcQ.0
REMARK                            x       y       z     vdW  Elec       q    Type
REMARK                         _______ _______ _______ _____ _____    ______ ____
ROOT
ATOM      1  S   LIG    1        5.916   1.578  -1.079  0.00  0.00    +0.080 S 
ENDROOT
BRANCH   1   2
ATOM      2  C   LIG    1        4.274   1.145  -0.609  0.00  0.00    +0.150 A 
ATOM      3  N   LIG    1        3.850  -0.051  -0.269  0.00  0.00    -0.290 NA
ATOM      4  N   LIG    1        2.597  -0.011   0.016  0.00  0.00    -0.250 NA
ATOM      5  C   LIG    1        2.144   1.212  -0.126  0.00  0.00    +0.220 A 
ATOM      6  N   LIG    1        3.203   1.990  -0.537  0.00  0.00    -0.450 N 
BRANCH   5   7
ATOM      7  C   LIG    1        0.757   1.668   0.106  0.00  0.00    -0.050 A 
ATOM      8  C   LIG    1        0.112   2.461  -0.844  0.00  0.00    +0.060 A 
ATOM      9  C   LIG    1       -1.183   2.883  -0.622  0.00  0.00    +0.010 A 
ATOM     10  C   LIG    1       -1.843   2.522   0.539  0.00  0.00    +0.070 A 
ATOM     11  C   LIG    1       -1.213   1.732   1.483  0.00  0.00    +0.000 A 
ATOM     12  C   LIG    1        0.085   1.306   1.277  0.00  0.00    +0.140 A 
ATOM     13  F   LIG    1        0.702   0.538   2.202  0.00  0.00    -0.120 F 
ENDBRANCH   5   7
BRANCH   6  14
ATOM     14  C   LIG    1        3.185   3.425  -0.832  0.00  0.00    +0.300 C 
BRANCH  14  15
ATOM     15  C   LIG    1        3.362   4.214   0.467  0.00  0.00    -0.030 C 
ATOM     16  C   LIG    1        3.219   5.710   0.178  0.00  0.00    +0.040 C 
ATOM     17  C   LIG    1        4.750   3.937   1.047  0.00  0.00    +0.040 C 
ENDBRANCH  14  15
ENDBRANCH   6  14
ENDBRANCH   1   2
BRANCH   1  18
ATOM     18  C   LIG    1        6.719  -0.038  -0.940  0.00  0.00    +0.020 C 
ATOM     19  C   LIG    1        6.707  -0.489   0.522  0.00  0.00    +0.080 C 
BRANCH  18  22
ATOM     20  N   LIG    1        8.777  -1.029  -1.889  0.00  0.00    -0.660 N 
ATOM     21  H   LIG    1        8.297  -1.867  -1.979  0.00  0.00    +0.420 HD
ATOM     22  C   LIG    1        8.143   0.065  -1.422  0.00  0.00    +0.540 C 
ATOM     23  O   LIG    1        8.718   1.132  -1.390  0.00  0.00    -0.500 OA
BRANCH  20  28
ATOM     24  C   LIG    1       12.333  -0.050  -1.904  0.00  0.00    -0.150 A 
ATOM     25  C   LIG    1       12.809  -0.826  -2.965  0.00  0.00    +0.050 A 
ATOM     26  C   LIG    1       11.948  -1.656  -3.653  0.00  0.00    +0.030 A 
ATOM     27  C   LIG    1       10.614  -1.727  -3.294  0.00  0.00    +0.020 A 
ATOM     28  C   LIG    1       10.129  -0.956  -2.244  0.00  0.00    +0.130 A 
ATOM     29  C   LIG    1       10.984  -0.119  -1.545  0.00  0.00    +0.090 A 
BRANCH  24  31
ATOM     30  C   LIG    1       14.703   0.908  -1.556  0.00  0.00    +0.080 C 
ATOM     31  C   LIG    1       13.249   0.836  -1.167  0.00  0.00    +0.390 C 
ATOM     32  O   LIG    1       12.834   1.508  -0.248  0.00  0.00    -0.450 OA
ENDBRANCH  24  31
ENDBRANCH  20  28
ENDBRANCH  18  22
ENDBRANCH   1  18
TORSDOF 8
