REMARK  Name = ZINCtV00001bB3iU.0
REMARK                            x       y       z     vdW  Elec       q    Type
REMARK                         _______ _______ _______ _____ _____    ______ ____
ROOT
ATOM      1  N   LIG    1       -2.409   1.062   0.019  0.00  0.00    -0.530 NA
ATOM      2  C   LIG    1       -2.399  -0.247  -0.088  0.00  0.00    +0.450 C 
ATOM      3  S   LIG    1       -0.950  -1.258  -0.115  0.00  0.00    -0.130 S 
ATOM      4  C   LIG    1       -1.824  -2.846  -0.279  0.00  0.00    +0.060 C 
ATOM      5  C   LIG    1       -3.308  -2.462  -0.305  0.00  0.00    +0.300 C 
ATOM      6  N   LIG    1       -3.499  -1.035  -0.190  0.00  0.00    -0.590 N 
ENDROOT
BRANCH   1  14
ATOM      7  C   LIG    1       -1.819   3.274  -1.666  0.00  0.00    +0.110 C 
ATOM      8  C   LIG    1       -0.900   2.834  -0.554  0.00  0.00    -0.080 A 
ATOM      9  C   LIG    1        0.282   3.510  -0.326  0.00  0.00    -0.020 A 
ATOM     10  C   LIG    1        1.126   3.107   0.695  0.00  0.00    +0.000 A 
ATOM     11  C   LIG    1        0.792   2.026   1.492  0.00  0.00    +0.040 A 
ATOM     12  C   LIG    1       -0.387   1.343   1.274  0.00  0.00    -0.020 A 
ATOM     13 CL   LIG    1        0.711   4.866  -1.320  0.00  0.00    -0.070 Cl
ATOM     14  C   LIG    1       -1.241   1.740   0.243  0.00  0.00    +0.140 A 
ENDBRANCH   1  14
BRANCH   6  15
ATOM     15  C   LIG    1       -4.844  -0.453  -0.187  0.00  0.00    +0.250 C 
ATOM     16  C   LIG    1       -4.985   0.510  -1.367  0.00  0.00    +0.040 C 
ATOM     17  C   LIG    1       -5.068   0.307   1.122  0.00  0.00    +0.030 C 
ENDBRANCH   6  15
BRANCH   4  18
ATOM     18  C   LIG    1       -1.428  -3.542  -1.583  0.00  0.00    +0.230 C 
BRANCH  18  19
ATOM     19  O   LIG    1       -1.844  -2.745  -2.693  0.00  0.00    -0.300 OA
BRANCH  19  20
ATOM     20  C   LIG    1       -1.567  -3.223  -3.934  0.00  0.00    +0.150 A 
ATOM     21  C   LIG    1       -0.913  -4.414  -4.082  0.00  0.00    -0.090 A 
ATOM     22  C   LIG    1       -0.626  -4.920  -5.347  0.00  0.00    +0.050 A 
ATOM     23  C   LIG    1       -0.979  -4.240  -6.472  0.00  0.00    -0.010 A 
ATOM     24  C   LIG    1       -1.648  -3.009  -6.363  0.00  0.00    -0.020 A 
ATOM     25  C   LIG    1       -2.027  -2.281  -7.503  0.00  0.00    +0.010 A 
ATOM     26  C   LIG    1       -2.673  -1.091  -7.359  0.00  0.00    +0.020 A 
ATOM     27  C   LIG    1       -2.966  -0.583  -6.095  0.00  0.00    -0.010 A 
ATOM     28  C   LIG    1       -2.615  -1.262  -4.968  0.00  0.00    +0.050 A 
ATOM     29  C   LIG    1       -1.947  -2.492  -5.078  0.00  0.00    -0.070 A 
ENDBRANCH  19  20
ENDBRANCH  18  19
ENDBRANCH   4  18
TORSDOF 5
