REMARK  Name = ZINCrD0000073xUe.0
REMARK                            x       y       z     vdW  Elec       q    Type
REMARK                         _______ _______ _______ _____ _____    ______ ____
ROOT
ATOM      1  N   LIG    1        4.646  -0.014  -0.932  0.00  0.00    -0.720 N 
ATOM      2  H   LIG    1        4.537   0.933  -1.111  0.00  0.00    +0.400 HD
ATOM      3  C   LIG    1        5.658  -0.695  -1.505  0.00  0.00    +0.520 C 
ATOM      4  O   LIG    1        5.796  -1.879  -1.281  0.00  0.00    -0.530 OA
ENDROOT
BRANCH   3   5
ATOM      5  C   LIG    1        6.619   0.015  -2.424  0.00  0.00    +0.000 C 
ATOM      6  C   LIG    1        7.665  -0.979  -2.937  0.00  0.00    +0.040 C 
ATOM      7  C   LIG    1        8.671  -0.238  -3.821  0.00  0.00    +0.040 C 
ATOM      8  C   LIG    1        9.315   0.893  -3.016  0.00  0.00    +0.190 C 
ATOM      9  N   LIG    1        8.273   1.817  -2.549  0.00  0.00    -0.460 N 
ATOM     10  C   LIG    1        7.322   1.138  -1.659  0.00  0.00    +0.220 C 
BRANCH   9  11
ATOM     11  C   LIG    1        8.835   2.926  -1.925  0.00  0.00    +0.260 A 
ATOM     12  C   LIG    1        9.768   3.712  -2.601  0.00  0.00    +0.040 A 
ATOM     13  C   LIG    1       10.293   4.810  -1.938  0.00  0.00    +0.080 A 
ATOM     14  C   LIG    1        9.867   5.053  -0.638  0.00  0.00    +0.090 A 
ATOM     15  N   LIG    1        8.983   4.253  -0.074  0.00  0.00    -0.200 NA
ATOM     16 CL   LIG    1       10.497   6.410   0.242  0.00  0.00    -0.000 Cl
ATOM     17  N   LIG    1        8.489   3.238  -0.685  0.00  0.00    -0.260 NA
ENDBRANCH   9  11
ENDBRANCH   3   5
BRANCH   1  18
ATOM     18  C   LIG    1        3.713  -0.704  -0.038  0.00  0.00    +0.290 C 
ATOM     19  C   LIG    1        4.294  -0.742   1.377  0.00  0.00    +0.040 C 
BRANCH  18  23
ATOM     20  C   LIG    1       -0.017   1.385   0.010  0.00  0.00    +0.100 A 
ATOM     21  C   LIG    1        1.176   2.092   0.002  0.00  0.00    -0.040 A 
ATOM     22  C   LIG    1        2.380   1.414  -0.014  0.00  0.00    +0.050 A 
ATOM     23  C   LIG    1        2.397   0.032  -0.021  0.00  0.00    -0.100 A 
ATOM     24  C   LIG    1        1.210  -0.677  -0.013  0.00  0.00    +0.050 A 
ATOM     25  C   LIG    1        0.002  -0.004   0.002  0.00  0.00    +0.080 A 
ATOM     26  F   LIG    1       -1.158  -0.696   0.009  0.00  0.00    -0.130 F 
BRANCH  20  28
ATOM     27  C   LIG    1       -1.146   3.478   0.026  0.00  0.00    +0.250 C 
ATOM     28  O   LIG    1       -1.202   2.050   0.019  0.00  0.00    -0.310 OA
ENDBRANCH  20  28
ENDBRANCH  18  23
ENDBRANCH   1  18
TORSDOF 5
