REMARK  Name = ZINCqH0000008lze.0
REMARK                            x       y       z     vdW  Elec       q    Type
REMARK                         _______ _______ _______ _____ _____    ______ ____
ROOT
ATOM      1  N   LIG    1       -0.524   1.433  -3.689  0.00  0.00    -0.730 N 
ATOM      2  H   LIG    1       -1.321   1.980  -3.768  0.00  0.00    +0.400 HD
ATOM      3  C   LIG    1       -0.047   1.107  -2.471  0.00  0.00    +0.510 C 
ATOM      4  O   LIG    1        0.949   0.422  -2.373  0.00  0.00    -0.540 OA
ENDROOT
BRANCH   1   6
ATOM      5  C   LIG    1        1.300   1.922  -5.244  0.00  0.00    +0.040 C 
ATOM      6  C   LIG    1        0.162   0.960  -4.895  0.00  0.00    +0.290 C 
BRANCH   6   7
ATOM      7  C   LIG    1       -0.817   0.902  -6.039  0.00  0.00    -0.090 A 
ATOM      8  C   LIG    1       -1.760   1.901  -6.191  0.00  0.00    +0.020 A 
ATOM      9  C   LIG    1       -2.656   1.854  -7.243  0.00  0.00    +0.030 A 
ATOM     10  C   LIG    1       -2.619   0.798  -8.141  0.00  0.00    +0.050 A 
ATOM     11  O   LIG    1       -3.514   0.761  -9.166  0.00  0.00    -0.310 OA
ATOM     12  C   LIG    1       -3.204  -0.110 -10.259  0.00  0.00    +0.220 C 
ATOM     13  C   LIG    1       -2.763  -1.464  -9.685  0.00  0.00    +0.220 C 
ATOM     14  O   LIG    1       -1.612  -1.249  -8.861  0.00  0.00    -0.310 OA
ATOM     15  C   LIG    1       -1.672  -0.208  -7.986  0.00  0.00    +0.060 A 
ATOM     16  C   LIG    1       -0.773  -0.152  -6.932  0.00  0.00    +0.040 A 
ENDBRANCH   6   7
ENDBRANCH   1   6
BRANCH   3  17
ATOM     17  C   LIG    1       -0.753   1.593  -1.232  0.00  0.00    +0.050 C 
BRANCH  17  18
ATOM     18  C   LIG    1       -0.013   1.086   0.008  0.00  0.00    +0.130 C 
BRANCH  18  19
ATOM     19  C   LIG    1       -0.718   1.572   1.248  0.00  0.00    -0.170 A 
ATOM     20  C   LIG    1       -0.416   2.668   1.960  0.00  0.00    +0.230 A 
ATOM     21  N   LIG    1       -1.276   2.790   3.017  0.00  0.00    -0.600 N 
ATOM     22  H   LIG    1       -1.257   3.505   3.672  0.00  0.00    +0.420 HD
ATOM     23  C   LIG    1       -2.170   1.743   3.016  0.00  0.00    +0.090 A 
ATOM     24  C   LIG    1       -3.227   1.385   3.846  0.00  0.00    -0.010 A 
ATOM     25  C   LIG    1       -3.954   0.246   3.576  0.00  0.00    +0.020 A 
ATOM     26  C   LIG    1       -3.644  -0.549   2.481  0.00  0.00    -0.030 A 
ATOM     27  C   LIG    1       -2.610  -0.215   1.652  0.00  0.00    +0.050 A 
ATOM     28  C   LIG    1       -1.860   0.934   1.908  0.00  0.00    -0.100 A 
ENDBRANCH  18  19
ENDBRANCH  17  18
ENDBRANCH   3  17
TORSDOF 5
