REMARK  Name = ZINCtV00000L6kf9.0
REMARK                            x       y       z     vdW  Elec       q    Type
REMARK                         _______ _______ _______ _____ _____    ______ ____
ROOT
ATOM      1  C   LIG    1       -3.809   1.750   0.143  0.00  0.00    +0.210 C 
ENDROOT
BRANCH   1   2
ATOM      2  C   LIG    1       -3.940   2.310   1.536  0.00  0.00    -0.120 A 
ATOM      3  C   LIG    1       -4.246   1.472   2.592  0.00  0.00    +0.050 A 
ATOM      4  C   LIG    1       -4.362   1.985   3.870  0.00  0.00    +0.010 A 
ATOM      5  C   LIG    1       -4.181   3.338   4.091  0.00  0.00    -0.070 A 
ATOM      6  C   LIG    1       -3.879   4.176   3.035  0.00  0.00    +0.010 A 
ATOM      7  C   LIG    1       -4.311   3.898   5.484  0.00  0.00    +0.090 C 
ATOM      8  C   LIG    1       -3.759   3.663   1.757  0.00  0.00    +0.040 A 
ENDBRANCH   1   2
BRANCH   1   9
ATOM      9  C   LIG    1       -2.453   1.111  -0.016  0.00  0.00    +0.410 C 
ATOM     10  O   LIG    1       -2.334  -0.091   0.084  0.00  0.00    -0.420 OA
BRANCH   9  15
ATOM     11  C   LIG    1        2.153   4.374  -1.107  0.00  0.00    +0.100 C 
ATOM     12  C   LIG    1        0.946   3.519  -0.817  0.00  0.00    -0.050 A 
ATOM     13  C   LIG    1        1.102   2.164  -0.582  0.00  0.00    +0.000 A 
ATOM     14  C   LIG    1        0.003   1.376  -0.317  0.00  0.00    +0.090 A 
ATOM     15  C   LIG    1       -1.274   1.947  -0.292  0.00  0.00    -0.170 A 
ATOM     16  C   LIG    1       -1.423   3.318  -0.523  0.00  0.00    +0.060 A 
ATOM     17  C   LIG    1       -0.313   4.093  -0.788  0.00  0.00    +0.000 A 
ENDBRANCH   9  15
ENDBRANCH   1   9
BRANCH   1  18
ATOM     18  O   LIG    1       -4.842   0.754  -0.077  0.00  0.00    -0.300 OA
BRANCH  18  19
ATOM     19  C   LIG    1       -6.012   1.188  -0.583  0.00  0.00    +0.520 C 
ATOM     20  O   LIG    1       -6.166   2.367  -0.832  0.00  0.00    -0.460 OA
BRANCH  19  21
ATOM     21  C   LIG    1       -7.111   0.230  -0.833  0.00  0.00    +0.120 A 
ATOM     22  N   LIG    1       -6.937  -1.058  -0.558  0.00  0.00    -0.390 NA
ATOM     23  C   LIG    1       -7.886  -1.943  -0.765  0.00  0.00    +0.330 A 
ATOM     24  C   LIG    1       -9.116  -1.562  -1.284  0.00  0.00    -0.050 A 
ATOM     25  C   LIG    1       -9.342  -0.226  -1.587  0.00  0.00    -0.000 A 
ATOM     26 CL   LIG    1      -10.866   0.292  -2.236  0.00  0.00    +0.010 Cl
ATOM     27 CL   LIG    1      -10.358  -2.744  -1.552  0.00  0.00    -0.000 Cl
ATOM     28  C   LIG    1       -8.322   0.687  -1.351  0.00  0.00    -0.020 A 
ATOM     29 CL   LIG    1       -8.550   2.371  -1.704  0.00  0.00    +0.030 Cl
ENDBRANCH  19  21
ENDBRANCH  18  19
ENDBRANCH   1  18
TORSDOF 6
