REMARK  Name = ZINCpe00000gLOuS.0
REMARK                            x       y       z     vdW  Elec       q    Type
REMARK                         _______ _______ _______ _____ _____    ______ ____
ROOT
ATOM      1  N   LIG    1        1.404   1.861   0.097  0.00  0.00    -0.720 N 
ATOM      2  H   LIG    1        1.760   2.604  -0.416  0.00  0.00    +0.400 HD
ATOM      3  C   LIG    1        2.221   1.135   0.886  0.00  0.00    +0.710 C 
ATOM      4  N   LIG    1        3.507   1.504   1.045  0.00  0.00    -0.740 N 
ATOM      5  H   LIG    1        3.846   2.291   0.591  0.00  0.00    +0.390 HD
ATOM      6  O   LIG    1        1.796   0.148   1.455  0.00  0.00    -0.590 OA
ENDROOT
BRANCH   1  12
ATOM      7  C   LIG    1        0.763  -0.039  -1.864  0.00  0.00    +0.070 C 
ATOM      8  C   LIG    1       -0.310   0.266  -0.816  0.00  0.00    -0.060 C 
ATOM      9  C   LIG    1       -1.530   1.017  -1.383  0.00  0.00    +0.160 C 
ATOM     10  C   LIG    1       -0.775   2.320  -1.068  0.00  0.00    +0.010 C 
ATOM     11  C   LIG    1       -0.678  -0.953   0.032  0.00  0.00    +0.040 C 
ATOM     12  C   LIG    1       -0.020   1.528   0.013  0.00  0.00    +0.190 C 
BRANCH   9  13
ATOM     13  O   LIG    1       -1.738   0.800  -2.779  0.00  0.00    -0.550 OA
ATOM     14  H   LIG    1       -2.475   1.304  -3.151  0.00  0.00    +0.380 HD
ENDBRANCH   9  13
BRANCH  12  15
ATOM     15  C   LIG    1       -0.714   1.538   1.377  0.00  0.00    +0.210 C 
BRANCH  15  16
ATOM     16  O   LIG    1       -0.548   2.821   1.986  0.00  0.00    -0.570 OA
ATOM     17  H   LIG    1       -0.963   2.900   2.856  0.00  0.00    +0.380 HD
ENDBRANCH  15  16
ENDBRANCH  12  15
ENDBRANCH   1  12
BRANCH   4  18
ATOM     18  C   LIG    1        4.395   0.715   1.903  0.00  0.00    +0.360 C 
BRANCH  18  19
ATOM     19  C   LIG    1        5.768   1.334   1.910  0.00  0.00    -0.210 A 
ATOM     20  C   LIG    1        6.113   2.203   2.893  0.00  0.00    +0.160 A 
ATOM     21  C   LIG    1        7.457   2.783   2.873  0.00  0.00    -0.140 A 
ATOM     22  C   LIG    1        7.871   3.680   3.863  0.00  0.00    +0.090 A 
ATOM     23  C   LIG    1        9.130   4.209   3.814  0.00  0.00    -0.020 A 
ATOM     24  C   LIG    1       10.002   3.863   2.790  0.00  0.00    +0.070 A 
ATOM     25  C   LIG    1        9.615   2.980   1.805  0.00  0.00    -0.030 A 
ATOM     26  C   LIG    1        8.338   2.430   1.834  0.00  0.00    +0.190 A 
ATOM     27  N   LIG    1        7.924   1.545   0.861  0.00  0.00    -0.630 N 
ATOM     28  H   LIG    1        8.533   1.302   0.146  0.00  0.00    +0.420 HD
ATOM     29  C   LIG    1        6.690   1.013   0.890  0.00  0.00    +0.540 A 
ATOM     30  O   LIG    1        6.358   0.234   0.013  0.00  0.00    -0.530 OA
ENDBRANCH  18  19
ENDBRANCH   4  18
TORSDOF 6
