REMARK  Name = ZINCpk00000y6yjg.0
REMARK                            x       y       z     vdW  Elec       q    Type
REMARK                         _______ _______ _______ _____ _____    ______ ____
ROOT
ATOM      1  C   LIG    1       -2.847   0.182   0.423  0.00  0.00    +0.260 C 
ATOM      2  C   LIG    1       -3.704   1.255  -0.241  0.00  0.00    +0.010 C 
ATOM      3  C   LIG    1       -4.933   0.746  -0.869  0.00  0.00    +0.010 C 
ATOM      4  C   LIG    1       -4.584  -0.231  -2.019  0.00  0.00    +0.270 C 
ATOM      5  N   LIG    1       -4.066  -1.463  -1.468  0.00  0.00    -0.620 N 
ATOM      6  C   LIG    1       -2.628  -1.685  -1.223  0.00  0.00    +0.300 C 
ATOM      7  C   LIG    1       -4.933  -2.450  -1.165  0.00  0.00    +0.700 C 
ATOM      8  N   LIG    1       -6.253  -2.277  -1.377  0.00  0.00    -0.750 N 
ATOM      9  H   LIG    1       -6.579  -1.442  -1.747  0.00  0.00    +0.400 HD
ATOM     10  O   LIG    1       -4.524  -3.497  -0.700  0.00  0.00    -0.580 OA
ATOM     11  C   LIG    1       -1.946  -0.448  -0.611  0.00  0.00    +0.020 C 
ENDROOT
BRANCH   1  12
ATOM     12  N   LIG    1       -2.031   0.791   1.476  0.00  0.00    -0.970 NA
BRANCH  12  14
ATOM     13  C   LIG    1       -3.196   1.339   3.900  0.00  0.00    -0.290 C 
ATOM     14  S   LIG    1       -2.095   0.197   3.021  0.00  0.00    +2.600 S 
ATOM     15  O   LIG    1       -0.763   0.320   3.499  0.00  0.00    -0.940 OA
ATOM     16  O   LIG    1       -2.709  -1.078   2.881  0.00  0.00    -0.950 OA
ENDBRANCH  12  14
BRANCH  12  17
ATOM     17  C   LIG    1       -1.158   1.925   1.164  0.00  0.00    +0.230 C 
ATOM     18  C   LIG    1       -1.526   3.212   1.921  0.00  0.00    +0.000 C 
ATOM     19  C   LIG    1       -0.586   2.732   3.040  0.00  0.00    -0.000 C 
ATOM     20  C   LIG    1        0.159   1.928   1.961  0.00  0.00    +0.040 C 
ENDBRANCH  12  17
ENDBRANCH   1  12
BRANCH   8  21
ATOM     21  C   LIG    1       -7.194  -3.349  -1.047  0.00  0.00    +0.290 C 
BRANCH  21  22
ATOM     22  C   LIG    1       -8.618  -2.899  -1.382  0.00  0.00    -0.050 C 
ATOM     23  C   LIG    1       -9.653  -3.958  -0.931  0.00  0.00    +0.010 C 
ATOM     24  C   LIG    1      -10.674  -4.003  -2.084  0.00  0.00    +0.200 C 
ATOM     25  O   LIG    1      -10.267  -3.022  -3.054  0.00  0.00    -0.380 OA
ATOM     26  C   LIG    1       -8.839  -2.860  -2.915  0.00  0.00    +0.210 C 
ENDBRANCH  21  22
ENDBRANCH   8  21
TORSDOF 5
