REMARK  Name = ZINCpe000000UDTb.0
REMARK                            x       y       z     vdW  Elec       q    Type
REMARK                         _______ _______ _______ _____ _____    ______ ____
ROOT
ATOM      1  C   LIG    1       -1.210   3.331   0.026  0.00  0.00    +0.290 C 
ATOM      2  N   LIG    1       -1.191   1.867   0.018  0.00  0.00    -0.610 N 
ATOM      3  C   LIG    1       -0.014   1.209   0.009  0.00  0.00    +0.490 C 
ATOM      4  O   LIG    1        0.002  -0.004   0.002  0.00  0.00    -0.500 OA
ENDROOT
BRANCH   3   5
ATOM      5  C   LIG    1        1.280   1.980   0.001  0.00  0.00    +0.400 C 
BRANCH   5   6
ATOM      6  N   LIG    1        2.407   1.043  -0.015  0.00  0.00    -0.460 N 
ATOM      7  N   LIG    1        3.054   0.507   1.105  0.00  0.00    +0.030 NA
ATOM      8  N   LIG    1        3.960  -0.247   0.732  0.00  0.00    +0.030 NA
ATOM      9  N   LIG    1        3.991  -0.276  -0.668  0.00  0.00    -0.460 N 
ATOM     10  C   LIG    1        3.007   0.534  -1.113  0.00  0.00    +0.650 A 
ATOM     11  O   LIG    1        2.719   0.763  -2.274  0.00  0.00    -0.530 OA
BRANCH   9  12
ATOM     12  C   LIG    1        4.919  -1.049  -1.498  0.00  0.00    +0.290 C 
ATOM     13  C   LIG    1        5.216  -2.453  -0.945  0.00  0.00    +0.040 C 
ATOM     14  C   LIG    1        6.678  -2.224  -1.373  0.00  0.00    +0.030 C 
ATOM     15  C   LIG    1        6.398  -0.718  -1.241  0.00  0.00    +0.020 C 
ENDBRANCH   9  12
ENDBRANCH   5   6
ENDBRANCH   3   5
BRANCH   2  16
ATOM     16  C   LIG    1       -2.449   1.117   0.020  0.00  0.00    +0.360 C 
BRANCH  16  17
ATOM     17  C   LIG    1       -2.874   0.852   1.441  0.00  0.00    -0.150 A 
ATOM     18  C   LIG    1       -3.905   1.578   1.997  0.00  0.00    +0.110 A 
ATOM     19  C   LIG    1       -4.301   1.328   3.314  0.00  0.00    -0.040 A 
ATOM     20  C   LIG    1       -3.642   0.350   4.062  0.00  0.00    +0.110 A 
ATOM     21  C   LIG    1       -2.608  -0.366   3.497  0.00  0.00    -0.010 A 
ATOM     22  C   LIG    1       -2.223  -0.117   2.189  0.00  0.00    +0.150 A 
ATOM     23  F   LIG    1       -1.209  -0.822   1.641  0.00  0.00    -0.100 F 
BRANCH  19  24
ATOM     24  C   LIG    1       -5.376   2.075   3.895  0.00  0.00    +0.250 C 
ATOM     25  N   LIG    1       -6.228   2.668   4.357  0.00  0.00    -0.410 NA
ENDBRANCH  19  24
ENDBRANCH  16  17
ENDBRANCH   2  16
TORSDOF 6
