REMARK  Name = ZINCpe00000MJJkZ.1
REMARK                            x       y       z     vdW  Elec       q    Type
REMARK                         _______ _______ _______ _____ _____    ______ ____
ROOT
ATOM      1  C   LIG    1        3.753  -1.937  -0.413  0.00  0.00    +0.200 C 
ENDROOT
BRANCH   1   4
ATOM      2  C   LIG    1        3.024   1.200   1.413  0.00  0.00    +0.170 C 
ATOM      3  C   LIG    1        3.469  -0.277   1.346  0.00  0.00    +0.160 C 
ATOM      4  N   LIG    1        3.794  -0.506  -0.086  0.00  0.00    -0.480 NA
ATOM      5  C   LIG    1        2.741   0.239  -0.823  0.00  0.00    +0.200 C 
ATOM      6  C   LIG    1        2.545   1.539  -0.014  0.00  0.00    +0.120 C 
BRANCH   6   7
ATOM      7  C   LIG    1        1.091   1.933   0.002  0.00  0.00    +0.010 A 
ATOM      8  N   LIG    1        0.600   3.151   0.013  0.00  0.00    -0.270 NA
ATOM      9  N   LIG    1       -0.684   3.079   0.024  0.00  0.00    -0.250 N 
ATOM     10  H   LIG    1       -1.279   3.845   0.033  0.00  0.00    +0.470 HD
ATOM     11  N   LIG    1       -1.072   1.853   0.017  0.00  0.00    -0.280 NA
ATOM     12  C   LIG    1       -0.013   1.076   0.008  0.00  0.00    +0.180 A 
ENDBRANCH   6   7
BRANCH   2  14
ATOM     13  C   LIG    1        4.211   2.304   3.179  0.00  0.00    +0.200 C 
ATOM     14  O   LIG    1        4.126   2.033   1.778  0.00  0.00    -0.370 OA
ENDBRANCH   2  14
ENDBRANCH   1   4
BRANCH   1  15
ATOM     15  C   LIG    1        4.974  -2.617   0.152  0.00  0.00    +0.510 C 
ATOM     16  N   LIG    1        5.151  -3.941  -0.026  0.00  0.00    -0.740 N 
ATOM     17  H   LIG    1        4.493  -4.457  -0.517  0.00  0.00    +0.400 HD
ATOM     18  O   LIG    1        5.797  -1.972   0.767  0.00  0.00    -0.510 OA
BRANCH  16  19
ATOM     19  C   LIG    1        6.338  -4.601   0.523  0.00  0.00    +0.270 C 
BRANCH  19  20
ATOM     20  C   LIG    1        6.295  -6.092   0.183  0.00  0.00    +0.070 C 
BRANCH  20  21
ATOM     21  C   LIG    1        7.516  -6.772   0.748  0.00  0.00    -0.090 A 
ATOM     22  C   LIG    1        8.630  -6.965  -0.048  0.00  0.00    +0.010 A 
ATOM     23  C   LIG    1        9.752  -7.583   0.472  0.00  0.00    +0.000 A 
ATOM     24  C   LIG    1        9.755  -8.019   1.784  0.00  0.00    +0.000 A 
ATOM     25  C   LIG    1        8.639  -7.830   2.578  0.00  0.00    +0.000 A 
ATOM     26  C   LIG    1        7.520  -7.207   2.060  0.00  0.00    -0.080 A 
ATOM     27  C   LIG    1        6.303  -7.002   2.925  0.00  0.00    +0.090 C 
ENDBRANCH  20  21
ENDBRANCH  19  20
ENDBRANCH  16  19
ENDBRANCH   1  15
TORSDOF 7
