REMARK  Name = ZINCpe00000MJJkZ.0
REMARK                            x       y       z     vdW  Elec       q    Type
REMARK                         _______ _______ _______ _____ _____    ______ ____
ROOT
ATOM      1  C   LIG    1       -2.676   3.135  -1.545  0.00  0.00    +0.190 C 
ENDROOT
BRANCH   1   4
ATOM      2  C   LIG    1        0.835   3.131  -0.372  0.00  0.00    +0.170 C 
ATOM      3  C   LIG    1       -0.461   3.840  -0.819  0.00  0.00    +0.150 C 
ATOM      4  N   LIG    1       -1.514   2.797  -0.712  0.00  0.00    -0.480 NA
ATOM      5  C   LIG    1       -0.852   1.560  -1.199  0.00  0.00    +0.190 C 
ATOM      6  C   LIG    1        0.580   1.631  -0.621  0.00  0.00    +0.110 C 
BRANCH   6   7
ATOM      7  C   LIG    1        1.575   1.088  -1.614  0.00  0.00    -0.010 A 
ATOM      8  C   LIG    1        1.476   1.130  -2.964  0.00  0.00    +0.150 A 
ATOM      9  N   LIG    1        2.590   0.528  -3.442  0.00  0.00    -0.390 N 
ATOM     10  H   LIG    1        2.810   0.401  -4.378  0.00  0.00    +0.450 HD
ATOM     11  N   LIG    1        3.306   0.151  -2.441  0.00  0.00    -0.070 NA
ATOM     12  N   LIG    1        2.731   0.475  -1.337  0.00  0.00    -0.250 NA
ENDBRANCH   6   7
BRANCH   2  14
ATOM     13  C   LIG    1        1.919   4.497   1.272  0.00  0.00    +0.200 C 
ATOM     14  O   LIG    1        1.079   3.370   1.016  0.00  0.00    -0.370 OA
ENDBRANCH   2  14
ENDBRANCH   1   4
BRANCH   1  15
ATOM     15  C   LIG    1       -3.683   2.016  -1.479  0.00  0.00    +0.510 C 
ATOM     16  N   LIG    1       -4.780   2.050  -2.263  0.00  0.00    -0.740 N 
ATOM     17  H   LIG    1       -4.920   2.794  -2.869  0.00  0.00    +0.400 HD
ATOM     18  O   LIG    1       -3.507   1.086  -0.722  0.00  0.00    -0.510 OA
BRANCH  16  19
ATOM     19  C   LIG    1       -5.759   0.962  -2.199  0.00  0.00    +0.260 C 
BRANCH  19  20
ATOM     20  C   LIG    1       -6.898   1.243  -3.181  0.00  0.00    +0.070 C 
BRANCH  20  21
ATOM     21  C   LIG    1       -7.905   0.124  -3.115  0.00  0.00    -0.090 A 
ATOM     22  C   LIG    1       -7.832  -0.924  -4.012  0.00  0.00    +0.010 A 
ATOM     23  C   LIG    1       -8.757  -1.951  -3.952  0.00  0.00    +0.000 A 
ATOM     24  C   LIG    1       -9.753  -1.929  -2.994  0.00  0.00    +0.000 A 
ATOM     25  C   LIG    1       -9.826  -0.879  -2.097  0.00  0.00    +0.000 A 
ATOM     26  C   LIG    1       -8.899   0.144  -2.154  0.00  0.00    -0.080 A 
ATOM     27  C   LIG    1       -8.975   1.285  -1.172  0.00  0.00    +0.090 C 
ENDBRANCH  20  21
ENDBRANCH  19  20
ENDBRANCH  16  19
ENDBRANCH   1  15
TORSDOF 7
