REMARK  Name = ZINCrD000007567I.0
REMARK                            x       y       z     vdW  Elec       q    Type
REMARK                         _______ _______ _______ _____ _____    ______ ____
ROOT
ATOM      1  C   LIG    1       -0.543   3.107  -1.353  0.00  0.00    +0.330 C 
ATOM      2  C   LIG    1       -0.754   1.593  -1.232  0.00  0.00    +0.040 C 
ATOM      3  C   LIG    1       -0.013   1.086   0.008  0.00  0.00    +0.030 C 
ATOM      4  C   LIG    1       -0.729   1.579   1.266  0.00  0.00    +0.130 C 
ATOM      5  C   LIG    1       -0.930   3.086   1.158  0.00  0.00    +0.080 A 
ATOM      6  N   LIG    1       -1.202   3.860   2.196  0.00  0.00    -0.460 NA
ATOM      7  C   LIG    1       -1.352   5.131   1.984  0.00  0.00    +0.100 A 
ATOM      8  S   LIG    1       -1.133   5.456   0.267  0.00  0.00    +0.140 S 
ATOM      9  C   LIG    1       -0.843   3.744  -0.016  0.00  0.00    -0.230 A 
ENDROOT
BRANCH   7  10
ATOM     10  C   LIG    1       -1.658   6.143   3.017  0.00  0.00    -0.040 A 
ATOM     11  C   LIG    1       -1.791   7.487   2.664  0.00  0.00    +0.070 A 
ATOM     12  C   LIG    1       -2.082   8.426   3.631  0.00  0.00    -0.010 A 
ATOM     13  C   LIG    1       -2.232   8.039   4.953  0.00  0.00    +0.110 A 
ATOM     14  C   LIG    1       -2.096   6.707   5.310  0.00  0.00    -0.010 A 
ATOM     15  F   LIG    1       -2.512   8.964   5.897  0.00  0.00    -0.130 F 
ATOM     16  C   LIG    1       -1.810   5.759   4.350  0.00  0.00    +0.110 A 
ENDBRANCH   7  10
BRANCH   1  18
ATOM     17  C   LIG    1       -1.133   4.793  -3.009  0.00  0.00    +0.610 C 
ATOM     18  N   LIG    1       -1.448   3.649  -2.369  0.00  0.00    -0.720 N 
ATOM     19  H   LIG    1       -2.273   3.186  -2.582  0.00  0.00    +0.400 HD
ATOM     20  O   LIG    1       -0.099   5.375  -2.743  0.00  0.00    -0.530 OA
BRANCH  17  27
ATOM     21  C   LIG    1       -3.514   6.822  -2.481  0.00  0.00    +0.150 C 
ATOM     22  C   LIG    1       -3.105   6.242  -3.810  0.00  0.00    +0.150 A 
ATOM     23  N   LIG    1       -3.670   6.489  -4.958  0.00  0.00    -0.300 NA
ATOM     24  N   LIG    1       -3.017   5.762  -5.959  0.00  0.00    -0.390 N 
ATOM     25  C   LIG    1       -2.018   5.056  -5.392  0.00  0.00    +0.410 A 
ATOM     26  C   LIG    1       -3.360   5.768  -7.383  0.00  0.00    +0.360 C 
ATOM     27  C   LIG    1       -2.040   5.337  -4.028  0.00  0.00    -0.370 A 
BRANCH  25  28
ATOM     28  N   LIG    1       -1.139   4.213  -6.041  0.00  0.00    -0.840 N 
ATOM     29  H   LIG    1       -1.209   4.085  -7.000  0.00  0.00    +0.400 HD
ATOM     30  H   LIG    1       -0.452   3.748  -5.539  0.00  0.00    +0.420 HD
ENDBRANCH  25  28
ENDBRANCH  17  27
ENDBRANCH   1  18
TORSDOF 4
