REMARK  Name = ZINCqH0000038F9k.0
REMARK                            x       y       z     vdW  Elec       q    Type
REMARK                         _______ _______ _______ _____ _____    ______ ____
ROOT
ATOM      1  C   LIG    1       -0.907  -6.242   0.856  0.00  0.00    +0.100 C 
ATOM      2  C   LIG    1        0.414  -7.005   0.731  0.00  0.00    +0.040 C 
ATOM      3  C   LIG    1        1.584  -6.041   0.941  0.00  0.00    +0.030 C 
ATOM      4  C   LIG    1        1.547  -4.957  -0.141  0.00  0.00    +0.270 C 
ATOM      5  N   LIG    1        0.226  -4.316  -0.124  0.00  0.00    -0.600 N 
ATOM      6  C   LIG    1        0.114  -2.977  -0.014  0.00  0.00    +0.570 C 
ATOM      7  O   LIG    1       -0.984  -2.466   0.105  0.00  0.00    -0.520 OA
ATOM      8  C   LIG    1       -0.972  -5.162  -0.222  0.00  0.00    +0.290 C 
ENDROOT
BRANCH   6   9
ATOM      9  C   LIG    1        1.321  -2.132  -0.039  0.00  0.00    -0.170 A 
ATOM     10  C   LIG    1        2.239  -2.219  -1.078  0.00  0.00    +0.290 A 
ATOM     11  N   LIG    1        3.323  -1.463  -1.103  0.00  0.00    -0.490 NA
ATOM     12  C   LIG    1        3.620  -0.586  -0.173  0.00  0.00    +0.350 A 
ATOM     13  C   LIG    1        2.780  -0.395   0.934  0.00  0.00    -0.130 A 
ATOM     14  C   LIG    1        3.074   0.535   1.943  0.00  0.00    +0.100 A 
ATOM     15  C   LIG    1        2.221   0.677   2.995  0.00  0.00    +0.000 A 
ATOM     16  C   LIG    1        1.058  -0.088   3.087  0.00  0.00    +0.140 A 
ATOM     17  C   LIG    1        0.742  -1.003   2.121  0.00  0.00    +0.000 A 
ATOM     18  F   LIG    1        0.230   0.082   4.141  0.00  0.00    -0.130 F 
ATOM     19  C   LIG    1        1.595  -1.172   1.031  0.00  0.00    +0.040 A 
ENDBRANCH   6   9
BRANCH   1  25
ATOM     20  C   LIG    1       -4.635  -9.425   1.896  0.00  0.00    +0.140 C 
ATOM     21  C   LIG    1       -3.666  -8.570   1.121  0.00  0.00    +0.000 A 
ATOM     22  C   LIG    1       -3.610  -8.452  -0.219  0.00  0.00    -0.020 A 
ATOM     23  N   LIG    1       -2.595  -7.578  -0.498  0.00  0.00    -0.560 N 
ATOM     24  H   LIG    1       -2.311  -7.287  -1.379  0.00  0.00    +0.420 HD
ATOM     25  C   LIG    1       -2.058  -7.199   0.682  0.00  0.00    +0.220 A 
ATOM     26  C   LIG    1       -4.500  -9.145  -1.219  0.00  0.00    +0.130 C 
ATOM     27  N   LIG    1       -2.706  -7.793   1.646  0.00  0.00    -0.480 NA
ENDBRANCH   1  25
TORSDOF 2
