REMARK  Name = ZINCpk00000y6uqF.1
REMARK                            x       y       z     vdW  Elec       q    Type
REMARK                         _______ _______ _______ _____ _____    ______ ____
ROOT
ATOM      1  N   LIG    1        4.270   5.705   1.092  0.00  0.00    -0.390 N 
ATOM      2  C   LIG    1        3.245   6.451   0.351  0.00  0.00    +0.290 C 
ATOM      3  C   LIG    1        1.913   5.699   0.425  0.00  0.00    +0.250 C 
ATOM      4  N   LIG    1        2.079   4.357  -0.150  0.00  0.00    -0.490 N 
ATOM      5  C   LIG    1        3.121   3.607   0.566  0.00  0.00    +0.230 C 
ATOM      6  C   LIG    1        4.442   4.376   0.491  0.00  0.00    +0.270 C 
ATOM      7  H   LIG    1        3.983   5.604   2.054  0.00  0.00    +0.420 HD
ENDROOT
BRANCH   1  13
ATOM      8  N   LIG    1        4.455   8.436   1.993  0.00  0.00    -0.570 N 
ATOM      9  C   LIG    1        3.792   7.558   2.971  0.00  0.00    +0.260 C 
ATOM     10  C   LIG    1        4.836   7.071   3.978  0.00  0.00    +0.030 C 
ATOM     11  C   LIG    1        5.537   5.824   3.469  0.00  0.00    +0.010 C 
ATOM     12  C   LIG    1        6.404   6.063   2.246  0.00  0.00    +0.070 C 
ATOM     13  C   LIG    1        5.543   6.435   1.036  0.00  0.00    +0.180 C 
ATOM     14  C   LIG    1        5.277   7.926   1.076  0.00  0.00    +0.500 C 
ATOM     15  O   LIG    1        5.813   8.657   0.271  0.00  0.00    -0.490 OA
BRANCH   8  16
ATOM     16  C   LIG    1        4.209   9.880   2.027  0.00  0.00    +0.210 C 
BRANCH  16  18
ATOM     17  O   LIG    1        2.448   9.320   0.550  0.00  0.00    -0.690 OA
ATOM     18  C   LIG    1        3.029  10.209   1.149  0.00  0.00    +0.490 C 
ATOM     19  O   LIG    1        2.656  11.364   1.037  0.00  0.00    -0.670 OA
ENDBRANCH  16  18
ENDBRANCH   8  16
ENDBRANCH   1  13
BRANCH   4  20
ATOM     20  C   LIG    1        0.868   3.659  -0.149  0.00  0.00    +0.080 A 
ATOM     21  C   LIG    1        0.810   2.366  -0.653  0.00  0.00    +0.040 A 
ATOM     22  C   LIG    1       -0.387   1.677  -0.650  0.00  0.00    +0.010 A 
ATOM     23  C   LIG    1       -1.531   2.277  -0.151  0.00  0.00    +0.090 A 
ATOM     24  C   LIG    1       -1.474   3.564   0.357  0.00  0.00    +0.020 A 
ATOM     25  F   LIG    1       -2.702   1.604  -0.155  0.00  0.00    -0.140 F 
ATOM     26  C   LIG    1       -0.279   4.256   0.356  0.00  0.00    +0.010 A 
ENDBRANCH   4  20
TORSDOF 4
