REMARK  Name = ZINCrD00000hQ4Jk.0
REMARK                            x       y       z     vdW  Elec       q    Type
REMARK                         _______ _______ _______ _____ _____    ______ ____
ROOT
ATOM      1  N   LIG    1        5.225   6.304   2.942  0.00  0.00    -0.690 N 
ATOM      2  H   LIG    1        5.842   5.712   3.400  0.00  0.00    +0.410 HD
ENDROOT
BRANCH   1   9
ATOM      3  C   LIG    1        8.924   9.344   4.574  0.00  0.00    +0.140 A 
ATOM      4  C   LIG    1        8.025  10.158   3.914  0.00  0.00    +0.060 A 
ATOM      5  C   LIG    1        6.877   9.593   3.343  0.00  0.00    +0.200 A 
ATOM      6  N   LIG    1        5.970  10.337   2.691  0.00  0.00    -0.550 NA
ATOM      7  C   LIG    1        4.904   9.778   2.167  0.00  0.00    +0.560 A 
ATOM      8  N   LIG    1        4.663   8.479   2.242  0.00  0.00    -0.600 NA
ATOM      9  C   LIG    1        5.492   7.655   2.868  0.00  0.00    +0.490 A 
ATOM     10  C   LIG    1        6.660   8.197   3.454  0.00  0.00    -0.210 A 
ATOM     11  C   LIG    1        7.590   7.399   4.130  0.00  0.00    +0.110 A 
ATOM     12  F   LIG    1        8.251  11.486   3.819  0.00  0.00    -0.110 F 
ATOM     13  C   LIG    1        8.700   7.969   4.677  0.00  0.00    -0.040 A 
BRANCH   3  15
ATOM     14  C   LIG    1       10.931   8.993   5.798  0.00  0.00    +0.250 C 
ATOM     15  O   LIG    1       10.039   9.887   5.129  0.00  0.00    -0.300 OA
ENDBRANCH   3  15
ENDBRANCH   1   9
BRANCH   1  16
ATOM     16  C   LIG    1        4.009   5.763   2.329  0.00  0.00    +0.260 C 
ATOM     17  C   LIG    1        4.254   5.436   0.841  0.00  0.00    +0.020 C 
ATOM     18  C   LIG    1        3.477   4.143   0.541  0.00  0.00    +0.040 C 
ATOM     19  C   LIG    1        2.786   3.728   1.856  0.00  0.00    +0.000 C 
ATOM     20  C   LIG    1        3.638   4.398   2.963  0.00  0.00    +0.060 C 
BRANCH  19  21
ATOM     21  C   LIG    1        2.803   2.229   2.011  0.00  0.00    +0.520 C 
ATOM     22  N   LIG    1        2.151   1.453   1.124  0.00  0.00    -0.610 N 
ATOM     23  C   LIG    1        1.420   2.052  -0.001  0.00  0.00    +0.260 C 
ATOM     24  C   LIG    1       -0.019   1.526   0.010  0.00  0.00    +0.010 C 
ATOM     25  C   LIG    1        0.002  -0.004   0.002  0.00  0.00    +0.020 C 
ATOM     26  C   LIG    1        0.712  -0.513   1.258  0.00  0.00    +0.010 C 
ATOM     27  C   LIG    1        2.159  -0.010   1.262  0.00  0.00    +0.270 C 
ATOM     28  O   LIG    1        3.404   1.722   2.935  0.00  0.00    -0.540 OA
ENDBRANCH  19  21
ENDBRANCH   1  16
TORSDOF 4
