REMARK  Name = ZINCnE000001FO0M.0
REMARK                            x       y       z     vdW  Elec       q    Type
REMARK                         _______ _______ _______ _____ _____    ______ ____
ROOT
ATOM      1  N   LIG    1        7.358   3.363   1.540  0.00  0.00    -0.490 N 
ATOM      2  C   LIG    1        7.755   2.716   2.678  0.00  0.00    +0.220 A 
ATOM      3  C   LIG    1        6.768   1.918   3.118  0.00  0.00    -0.050 A 
ATOM      4  C   LIG    1        5.648   2.067   2.186  0.00  0.00    -0.090 A 
ATOM      5  C   LIG    1        4.369   1.514   2.113  0.00  0.00    +0.070 A 
ATOM      6  C   LIG    1        3.530   1.869   1.073  0.00  0.00    +0.120 A 
ATOM      7  C   LIG    1        3.954   2.782   0.109  0.00  0.00    +0.010 A 
ATOM      8  C   LIG    1        5.212   3.337   0.176  0.00  0.00    +0.010 A 
ATOM      9  C   LIG    1        6.073   2.989   1.211  0.00  0.00    +0.080 A 
ENDROOT
BRANCH   6  10
ATOM     10  N   LIG    1        2.245   1.314   0.991  0.00  0.00    -0.680 N 
ATOM     11  H   LIG    1        1.512   1.839   0.635  0.00  0.00    +0.410 HD
ATOM     12  C   LIG    1        2.030   0.051   1.408  0.00  0.00    +0.520 C 
ATOM     13  O   LIG    1        2.963  -0.638   1.765  0.00  0.00    -0.520 OA
BRANCH  12  14
ATOM     14  C   LIG    1        0.630  -0.506   1.432  0.00  0.00    -0.010 C 
ATOM     15  C   LIG    1        0.046  -0.565  -0.002  0.00  0.00    +0.010 C 
ATOM     16  C   LIG    1       -1.046  -1.662   0.123  0.00  0.00    +0.040 C 
ATOM     17  C   LIG    1       -0.424  -2.711   1.068  0.00  0.00    -0.090 C 
ATOM     18  C   LIG    1        0.641  -1.976   1.900  0.00  0.00    +0.060 C 
BRANCH  17  19
ATOM     19  C   LIG    1       -1.483  -3.283   1.974  0.00  0.00    +0.500 C 
ATOM     20  O   LIG    1       -1.195  -3.624   3.109  0.00  0.00    -0.700 OA
ATOM     21  O   LIG    1       -2.628  -3.405   1.573  0.00  0.00    -0.700 OA
ENDBRANCH  17  19
ENDBRANCH  12  14
ENDBRANCH   6  10
BRANCH   1  22
ATOM     22  C   LIG    1        8.178   4.313   0.783  0.00  0.00    +0.280 C 
BRANCH  22  24
ATOM     23  C   LIG    1        8.708   6.731   0.442  0.00  0.00    +0.030 C 
ATOM     24  C   LIG    1        7.852   5.739   1.232  0.00  0.00    +0.000 C 
ENDBRANCH  22  24
ENDBRANCH   1  22
TORSDOF 5
