REMARK  Name = ZINCrD0000071Okf.0
REMARK                            x       y       z     vdW  Elec       q    Type
REMARK                         _______ _______ _______ _____ _____    ______ ____
ROOT
ATOM      1  N   LIG    1       -3.233  -2.303   0.021  0.00  0.00    -0.590 N 
ATOM      2  C   LIG    1       -3.063  -2.964   1.183  0.00  0.00    +0.530 C 
ATOM      3  O   LIG    1       -3.196  -2.381   2.237  0.00  0.00    -0.530 OA
ENDROOT
BRANCH   1   5
ATOM      4  C   LIG    1       -1.615  -2.914  -1.709  0.00  0.00    +0.020 C 
ATOM      5  C   LIG    1       -3.072  -3.008  -1.254  0.00  0.00    +0.270 C 
ENDBRANCH   1   5
BRANCH   2   6
ATOM      6  C   LIG    1       -2.708  -4.429   1.171  0.00  0.00    +0.090 C 
BRANCH   6   7
ATOM      7  C   LIG    1       -2.575  -4.932   2.610  0.00  0.00    +0.100 C 
BRANCH   7   8
ATOM      8  S   LIG    1       -2.147  -6.695   2.596  0.00  0.00    -0.240 S 
BRANCH   8   9
ATOM      9  C   LIG    1       -2.035  -7.101   4.361  0.00  0.00    +0.190 C 
BRANCH   9  10
ATOM     10  C   LIG    1       -1.681  -8.557   4.519  0.00  0.00    +0.080 A 
ATOM     11  C   LIG    1       -2.603  -9.520   4.610  0.00  0.00    -0.060 A 
ATOM     12  S   LIG    1       -1.765 -11.060   4.782  0.00  0.00    +0.130 S 
ATOM     13  C   LIG    1       -0.257 -10.256   4.723  0.00  0.00    +0.050 A 
ATOM     14  C   LIG    1        1.086 -10.933   4.818  0.00  0.00    +0.180 C 
ATOM     15  N   LIG    1       -0.436  -8.985   4.586  0.00  0.00    -0.460 NA
ENDBRANCH   9  10
ENDBRANCH   8   9
ENDBRANCH   7   8
ENDBRANCH   6   7
ENDBRANCH   2   6
BRANCH   1  16
ATOM     16  C   LIG    1       -3.578  -0.879   0.031  0.00  0.00    +0.400 C 
BRANCH  16  17
ATOM     17  C   LIG    1       -2.315  -0.057   0.024  0.00  0.00    +0.370 A 
ATOM     18  N   LIG    1       -1.175  -0.678   0.010  0.00  0.00    -0.500 NA
ATOM     19  C   LIG    1        0.002  -0.004   0.002  0.00  0.00    +0.150 A 
ATOM     20  C   LIG    1        1.228  -0.671  -0.013  0.00  0.00    +0.030 A 
ATOM     21  C   LIG    1        2.399   0.053  -0.020  0.00  0.00    +0.070 A 
ATOM     22  C   LIG    1        2.377   1.442  -0.011  0.00  0.00    -0.010 A 
ATOM     23  C   LIG    1        1.179   2.123   0.002  0.00  0.00    +0.100 A 
ATOM     24  C   LIG    1       -0.017   1.409   0.010  0.00  0.00    -0.200 A 
ATOM     25  C   LIG    1       -1.325   2.081   0.032  0.00  0.00    +0.550 A 
ATOM     26  O   LIG    1       -1.411   3.295   0.040  0.00  0.00    -0.510 OA
ATOM     27  N   LIG    1       -2.428   1.297   0.033  0.00  0.00    -0.650 N 
ATOM     28  H   LIG    1       -3.308   1.706   0.044  0.00  0.00    +0.420 HD
ENDBRANCH  16  17
ENDBRANCH   1  16
TORSDOF 8
