REMARK  Name = ZINCpe000000X9fJ.0
REMARK                            x       y       z     vdW  Elec       q    Type
REMARK                         _______ _______ _______ _____ _____    ______ ____
ROOT
ATOM      1  C   LIG    1        4.962   4.513   0.993  0.00  0.00    -0.010 C 
ATOM      2  C   LIG    1        4.802   3.532  -0.172  0.00  0.00    +0.060 C 
ATOM      3  C   LIG    1        3.482   2.775  -0.016  0.00  0.00    +0.230 C 
ATOM      4  N   LIG    1        2.367   3.730  -0.001  0.00  0.00    -0.480 N 
ATOM      5  C   LIG    1        2.473   4.652   1.137  0.00  0.00    +0.200 C 
ATOM      6  C   LIG    1        3.764   5.466   1.016  0.00  0.00    +0.060 C 
ENDROOT
BRANCH   4   7
ATOM      7  C   LIG    1        1.148   3.070   0.007  0.00  0.00    +0.340 A 
ATOM      8  C   LIG    1       -0.033   3.810   0.022  0.00  0.00    -0.040 A 
ATOM      9  C   LIG    1       -1.236   3.155   0.030  0.00  0.00    +0.150 A 
ATOM     10  C   LIG    1       -1.234   1.752   0.017  0.00  0.00    -0.110 A 
ATOM     11  C   LIG    1       -0.013   1.076   0.008  0.00  0.00    +0.360 A 
ATOM     12  N   LIG    1        1.122   1.745   0.001  0.00  0.00    -0.520 NA
BRANCH  10  13
ATOM     13  C   LIG    1       -2.467   1.024   0.019  0.00  0.00    +0.260 C 
ATOM     14  N   LIG    1       -3.446   0.447   0.021  0.00  0.00    -0.410 NA
ENDBRANCH  10  13
ENDBRANCH   4   7
BRANCH   1  17
ATOM     15  N   LIG    1        6.580   6.235   1.725  0.00  0.00    -0.730 N 
ATOM     16  H   LIG    1        6.014   6.395   2.496  0.00  0.00    +0.410 HD
ATOM     17  C   LIG    1        6.232   5.305   0.814  0.00  0.00    +0.520 C 
ATOM     18  O   LIG    1        6.940   5.105  -0.150  0.00  0.00    -0.520 OA
BRANCH  15  20
ATOM     19  C   LIG    1        8.999   6.038   1.505  0.00  0.00    +0.060 C 
ATOM     20  C   LIG    1        7.814   7.005   1.551  0.00  0.00    +0.180 C 
ATOM     21  C   LIG    1        7.986   7.940   2.742  0.00  0.00    +0.080 C 
ATOM     22  C   LIG    1        8.046   9.422   2.318  0.00  0.00    -0.300 C 
ATOM     23  S   LIG    1        7.137   9.428   0.720  0.00  0.00    +2.370 S 
ATOM     24  O   LIG    1        7.679  10.422  -0.138  0.00  0.00    -0.930 OA
ATOM     25  O   LIG    1        5.738   9.376   0.962  0.00  0.00    -0.920 OA
ATOM     26  C   LIG    1        7.742   7.771   0.214  0.00  0.00    -0.280 C 
ENDBRANCH  15  20
ENDBRANCH   1  17
TORSDOF 4
