REMARK  Name = ZINCrH00000No4X7.0
REMARK                            x       y       z     vdW  Elec       q    Type
REMARK                         _______ _______ _______ _____ _____    ______ ____
ROOT
ATOM      1  C   LIG    1        2.397   5.629   0.010  0.00  0.00    +0.140 C 
ATOM      2  C   LIG    1        2.405   4.277   0.002  0.00  0.00    -0.100 C 
ENDROOT
BRANCH   1   5
ATOM      3  C   LIG    1        4.854   8.465   0.002  0.00  0.00    +0.150 A 
ATOM      4  C   LIG    1        3.659   7.771   0.009  0.00  0.00    -0.060 A 
ATOM      5  C   LIG    1        3.665   6.371   0.002  0.00  0.00    -0.010 A 
ATOM      6  C   LIG    1        4.883   5.679  -0.008  0.00  0.00    -0.070 A 
ATOM      7  C   LIG    1        6.073   6.381  -0.021  0.00  0.00    +0.150 A 
ATOM      8  C   LIG    1        6.063   7.774  -0.013  0.00  0.00    +0.050 A 
BRANCH   3  10
ATOM      9  C   LIG    1        3.573  10.469   0.026  0.00  0.00    +0.250 C 
ATOM     10  O   LIG    1        4.849   9.825   0.010  0.00  0.00    -0.300 OA
ENDBRANCH   3  10
BRANCH   7  11
ATOM     11  O   LIG    1        7.256   5.710  -0.036  0.00  0.00    -0.300 OA
ATOM     12  C   LIG    1        7.193   4.283  -0.043  0.00  0.00    +0.250 C 
ENDBRANCH   7  11
BRANCH   8  13
ATOM     13  O   LIG    1        7.236   8.460  -0.020  0.00  0.00    -0.310 OA
ATOM     14  C   LIG    1        7.808   8.781   1.250  0.00  0.00    +0.240 C 
ENDBRANCH   8  13
ENDBRANCH   1   5
BRANCH   2  15
ATOM     15  C   LIG    1        1.181   3.560   0.010  0.00  0.00    +0.430 C 
ATOM     16  O   LIG    1        0.123   4.163   0.024  0.00  0.00    -0.460 OA
BRANCH  15  17
ATOM     17  C   LIG    1        1.190   2.083   0.002  0.00  0.00    -0.160 A 
ATOM     18  C   LIG    1        2.403   1.391  -0.014  0.00  0.00    +0.070 A 
ATOM     19  C   LIG    1        2.412   0.012  -0.020  0.00  0.00    +0.010 A 
ATOM     20  C   LIG    1        1.214  -0.688  -0.012  0.00  0.00    +0.100 A 
ATOM     21  O   LIG    1        1.216  -2.051  -0.018  0.00  0.00    -0.320 OA
ATOM     22  C   LIG    1        0.752  -2.682   1.176  0.00  0.00    +0.230 C 
ATOM     23  C   LIG    1       -0.764  -2.799   1.171  0.00  0.00    -0.010 C 
ATOM     24  C   LIG    1       -1.450  -1.442   1.200  0.00  0.00    +0.230 C 
ATOM     25  O   LIG    1       -1.168  -0.707   0.008  0.00  0.00    -0.320 OA
ATOM     26  C   LIG    1        0.002  -0.004   0.002  0.00  0.00    +0.050 A 
ATOM     27  C   LIG    1       -0.017   1.376   0.010  0.00  0.00    +0.090 A 
ENDBRANCH  15  17
ENDBRANCH   2  15
TORSDOF 6
