REMARK  Name = ZINCpe00000z9HJa.0
REMARK                            x       y       z     vdW  Elec       q    Type
REMARK                         _______ _______ _______ _____ _____    ______ ____
ROOT
ATOM      1  C   LIG    1        2.347   1.029  -0.050  0.00  0.00    +0.290 C 
ENDROOT
BRANCH   1   2
ATOM      2  N   LIG    1        3.594   1.798  -0.081  0.00  0.00    -0.610 N 
ATOM      3  C   LIG    1        4.294   1.900  -1.228  0.00  0.00    +0.600 C 
ATOM      4  O   LIG    1        3.838   1.447  -2.262  0.00  0.00    -0.550 OA
ATOM      5  C   LIG    1        4.080   2.455   1.135  0.00  0.00    +0.290 C 
BRANCH   3   6
ATOM      6  C   LIG    1        5.604   2.557  -1.231  0.00  0.00    -0.320 A 
ATOM      7  C   LIG    1        6.380   2.876  -2.362  0.00  0.00    +0.170 A 
ATOM      8  C   LIG    1        6.177   2.704  -3.738  0.00  0.00    +0.050 A 
ATOM      9  C   LIG    1        7.132   3.133  -4.612  0.00  0.00    +0.080 A 
ATOM     10  C   LIG    1        8.293   3.743  -4.118  0.00  0.00    +0.000 A 
ATOM     11  C   LIG    1        8.466   3.904  -2.787  0.00  0.00    +0.290 A 
ATOM     12  N   LIG    1        7.518   3.479  -1.906  0.00  0.00    -0.270 N 
ATOM     13  N   LIG    1        7.451   3.523  -0.508  0.00  0.00    -0.320 NA
ATOM     14  C   LIG    1        6.330   2.984  -0.106  0.00  0.00    +0.320 A 
ENDBRANCH   3   6
ENDBRANCH   1   2
BRANCH   1  15
ATOM     15  C   LIG    1        1.172   1.950  -0.385  0.00  0.00    +0.250 C 
BRANCH  15  17
ATOM     16  C   LIG    1       -1.247   1.788  -0.624  0.00  0.00    +0.600 C 
ATOM     17  N   LIG    1       -0.075   1.181  -0.353  0.00  0.00    -0.720 N 
ATOM     18  H   LIG    1       -0.056   0.235  -0.141  0.00  0.00    +0.400 HD
ATOM     19  O   LIG    1       -1.283   2.991  -0.801  0.00  0.00    -0.510 OA
BRANCH  16  22
ATOM     20  C   LIG    1       -3.446   1.472   1.653  0.00  0.00    +0.120 C 
ATOM     21  C   LIG    1       -3.446   0.852   0.279  0.00  0.00    -0.150 A 
ATOM     22  C   LIG    1       -2.484   0.995  -0.706  0.00  0.00    -0.040 A 
ATOM     23  N   LIG    1       -2.911   0.248  -1.767  0.00  0.00    -0.270 N 
ATOM     24  N   LIG    1       -4.033  -0.307  -1.481  0.00  0.00    -0.280 NA
ATOM     25  C   LIG    1       -2.197   0.102  -3.038  0.00  0.00    +0.370 C 
ATOM     26  C   LIG    1       -4.417   0.012  -0.271  0.00  0.00    +0.200 A 
ENDBRANCH  16  22
ENDBRANCH  15  17
ENDBRANCH   1  15
TORSDOF 5
