REMARK  Name = ZINCrg000000rqMF.0
REMARK                            x       y       z     vdW  Elec       q    Type
REMARK                         _______ _______ _______ _____ _____    ______ ____
ROOT
ATOM      1  C   LIG    1        0.858  -1.856   1.400  0.00  0.00    +0.420 A 
ATOM      2  N   LIG    1        0.360  -2.704   0.531  0.00  0.00    -0.340 NA
ATOM      3  N   LIG    1        0.497  -4.080   0.725  0.00  0.00    -0.270 N 
ATOM      4  C   LIG    1        1.157  -4.558   1.830  0.00  0.00    +0.120 A 
ATOM      5  C   LIG    1        1.691  -3.647   2.761  0.00  0.00    +0.190 A 
ATOM      6  N   LIG    1        1.135  -5.881   1.754  0.00  0.00    -0.240 NA
ATOM      7  N   LIG    1        0.511  -6.242   0.688  0.00  0.00    -0.250 NA
ATOM      8  C   LIG    1        0.101  -5.178   0.021  0.00  0.00    +0.240 A 
ATOM      9  C   LIG    1        1.546  -2.313   2.541  0.00  0.00    -0.020 A 
ENDROOT
BRANCH   8  10
ATOM     10  C   LIG    1       -0.651  -5.178  -1.251  0.00  0.00    -0.030 A 
ATOM     11  C   LIG    1       -1.296  -4.019  -1.684  0.00  0.00    +0.080 A 
ATOM     12  C   LIG    1       -1.993  -4.023  -2.874  0.00  0.00    -0.010 A 
ATOM     13  C   LIG    1       -2.061  -5.179  -3.635  0.00  0.00    +0.120 A 
ATOM     14  C   LIG    1       -1.427  -6.335  -3.208  0.00  0.00    +0.000 A 
ATOM     15  F   LIG    1       -2.750  -5.180  -4.798  0.00  0.00    -0.130 F 
ATOM     16  C   LIG    1       -0.724  -6.340  -2.022  0.00  0.00    +0.100 A 
ENDBRANCH   8  10
BRANCH   1  17
ATOM     17  N   LIG    1        0.711  -0.489   1.189  0.00  0.00    -0.680 N 
ATOM     18  H   LIG    1        1.077   0.142   1.827  0.00  0.00    +0.420 HD
BRANCH  17  19
ATOM     19  C   LIG    1        0.002  -0.004   0.002  0.00  0.00    +0.300 C 
BRANCH  19  25
ATOM     20  C   LIG    1        3.484   2.178  -1.214  0.00  0.00    +0.060 C 
ATOM     21  C   LIG    1        2.066   1.604  -1.215  0.00  0.00    +0.140 C 
ATOM     22  C   LIG    1        1.310   2.111  -2.446  0.00  0.00    +0.170 C 
ATOM     23  O   LIG    1       -0.037   1.631  -2.402  0.00  0.00    -0.370 OA
ATOM     24  C   LIG    1       -0.754   2.034  -1.232  0.00  0.00    +0.210 C 
ATOM     25  C   LIG    1       -0.019   1.526   0.010  0.00  0.00    +0.070 C 
ATOM     26  N   LIG    1        1.360   2.035   0.000  0.00  0.00    -0.670 NA
ATOM     27  H   LIG    1        1.375   3.041   0.089  0.00  0.00    +0.360 HD
BRANCH  25  28
ATOM     28  C   LIG    1       -0.737   2.020   1.268  0.00  0.00    +0.210 C 
BRANCH  28  29
ATOM     29  O   LIG    1       -0.755   3.449   1.275  0.00  0.00    -0.570 OA
ATOM     30  H   LIG    1       -1.196   3.833   2.046  0.00  0.00    +0.390 HD
ENDBRANCH  28  29
ENDBRANCH  25  28
ENDBRANCH  19  25
ENDBRANCH  17  19
ENDBRANCH   1  17
TORSDOF 6
