REMARK  Name = ZINCqH0000006G3p.0
REMARK                            x       y       z     vdW  Elec       q    Type
REMARK                         _______ _______ _______ _____ _____    ______ ____
ROOT
ATOM      1  C   LIG    1       -1.302   1.264   5.543  0.00  0.00    +0.220 A 
ATOM      2  C   LIG    1       -2.561   0.688   5.661  0.00  0.00    -0.040 A 
ATOM      3  C   LIG    1       -2.778  -0.331   6.570  0.00  0.00    +0.050 A 
ATOM      4  C   LIG    1       -1.745  -0.782   7.367  0.00  0.00    -0.030 A 
ATOM      5  C   LIG    1       -0.477  -0.210   7.256  0.00  0.00    -0.080 A 
ATOM      6  C   LIG    1       -0.257   0.814   6.335  0.00  0.00    -0.110 A 
ATOM      7  C   LIG    1        1.111   1.433   6.206  0.00  0.00    +0.110 C 
ENDROOT
BRANCH   5   8
ATOM      8  C   LIG    1        0.631  -0.692   8.109  0.00  0.00    +0.580 C 
ATOM      9  N   LIG    1        0.843  -2.015   8.254  0.00  0.00    -0.620 N 
ATOM     10  C   LIG    1        0.119  -3.082   7.547  0.00  0.00    +0.250 C 
ATOM     11  C   LIG    1        0.682  -4.428   8.049  0.00  0.00    +0.030 C 
ATOM     12  C   LIG    1        1.290  -4.056   9.428  0.00  0.00    +0.040 C 
ATOM     13  C   LIG    1        1.835  -2.632   9.153  0.00  0.00    +0.250 C 
ATOM     14  O   LIG    1        1.351   0.105   8.678  0.00  0.00    -0.530 OA
ENDBRANCH   5   8
BRANCH   1  15
ATOM     15  N   LIG    1       -1.088   2.294   4.623  0.00  0.00    -0.740 N 
ATOM     16  H   LIG    1       -0.209   2.696   4.541  0.00  0.00    +0.400 HD
BRANCH  15  17
ATOM     17  C   LIG    1       -2.191   2.765   3.783  0.00  0.00    +0.320 C 
BRANCH  17  23
ATOM     18  C   LIG    1       -0.996   3.563   1.729  0.00  0.00    +0.150 A 
ATOM     19  C   LIG    1       -0.539   4.577   0.905  0.00  0.00    -0.030 A 
ATOM     20  C   LIG    1       -0.798   5.909   1.234  0.00  0.00    +0.020 A 
ATOM     21  C   LIG    1       -1.508   6.209   2.398  0.00  0.00    +0.030 A 
ATOM     22  C   LIG    1       -1.954   5.190   3.215  0.00  0.00    +0.090 A 
ATOM     23  C   LIG    1       -1.701   3.872   2.885  0.00  0.00    -0.110 A 
BRANCH  18  25
ATOM     24  C   LIG    1       -0.020   2.021   0.206  0.00  0.00    +0.250 C 
ATOM     25  O   LIG    1       -0.750   2.265   1.409  0.00  0.00    -0.300 OA
ENDBRANCH  18  25
BRANCH  20  26
ATOM     26  C   LIG    1       -0.333   6.963   0.384  0.00  0.00    +0.250 C 
ATOM     27  N   LIG    1        0.035   7.799  -0.291  0.00  0.00    -0.400 NA
ENDBRANCH  20  26
ENDBRANCH  17  23
ENDBRANCH  15  17
ENDBRANCH   1  15
TORSDOF 6
