REMARK  Name = ZINCrg000000s4p6.0
REMARK                            x       y       z     vdW  Elec       q    Type
REMARK                         _______ _______ _______ _____ _____    ______ ____
ROOT
ATOM      1  C   LIG    1       -0.729   1.579   1.266  0.00  0.00    +0.230 C 
ATOM      2  C   LIG    1        0.025   0.946   0.095  0.00  0.00    +0.050 C 
ENDROOT
BRANCH   1   3
ATOM      3  C   LIG    1       -2.176   1.161   1.218  0.00  0.00    +0.520 C 
ATOM      4  N   LIG    1       -2.538  -0.064   1.648  0.00  0.00    -0.610 N 
ATOM      5  C   LIG    1       -1.556  -0.969   2.264  0.00  0.00    +0.300 C 
ATOM      6  C   LIG    1       -2.129  -1.464   3.601  0.00  0.00    +0.210 C 
ATOM      7  N   LIG    1       -3.456  -2.052   3.372  0.00  0.00    -0.460 N 
ATOM      8  C   LIG    1       -4.404  -1.048   2.871  0.00  0.00    +0.220 C 
ATOM      9  C   LIG    1       -3.925  -0.533   1.509  0.00  0.00    +0.300 C 
ATOM     10  O   LIG    1       -3.014   1.927   0.792  0.00  0.00    -0.530 OA
BRANCH   7  11
ATOM     11  C   LIG    1       -3.936  -2.658   4.520  0.00  0.00    +0.490 A 
ATOM     12  N   LIG    1       -5.111  -2.284   5.005  0.00  0.00    -0.550 NA
ATOM     13  C   LIG    1       -5.600  -2.847   6.098  0.00  0.00    +0.340 A 
ATOM     14  C   LIG    1       -4.863  -3.829   6.741  0.00  0.00    -0.110 A 
ATOM     15  C   LIG    1       -3.636  -4.191   6.209  0.00  0.00    +0.350 A 
ATOM     16  N   LIG    1       -3.207  -3.593   5.111  0.00  0.00    -0.530 NA
ENDBRANCH   7  11
ENDBRANCH   1   3
BRANCH   1  17
ATOM     17  N   LIG    1       -0.639   3.038   1.173  0.00  0.00    -0.730 N 
ATOM     18  H   LIG    1       -1.349   3.542   0.745  0.00  0.00    +0.410 HD
BRANCH  17  22
ATOM     19  C   LIG    1        1.736   7.255   2.031  0.00  0.00    +0.090 C 
ATOM     20  C   LIG    1        1.651   5.753   2.131  0.00  0.00    -0.040 A 
ATOM     21  C   LIG    1        0.556   5.090   1.612  0.00  0.00    -0.040 A 
ATOM     22  C   LIG    1        0.470   3.705   1.700  0.00  0.00    +0.220 A 
ATOM     23  C   LIG    1        1.483   2.986   2.317  0.00  0.00    -0.020 A 
ATOM     24  C   LIG    1        2.591   3.656   2.836  0.00  0.00    -0.090 A 
ATOM     25  C   LIG    1        2.667   5.046   2.742  0.00  0.00    -0.020 A 
BRANCH  24  26
ATOM     26  C   LIG    1        3.678   2.896   3.490  0.00  0.00    +0.560 C 
ATOM     27  O   LIG    1        3.610   1.685   3.570  0.00  0.00    -0.540 OA
ATOM     28  N   LIG    1        4.744   3.546   3.996  0.00  0.00    -0.850 N 
ATOM     29  H   LIG    1        5.457   3.047   4.425  0.00  0.00    +0.410 HD
ATOM     30  H   LIG    1        4.799   4.512   3.932  0.00  0.00    +0.400 HD
ENDBRANCH  24  26
ENDBRANCH  17  22
ENDBRANCH   1  17
TORSDOF 5
