REMARK  Name = ZINCrD000000BplG.0
REMARK                            x       y       z     vdW  Elec       q    Type
REMARK                         _______ _______ _______ _____ _____    ______ ____
ROOT
ATOM      1  O   LIG    1       -4.838   5.132  -0.629  0.00  0.00    -0.510 OA
ATOM      2  C   LIG    1       -4.157   4.754  -1.561  0.00  0.00    +0.600 C 
ATOM      3  N   LIG    1       -2.997   4.109  -1.329  0.00  0.00    -0.710 N 
ATOM      4  H   LIG    1       -2.453   3.807  -2.073  0.00  0.00    +0.410 HD
ENDROOT
BRANCH   2   5
ATOM      5  C   LIG    1       -4.603   5.001  -2.954  0.00  0.00    -0.020 A 
ATOM      6  N   LIG    1       -3.978   4.652  -4.053  0.00  0.00    -0.330 NA
ATOM      7  O   LIG    1       -4.585   4.989  -5.042  0.00  0.00    +0.140 OA
ATOM      8  C   LIG    1       -5.729   5.626  -4.731  0.00  0.00    +0.050 A 
ATOM      9  C   LIG    1       -5.792   5.655  -3.361  0.00  0.00    +0.020 A 
BRANCH   8  10
ATOM     10  C   LIG    1       -6.717   6.174  -5.672  0.00  0.00    -0.160 A 
ATOM     11  C   LIG    1       -6.622   6.127  -7.030  0.00  0.00    +0.060 A 
ATOM     12  C   LIG    1       -7.680   6.707  -7.695  0.00  0.00    +0.010 A 
ATOM     13  C   LIG    1       -8.626   7.234  -6.910  0.00  0.00    -0.030 A 
ATOM     14  S   LIG    1       -8.202   7.000  -5.220  0.00  0.00    +0.180 S 
ENDBRANCH   8  10
ENDBRANCH   2   5
BRANCH   3  15
ATOM     15  C   LIG    1       -2.556   3.865   0.047  0.00  0.00    +0.340 C 
BRANCH  15  16
ATOM     16  C   LIG    1       -1.239   3.133   0.030  0.00  0.00    -0.080 A 
ATOM     17  C   LIG    1       -1.218   1.751   0.017  0.00  0.00    +0.030 A 
ATOM     18  C   LIG    1       -0.013   1.076   0.008  0.00  0.00    +0.010 A 
ATOM     19  C   LIG    1        1.179   1.787   0.000  0.00  0.00    +0.060 A 
ATOM     20  C   LIG    1        1.156   3.178   0.008  0.00  0.00    +0.130 A 
ATOM     21  F   LIG    1        2.314   3.874  -0.000  0.00  0.00    -0.120 F 
ATOM     22  C   LIG    1       -0.054   3.846   0.022  0.00  0.00    +0.010 A 
BRANCH  19  23
ATOM     23  N   LIG    1        2.401   1.106  -0.015  0.00  0.00    -0.500 N 
ATOM     24  C   LIG    1        2.553   0.324  -1.250  0.00  0.00    +0.160 C 
ATOM     25  C   LIG    1        3.925  -0.355  -1.253  0.00  0.00    +0.220 C 
ATOM     26  O   LIG    1        4.053  -1.164  -0.080  0.00  0.00    -0.380 OA
ATOM     27  C   LIG    1        3.911  -0.434   1.141  0.00  0.00    +0.220 C 
ATOM     28  C   LIG    1        2.539   0.244   1.168  0.00  0.00    +0.160 C 
ENDBRANCH  19  23
ENDBRANCH  15  16
ENDBRANCH   3  15
TORSDOF 5
