REMARK  Name = ZINCqH0000005imZ.0
REMARK                            x       y       z     vdW  Elec       q    Type
REMARK                         _______ _______ _______ _____ _____    ______ ____
ROOT
ATOM      1  C   LIG    1        4.115   3.730  -0.388  0.00  0.00    +0.280 C 
ATOM      2  N   LIG    1        5.566   3.559  -0.493  0.00  0.00    -0.610 N 
ATOM      3  C   LIG    1        6.305   4.468  -1.159  0.00  0.00    +0.560 C 
ATOM      4  O   LIG    1        7.497   4.287  -1.314  0.00  0.00    -0.500 OA
ENDROOT
BRANCH   3   5
ATOM      5  C   LIG    1        5.667   5.684  -1.701  0.00  0.00    -0.100 A 
ATOM      6  C   LIG    1        4.498   5.584  -2.459  0.00  0.00    +0.070 A 
ATOM      7  C   LIG    1        3.906   6.724  -2.963  0.00  0.00    +0.070 A 
ATOM      8  C   LIG    1        4.471   7.969  -2.718  0.00  0.00    +0.110 A 
ATOM      9  C   LIG    1        5.631   8.074  -1.967  0.00  0.00    +0.050 A 
ATOM     10  F   LIG    1        3.888   9.082  -3.214  0.00  0.00    -0.110 F 
ATOM     11  F   LIG    1        2.776   6.630  -3.696  0.00  0.00    -0.120 F 
ATOM     12  C   LIG    1        6.231   6.940  -1.458  0.00  0.00    +0.020 A 
ATOM     13 CL   LIG    1        7.684   7.073  -0.518  0.00  0.00    -0.020 Cl
ENDBRANCH   3   5
BRANCH   2  14
ATOM     14  C   LIG    1        6.213   2.399   0.125  0.00  0.00    +0.380 C 
BRANCH  14  15
ATOM     15  C   LIG    1        6.539   2.712   1.562  0.00  0.00    -0.070 A 
ATOM     16  C   LIG    1        6.135   3.911   2.117  0.00  0.00    +0.010 A 
ATOM     17  C   LIG    1        6.434   4.199   3.436  0.00  0.00    +0.000 A 
ATOM     18  C   LIG    1        7.138   3.290   4.204  0.00  0.00    +0.010 A 
ATOM     19  C   LIG    1        7.544   2.089   3.655  0.00  0.00    -0.020 A 
ATOM     20  C   LIG    1        7.241   1.794   2.332  0.00  0.00    +0.090 A 
BRANCH  20  21
ATOM     21  N   LIG    1        7.646   0.578   1.776  0.00  0.00    -0.500 N 
ATOM     22  C   LIG    1        6.938  -0.549   2.399  0.00  0.00    +0.160 C 
ATOM     23  C   LIG    1        7.367  -1.852   1.720  0.00  0.00    +0.220 C 
ATOM     24  O   LIG    1        8.788  -1.988   1.814  0.00  0.00    -0.380 OA
ATOM     25  C   LIG    1        9.509  -0.907   1.216  0.00  0.00    +0.220 C 
ATOM     26  C   LIG    1        9.102   0.406   1.890  0.00  0.00    +0.160 C 
ENDBRANCH  20  21
ENDBRANCH  14  15
ENDBRANCH   2  14
TORSDOF 4
