REMARK  Name = ZINCqH0000051CSl.0
REMARK                            x       y       z     vdW  Elec       q    Type
REMARK                         _______ _______ _______ _____ _____    ______ ____
ROOT
ATOM      1  O   LIG    1       -0.643   1.086  -3.541  0.00  0.00    -0.520 OA
ATOM      2  C   LIG    1       -0.254   1.974  -2.808  0.00  0.00    +0.550 C 
ATOM      3  N   LIG    1        0.394   1.669  -1.666  0.00  0.00    -0.600 N 
ATOM      4  C   LIG    1        0.744   2.760  -0.735  0.00  0.00    +0.260 C 
ATOM      5  C   LIG    1        0.489   2.353   0.725  0.00  0.00    +0.030 C 
ATOM      6  C   LIG    1       -0.799   1.565   0.815  0.00  0.00    +0.180 C 
ATOM      7  N   LIG    1       -0.497   0.139   0.697  0.00  0.00    -0.560 NA
ATOM      8  C   LIG    1       -0.437  -0.383  -0.616  0.00  0.00    +0.200 C 
ATOM      9  C   LIG    1        0.720   0.283  -1.398  0.00  0.00    +0.290 C 
ENDROOT
BRANCH   2  10
ATOM     10  C   LIG    1       -0.491   3.388  -3.168  0.00  0.00    -0.100 A 
ATOM     11  C   LIG    1        0.475   4.355  -2.886  0.00  0.00    +0.040 A 
ATOM     12  C   LIG    1        0.248   5.673  -3.224  0.00  0.00    +0.040 A 
ATOM     13  C   LIG    1       -0.933   6.039  -3.842  0.00  0.00    +0.010 A 
ATOM     14  C   LIG    1       -1.898   5.085  -4.126  0.00  0.00    +0.100 A 
ATOM     15  F   LIG    1       -3.050   5.449  -4.730  0.00  0.00    -0.130 F 
ATOM     16  C   LIG    1       -1.680   3.761  -3.797  0.00  0.00    +0.040 A 
ENDBRANCH   2  10
BRANCH   7  17
ATOM     17  C   LIG    1       -1.394  -0.661   1.542  0.00  0.00    +0.260 C 
BRANCH  17  18
ATOM     18  C   LIG    1       -2.833  -0.507   1.046  0.00  0.00    +0.150 C 
BRANCH  18  19
ATOM     19  O   LIG    1       -2.960  -1.113  -0.243  0.00  0.00    -0.290 OA
BRANCH  19  20
ATOM     20  C   LIG    1       -4.185  -1.064  -0.830  0.00  0.00    +0.140 A 
ATOM     21  C   LIG    1       -5.243  -0.446  -0.179  0.00  0.00    -0.070 A 
ATOM     22  C   LIG    1       -6.487  -0.398  -0.778  0.00  0.00    +0.050 A 
ATOM     23  C   LIG    1       -6.679  -0.965  -2.024  0.00  0.00    -0.020 A 
ATOM     24  C   LIG    1       -5.627  -1.581  -2.675  0.00  0.00    +0.070 A 
ATOM     25  C   LIG    1       -4.379  -1.627  -2.084  0.00  0.00    -0.070 A 
ATOM     26 CL   LIG    1       -3.056  -2.394  -2.905  0.00  0.00    -0.050 Cl
ENDBRANCH  19  20
ENDBRANCH  18  19
ENDBRANCH  17  18
ENDBRANCH   7  17
TORSDOF 5
