REMARK  Name = ZINCqH0000034qWk.0
REMARK                            x       y       z     vdW  Elec       q    Type
REMARK                         _______ _______ _______ _____ _____    ______ ____
ROOT
ATOM      1  C   LIG    1       -0.742   6.216   1.204  0.00  0.00    +0.280 C 
ATOM      2  N   LIG    1       -1.356   5.469   2.305  0.00  0.00    -0.630 N 
ATOM      3  C   LIG    1       -1.337   4.122   2.297  0.00  0.00    +0.710 C 
ATOM      4  N   LIG    1       -0.754   3.461   1.277  0.00  0.00    -0.750 N 
ATOM      5  H   LIG    1       -0.348   3.956   0.548  0.00  0.00    +0.390 HD
ATOM      6  O   LIG    1       -1.847   3.502   3.211  0.00  0.00    -0.580 OA
ENDROOT
BRANCH   2   7
ATOM      7  C   LIG    1       -1.989   6.187   3.413  0.00  0.00    +0.260 C 
ATOM      8  C   LIG    1       -3.129   7.054   2.874  0.00  0.00    -0.010 C 
ATOM      9  C   LIG    1       -4.033   7.485   4.031  0.00  0.00    +0.020 C 
ATOM     10  C   LIG    1       -4.293   6.289   4.949  0.00  0.00    +0.010 C 
ATOM     11  C   LIG    1       -3.627   6.532   6.305  0.00  0.00    +0.000 C 
ATOM     12  C   LIG    1       -2.118   6.312   6.178  0.00  0.00    +0.010 C 
ATOM     13  C   LIG    1       -1.485   7.512   5.470  0.00  0.00    +0.020 C 
ATOM     14  C   LIG    1       -0.953   7.077   4.103  0.00  0.00    -0.010 C 
ENDBRANCH   2   7
BRANCH   4  15
ATOM     15  C   LIG    1       -0.735   1.996   1.269  0.00  0.00    +0.310 C 
BRANCH  15  16
ATOM     16  C   LIG    1       -0.018   1.503   0.010  0.00  0.00    +0.050 C 
BRANCH  16  17
ATOM     17  C   LIG    1        0.002  -0.004   0.002  0.00  0.00    +0.530 C 
ATOM     18  N   LIG    1        0.585  -0.664  -1.018  0.00  0.00    -0.620 N 
ATOM     19  C   LIG    1        0.621  -2.135  -1.042  0.00  0.00    +0.300 C 
ATOM     20  C   LIG    1       -0.216  -2.618  -2.237  0.00  0.00    +0.110 C 
ATOM     21  C   LIG    1        0.141  -1.795  -3.456  0.00  0.00    -0.170 A 
ATOM     22  C   LIG    1        0.766  -0.602  -3.429  0.00  0.00    -0.130 A 
ATOM     23  C   LIG    1        0.969  -0.046  -4.689  0.00  0.00    +0.020 A 
ATOM     24  C   LIG    1        0.526  -0.767  -5.714  0.00  0.00    -0.040 A 
ATOM     25  S   LIG    1       -0.204  -2.251  -5.120  0.00  0.00    +0.110 S 
ATOM     26  C   LIG    1        1.207   0.066  -2.132  0.00  0.00    +0.360 C 
ATOM     27  O   LIG    1       -0.506  -0.622   0.913  0.00  0.00    -0.530 OA
ENDBRANCH  16  17
ENDBRANCH  15  16
ENDBRANCH   4  15
TORSDOF 4
