REMARK  Name = ZINCkj000005lGuB.1
REMARK                            x       y       z     vdW  Elec       q    Type
REMARK                         _______ _______ _______ _____ _____    ______ ____
ROOT
ATOM      1  O   LIG    1       -3.240   2.666  -2.381  0.00  0.00    -0.520 OA
ATOM      2  C   LIG    1       -2.290   2.913  -3.093  0.00  0.00    +0.510 C 
ATOM      3  N   LIG    1       -2.266   2.464  -4.364  0.00  0.00    -0.690 N 
ATOM      4  H   LIG    1       -1.477   2.599  -4.911  0.00  0.00    +0.410 HD
ENDROOT
BRANCH   2   5
ATOM      5  C   LIG    1       -1.137   3.721  -2.558  0.00  0.00    +0.150 C 
ATOM      6  C   LIG    1       -1.487   5.221  -2.562  0.00  0.00    +0.100 C 
ATOM      7  C   LIG    1       -1.521   5.625  -1.062  0.00  0.00    +0.080 C 
ATOM      8  C   LIG    1       -1.748   4.270  -0.371  0.00  0.00    +0.180 C 
ATOM      9  C   LIG    1       -1.258   4.230   1.071  0.00  0.00    +0.070 C 
ATOM     10  C   LIG    1       -1.459   2.796   1.585  0.00  0.00    +0.040 C 
ATOM     11  C   LIG    1       -0.751   1.794   0.673  0.00  0.00    +0.060 C 
ATOM     12  C   LIG    1       -1.181   1.990  -0.788  0.00  0.00    +0.250 C 
ATOM     13  N   LIG    1       -0.875   3.363  -1.162  0.00  0.00    -0.370 N 
ATOM     14  H   LIG    1        0.091   3.560  -0.945  0.00  0.00    +0.420 HD
ENDBRANCH   2   5
BRANCH   3  15
ATOM     15  C   LIG    1       -3.432   1.772  -4.918  0.00  0.00    +0.180 C 
ATOM     16  C   LIG    1       -3.169   1.439  -6.384  0.00  0.00    +0.070 C 
ATOM     17  C   LIG    1       -2.667   2.683  -7.121  0.00  0.00    +0.110 C 
ATOM     18  S   LIG    1       -3.971   3.949  -7.089  0.00  0.00    -0.240 S 
ATOM     19  C   LIG    1       -4.348   4.068  -5.315  0.00  0.00    +0.100 C 
ATOM     20  C   LIG    1       -4.660   2.667  -4.781  0.00  0.00    +0.060 C 
BRANCH  15  21
ATOM     21  C   LIG    1       -3.665   0.475  -4.141  0.00  0.00    +0.190 C 
BRANCH  21  22
ATOM     22  O   LIG    1       -2.467  -0.305  -4.145  0.00  0.00    -0.570 OA
ATOM     23  H   LIG    1       -2.542  -1.143  -3.670  0.00  0.00    +0.390 HD
ENDBRANCH  21  22
ENDBRANCH  15  21
ENDBRANCH   3  15
TORSDOF 4
