REMARK  Name = ZINCkj000005lGuB.0
REMARK                            x       y       z     vdW  Elec       q    Type
REMARK                         _______ _______ _______ _____ _____    ______ ____
ROOT
ATOM      1  O   LIG    1        1.934   0.781   1.718  0.00  0.00    -0.520 OA
ATOM      2  C   LIG    1        2.249   1.619   0.900  0.00  0.00    +0.520 C 
ATOM      3  N   LIG    1        1.361   2.020  -0.031  0.00  0.00    -0.680 N 
ATOM      4  H   LIG    1        1.635   2.636  -0.729  0.00  0.00    +0.410 HD
ENDROOT
BRANCH   2   5
ATOM      5  C   LIG    1        3.634   2.213   0.926  0.00  0.00    +0.160 C 
ATOM      6  C   LIG    1        3.559   3.741   1.173  0.00  0.00    +0.100 C 
ATOM      7  C   LIG    1        4.950   4.015   1.818  0.00  0.00    +0.090 C 
ATOM      8  C   LIG    1        5.123   2.760   2.690  0.00  0.00    +0.130 C 
ATOM      9  C   LIG    1        6.506   2.583   3.222  0.00  0.00    +0.080 C 
ATOM     10  C   LIG    1        7.297   1.509   2.476  0.00  0.00    +0.050 C 
ATOM     11  C   LIG    1        6.421   0.248   2.432  0.00  0.00    +0.060 C 
ATOM     12  C   LIG    1        5.202   0.555   1.574  0.00  0.00    +0.230 C 
ATOM     13  N   LIG    1        4.410   1.667   2.077  0.00  0.00    -0.350 N 
ATOM     14  H   LIG    1        3.755   1.298   2.750  0.00  0.00    +0.430 HD
ENDBRANCH   2   5
BRANCH   3  15
ATOM     15  C   LIG    1       -0.018   1.527   0.011  0.00  0.00    +0.180 C 
ATOM     16  C   LIG    1       -0.814   2.163  -1.124  0.00  0.00    +0.070 C 
ATOM     17  C   LIG    1       -0.050   2.020  -2.442  0.00  0.00    +0.110 C 
ATOM     18  S   LIG    1        0.117   0.253  -2.834  0.00  0.00    -0.240 S 
ATOM     19  C   LIG    1        0.855  -0.411  -1.312  0.00  0.00    +0.100 C 
ATOM     20  C   LIG    1       -0.011   0.007  -0.120  0.00  0.00    +0.060 C 
BRANCH  15  21
ATOM     21  C   LIG    1       -0.650   1.914   1.350  0.00  0.00    +0.200 C 
BRANCH  21  22
ATOM     22  O   LIG    1       -0.533   3.325   1.542  0.00  0.00    -0.570 OA
ATOM     23  H   LIG    1       -0.914   3.642   2.372  0.00  0.00    +0.390 HD
ENDBRANCH  21  22
ENDBRANCH  15  21
ENDBRANCH   3  15
TORSDOF 4
