REMARK  Name = ZINCrH000004lUMy.0
REMARK                            x       y       z     vdW  Elec       q    Type
REMARK                         _______ _______ _______ _____ _____    ______ ____
ROOT
ATOM      1  C   LIG    1        0.776   5.043  -1.603  0.00  0.00    +0.600 C 
ATOM      2  N   LIG    1        0.961   3.720  -1.419  0.00  0.00    -0.610 N 
ATOM      3  C   LIG    1        1.898   3.223  -0.400  0.00  0.00    +0.300 C 
ATOM      4  C   LIG    1        2.842   2.212  -1.059  0.00  0.00    +0.210 C 
ATOM      5  N   LIG    1        2.050   1.175  -1.733  0.00  0.00    -0.480 N 
ATOM      6  C   LIG    1        1.240   1.744  -2.819  0.00  0.00    +0.200 C 
ATOM      7  C   LIG    1        0.230   2.736  -2.232  0.00  0.00    +0.290 C 
ATOM      8  O   LIG    1        1.334   5.842  -0.873  0.00  0.00    -0.520 OA
ENDROOT
BRANCH   5   9
ATOM      9  C   LIG    1        2.865   0.152  -2.204  0.00  0.00    +0.310 A 
ATOM     10  C   LIG    1        2.299  -0.928  -2.874  0.00  0.00    -0.050 A 
ATOM     11  C   LIG    1        3.123  -1.938  -3.337  0.00  0.00    +0.090 A 
ATOM     12  C   LIG    1        4.489  -1.835  -3.114  0.00  0.00    -0.060 A 
ATOM     13  C   LIG    1        4.983  -0.735  -2.441  0.00  0.00    +0.290 A 
ATOM     14  N   LIG    1        4.174   0.217  -2.015  0.00  0.00    -0.520 NA
ENDBRANCH   5   9
BRANCH   1  16
ATOM     15  C   LIG    1        0.262   6.475  -3.555  0.00  0.00    +0.190 A 
ATOM     16  C   LIG    1       -0.066   5.502  -2.645  0.00  0.00    -0.320 A 
ATOM     17  S   LIG    1       -1.694   4.919  -2.964  0.00  0.00    +0.210 S 
ATOM     18  C   LIG    1       -1.861   6.016  -4.327  0.00  0.00    -0.100 A 
ATOM     19  C   LIG    1       -0.722   6.748  -4.476  0.00  0.00    -0.040 A 
BRANCH  18  20
ATOM     20  C   LIG    1       -3.060   6.127  -5.185  0.00  0.00    -0.030 A 
ATOM     21  C   LIG    1       -3.084   7.041  -6.240  0.00  0.00    +0.040 A 
ATOM     22  C   LIG    1       -4.204   7.136  -7.040  0.00  0.00    +0.010 A 
ATOM     23  C   LIG    1       -5.305   6.336  -6.792  0.00  0.00    +0.020 A 
ATOM     24  C   LIG    1       -5.290   5.433  -5.744  0.00  0.00    +0.020 A 
ATOM     25  C   LIG    1       -4.174   5.324  -4.940  0.00  0.00    +0.020 A 
ENDBRANCH  18  20
BRANCH  15  27
ATOM     26  C   LIG    1        1.671   8.107  -4.555  0.00  0.00    +0.250 C 
ATOM     27  O   LIG    1        1.460   7.114  -3.550  0.00  0.00    -0.290 OA
ENDBRANCH  15  27
ENDBRANCH   1  16
TORSDOF 4
