REMARK  Name = ZINCrD000000C7ZL.0
REMARK                            x       y       z     vdW  Elec       q    Type
REMARK                         _______ _______ _______ _____ _____    ______ ____
ROOT
ATOM      1  O   LIG    1        3.887  -1.628   1.075  0.00  0.00    -0.500 OA
ATOM      2  C   LIG    1        3.787  -0.537   0.548  0.00  0.00    +0.560 C 
ATOM      3  N   LIG    1        4.858   0.026  -0.045  0.00  0.00    -0.670 N 
ATOM      4  H   LIG    1        4.763   0.865  -0.523  0.00  0.00    +0.410 HD
ENDROOT
BRANCH   2   5
ATOM      5  C   LIG    1        2.492   0.171   0.557  0.00  0.00    -0.160 A 
ATOM      6  C   LIG    1        2.373   1.424  -0.047  0.00  0.00    +0.090 A 
ATOM      7  C   LIG    1        1.161   2.080  -0.035  0.00  0.00    -0.010 A 
ATOM      8  C   LIG    1        0.059   1.502   0.574  0.00  0.00    +0.090 A 
ATOM      9  C   LIG    1        0.163   0.263   1.175  0.00  0.00    -0.060 A 
ATOM     10  C   LIG    1        1.375  -0.411   1.172  0.00  0.00    +0.170 A 
BRANCH  10  11
ATOM     11  O   LIG    1        1.478  -1.629   1.761  0.00  0.00    -0.290 OA
BRANCH  11  12
ATOM     12  C   LIG    1        0.298  -2.159   2.368  0.00  0.00    +0.600 C 
ATOM     13  F   LIG    1       -0.703  -2.294   1.399  0.00  0.00    -0.200 F 
ATOM     14  F   LIG    1       -0.140  -1.290   3.373  0.00  0.00    -0.200 F 
ENDBRANCH  11  12
ENDBRANCH  10  11
ENDBRANCH   2   5
BRANCH   3  15
ATOM     15  C   LIG    1        6.107  -0.598   0.030  0.00  0.00    +0.130 A 
ATOM     16  C   LIG    1        6.194  -1.984   0.016  0.00  0.00    +0.090 A 
ATOM     17  C   LIG    1        7.429  -2.598   0.090  0.00  0.00    +0.020 A 
ATOM     18  C   LIG    1        8.579  -1.834   0.178  0.00  0.00    +0.110 A 
ATOM     19  C   LIG    1        8.495  -0.454   0.193  0.00  0.00    -0.660 A 
ATOM     20  C   LIG    1        7.264   0.166   0.114  0.00  0.00    +0.090 A 
BRANCH  19  21
ATOM     21  S   LIG    1        9.963   0.515   0.305  0.00  0.00    +2.710 S 
ATOM     22  O   LIG    1       10.947  -0.316   0.905  0.00  0.00    -0.950 OA
ATOM     23  O   LIG    1        9.574   1.772   0.843  0.00  0.00    -0.950 OA
BRANCH  21  24
ATOM     24  N   LIG    1       10.477   0.807  -1.241  0.00  0.00    -1.010 NA
ATOM     25  C   LIG    1       11.405  -0.036  -2.010  0.00  0.00    +0.270 C 
ATOM     26  C   LIG    1       11.610   0.641  -3.381  0.00  0.00    +0.030 C 
ATOM     27  C   LIG    1       11.238   2.120  -3.096  0.00  0.00    +0.030 C 
ATOM     28  C   LIG    1       10.086   1.960  -2.074  0.00  0.00    +0.270 C 
ENDBRANCH  21  24
ENDBRANCH  19  21
ENDBRANCH   3  15
TORSDOF 6
