REMARK  Name = ZINCkj000005g2Y0.0
REMARK                            x       y       z     vdW  Elec       q    Type
REMARK                         _______ _______ _______ _____ _____    ______ ____
ROOT
ATOM      1  N   LIG    1       -0.721   1.571  -1.179  0.00  0.00    -0.760 N 
ATOM      2  H   LIG    1       -1.516   2.118  -1.079  0.00  0.00    +0.390 HD
ATOM      3  C   LIG    1       -0.268   1.258  -2.409  0.00  0.00    +0.510 C 
ATOM      4  O   LIG    1        0.726   0.575  -2.534  0.00  0.00    -0.500 OA
ENDROOT
BRANCH   1   5
ATOM      5  C   LIG    1       -0.013   1.086   0.008  0.00  0.00    +0.300 C 
BRANCH   5   9
ATOM      6  N   LIG    1       -2.151   1.179   1.339  0.00  0.00    -0.420 N 
ATOM      7  C   LIG    1       -2.014   0.885   2.785  0.00  0.00    +0.300 C 
ATOM      8  C   LIG    1       -0.516   0.677   2.495  0.00  0.00    +0.100 C 
ATOM      9  C   LIG    1       -0.729   1.579   1.267  0.00  0.00    +0.200 C 
ATOM     10  H   LIG    1       -2.358   0.359   0.788  0.00  0.00    +0.430 HD
BRANCH   6  12
ATOM     11  C   LIG    1       -4.510   1.763   1.036  0.00  0.00    +0.080 C 
ATOM     12  C   LIG    1       -3.074   2.289   1.063  0.00  0.00    +0.240 C 
ENDBRANCH   6  12
ENDBRANCH   5   9
ENDBRANCH   1   5
BRANCH   3  13
ATOM     13  C   LIG    1       -0.997   1.758  -3.630  0.00  0.00    +0.150 C 
BRANCH  13  14
ATOM     14  C   LIG    1       -0.292   1.272  -4.870  0.00  0.00    -0.180 A 
ATOM     15  C   LIG    1        0.629   1.945  -5.582  0.00  0.00    +0.280 A 
ATOM     16  N   LIG    1        1.046   1.187  -6.641  0.00  0.00    -0.580 N 
ATOM     17  H   LIG    1        1.706   1.461  -7.296  0.00  0.00    +0.420 HD
ATOM     18  C   LIG    1        0.390  -0.022  -6.638  0.00  0.00    +0.040 A 
ATOM     19  C   LIG    1        0.418  -1.146  -7.453  0.00  0.00    +0.280 A 
ATOM     20  N   LIG    1       -0.351  -2.181  -7.184  0.00  0.00    -0.470 NA
ATOM     21  C   LIG    1       -1.174  -2.207  -6.148  0.00  0.00    +0.220 A 
ATOM     22  C   LIG    1       -1.270  -1.147  -5.291  0.00  0.00    +0.000 A 
ATOM     23  C   LIG    1       -0.473  -0.022  -5.522  0.00  0.00    -0.060 A 
ENDBRANCH  13  14
ENDBRANCH   3  13
TORSDOF 5
