REMARK  Name = ZINCkj000005g2Y0.1
REMARK                            x       y       z     vdW  Elec       q    Type
REMARK                         _______ _______ _______ _____ _____    ______ ____
ROOT
ATOM      1  N   LIG    1       -3.178   1.225  -1.918  0.00  0.00    -0.750 N 
ATOM      2  H   LIG    1       -3.190   2.192  -1.995  0.00  0.00    +0.400 HD
ATOM      3  C   LIG    1       -4.277   0.510  -2.229  0.00  0.00    +0.510 C 
ATOM      4  O   LIG    1       -4.261  -0.699  -2.132  0.00  0.00    -0.500 OA
ENDROOT
BRANCH   1   5
ATOM      5  C   LIG    1       -1.964   0.542  -1.463  0.00  0.00    +0.310 C 
BRANCH   5   9
ATOM      6  N   LIG    1       -1.123   2.130   0.305  0.00  0.00    -0.410 N 
ATOM      7  C   LIG    1       -0.284   1.058   0.889  0.00  0.00    +0.300 C 
ATOM      8  C   LIG    1        0.380   0.968  -0.497  0.00  0.00    +0.100 C 
ATOM      9  C   LIG    1       -0.918   1.581  -1.053  0.00  0.00    +0.190 C 
ATOM     10  H   LIG    1       -0.723   3.049   0.423  0.00  0.00    +0.440 HD
BRANCH   6  12
ATOM     11  C   LIG    1       -2.668   2.768   2.096  0.00  0.00    +0.080 C 
ATOM     12  C   LIG    1       -2.524   2.067   0.744  0.00  0.00    +0.230 C 
ENDBRANCH   6  12
ENDBRANCH   5   9
ENDBRANCH   1   5
BRANCH   3  13
ATOM     13  C   LIG    1       -5.525   1.212  -2.697  0.00  0.00    +0.150 C 
BRANCH  13  14
ATOM     14  C   LIG    1       -6.600   0.193  -2.977  0.00  0.00    -0.180 A 
ATOM     15  C   LIG    1       -6.894  -0.352  -4.171  0.00  0.00    +0.280 A 
ATOM     16  N   LIG    1       -7.926  -1.238  -4.038  0.00  0.00    -0.580 N 
ATOM     17  H   LIG    1       -8.312  -1.756  -4.761  0.00  0.00    +0.420 HD
ATOM     18  C   LIG    1       -8.339  -1.283  -2.727  0.00  0.00    +0.040 A 
ATOM     19  C   LIG    1       -9.321  -1.983  -2.039  0.00  0.00    +0.280 A 
ATOM     20  N   LIG    1       -9.479  -1.806  -0.743  0.00  0.00    -0.470 NA
ATOM     21  C   LIG    1       -8.729  -0.973  -0.042  0.00  0.00    +0.220 A 
ATOM     22  C   LIG    1       -7.738  -0.240  -0.632  0.00  0.00    +0.000 A 
ATOM     23  C   LIG    1       -7.523  -0.386  -2.006  0.00  0.00    -0.060 A 
ENDBRANCH  13  14
ENDBRANCH   3  13
TORSDOF 5
