REMARK  Name = ZINCrD000000C42v.0
REMARK                            x       y       z     vdW  Elec       q    Type
REMARK                         _______ _______ _______ _____ _____    ______ ____
ROOT
ATOM      1  O   LIG    1        1.101   2.464  -2.059  0.00  0.00    -0.560 OA
ATOM      2  C   LIG    1       -0.083   2.208  -2.173  0.00  0.00    +0.710 C 
ATOM      3  N   LIG    1       -0.732   1.567  -1.181  0.00  0.00    -0.630 N 
ATOM      4  C   LIG    1       -2.186   1.349  -1.245  0.00  0.00    +0.250 C 
ATOM      5  C   LIG    1       -2.805   1.827   0.073  0.00  0.00    +0.220 C 
ATOM      6  O   LIG    1       -2.119   1.212   1.166  0.00  0.00    -0.370 OA
ATOM      7  C   LIG    1       -0.733   1.557   1.256  0.00  0.00    +0.200 C 
ATOM      8  C   LIG    1       -0.009   1.065  -0.002  0.00  0.00    +0.300 C 
ATOM      9  N   LIG    1       -0.745   2.567  -3.291  0.00  0.00    -0.680 N 
ATOM     10  H   LIG    1       -1.703   2.433  -3.351  0.00  0.00    +0.410 HD
ENDROOT
BRANCH   9  11
ATOM     11  C   LIG    1       -0.047   3.132  -4.367  0.00  0.00    +0.170 A 
ATOM     12  C   LIG    1       -0.651   4.105  -5.151  0.00  0.00    +0.000 A 
ATOM     13  C   LIG    1        0.038   4.666  -6.210  0.00  0.00    +0.050 A 
ATOM     14  C   LIG    1        1.328   4.250  -6.500  0.00  0.00    +0.030 A 
ATOM     15  O   LIG    1        1.988   4.808  -7.553  0.00  0.00    -0.310 OA
ATOM     16  C   LIG    1        3.409   4.639  -7.584  0.00  0.00    +0.220 C 
ATOM     17  C   LIG    1        3.724   3.168  -7.281  0.00  0.00    +0.220 C 
ATOM     18  O   LIG    1        3.202   2.856  -5.984  0.00  0.00    -0.300 OA
ATOM     19  C   LIG    1        1.934   3.273  -5.719  0.00  0.00    +0.070 A 
ATOM     20  C   LIG    1        1.245   2.714  -4.654  0.00  0.00    +0.040 A 
ENDBRANCH   9  11
BRANCH   7  21
ATOM     21  C   LIG    1       -0.129   0.904   2.472  0.00  0.00    -0.070 A 
ATOM     22  C   LIG    1       -0.491  -0.385   2.816  0.00  0.00    +0.080 A 
ATOM     23  C   LIG    1        0.066  -0.988   3.928  0.00  0.00    +0.020 A 
ATOM     24  C   LIG    1        0.980  -0.298   4.705  0.00  0.00    +0.080 A 
ATOM     25  C   LIG    1        1.339   0.998   4.363  0.00  0.00    +0.070 A 
ATOM     26  F   LIG    1        2.231   1.674   5.120  0.00  0.00    -0.130 F 
ATOM     27  F   LIG    1        1.521  -0.885   5.795  0.00  0.00    -0.130 F 
ATOM     28  C   LIG    1        0.783   1.597   3.247  0.00  0.00    +0.040 A 
ENDBRANCH   7  21
TORSDOF 2
