REMARK  Name = ZINCrD000006fiuy.0
REMARK                            x       y       z     vdW  Elec       q    Type
REMARK                         _______ _______ _______ _____ _____    ______ ____
ROOT
ATOM      1  C   LIG    1       -0.063   1.162   0.137  0.00  0.00    +0.560 C 
ATOM      2  N   LIG    1       -1.184   1.906   0.213  0.00  0.00    -0.670 N 
ATOM      3  H   LIG    1       -1.122   2.869   0.313  0.00  0.00    +0.410 HD
ATOM      4  O   LIG    1       -0.139  -0.051   0.114  0.00  0.00    -0.510 OA
ENDROOT
BRANCH   2   5
ATOM      5  C   LIG    1       -2.439   1.289   0.146  0.00  0.00    +0.130 A 
ATOM      6  C   LIG    1       -2.631   0.173  -0.658  0.00  0.00    +0.060 A 
ATOM      7  C   LIG    1       -3.866  -0.425  -0.700  0.00  0.00    -0.010 A 
ATOM      8  C   LIG    1       -4.950   0.073   0.044  0.00  0.00    +0.160 A 
ATOM      9  N   LIG    1       -6.118  -0.647  -0.084  0.00  0.00    -0.650 N 
ATOM     10  H   LIG    1       -5.979  -1.481  -0.558  0.00  0.00    +0.400 HD
ATOM     11  C   LIG    1       -7.362  -0.491   0.271  0.00  0.00    +0.530 C 
ATOM     12  C   LIG    1       -7.913   0.538   1.192  0.00  0.00    +0.070 C 
ATOM     13  C   LIG    1       -7.195   1.859   1.053  0.00  0.00    +0.040 C 
ATOM     14  C   LIG    1       -5.820   1.856   1.645  0.00  0.00    +0.080 C 
ATOM     15  O   LIG    1       -8.159  -1.273  -0.202  0.00  0.00    -0.550 OA
ATOM     16  C   LIG    1       -4.762   1.191   0.827  0.00  0.00    -0.090 A 
ATOM     17  C   LIG    1       -3.502   1.788   0.876  0.00  0.00    +0.010 A 
ENDBRANCH   2   5
BRANCH   1  21
ATOM     18  C   LIG    1        3.734   3.057  -0.038  0.00  0.00    +0.170 A 
ATOM     19  C   LIG    1        3.649   1.668  -0.065  0.00  0.00    +0.000 A 
ATOM     20  C   LIG    1        2.420   1.051  -0.008  0.00  0.00    +0.100 A 
ATOM     21  C   LIG    1        1.256   1.821   0.076  0.00  0.00    -0.150 A 
ATOM     22  C   LIG    1        1.345   3.216   0.097  0.00  0.00    +0.060 A 
ATOM     23  C   LIG    1        2.577   3.826   0.045  0.00  0.00    +0.020 A 
BRANCH  18  25
ATOM     24  C   LIG    1        5.235   4.588  -1.058  0.00  0.00    +0.550 C 
ATOM     25  N   LIG    1        4.979   3.679  -0.096  0.00  0.00    -0.570 N 
ATOM     26  C   LIG    1        6.011   3.345   0.888  0.00  0.00    +0.300 C 
ATOM     27  O   LIG    1        4.350   4.935  -1.817  0.00  0.00    -0.520 OA
BRANCH  24  29
ATOM     28  C   LIG    1        6.835   6.056  -2.139  0.00  0.00    +0.160 C 
ATOM     29  C   LIG    1        6.583   5.159  -1.190  0.00  0.00    -0.090 C 
ENDBRANCH  24  29
ENDBRANCH  18  25
ENDBRANCH   1  21
TORSDOF 4
