REMARK  Name = ZINCrg00000AOkNo.0
REMARK                            x       y       z     vdW  Elec       q    Type
REMARK                         _______ _______ _______ _____ _____    ______ ____
ROOT
ATOM      1  N   LIG    1       -0.219  -3.141  -4.366  0.00  0.00    -0.730 N 
ATOM      2  H   LIG    1        0.354  -2.424  -4.680  0.00  0.00    +0.400 HD
ATOM      3  C   LIG    1       -0.393  -3.334  -3.043  0.00  0.00    +0.700 C 
ATOM      4  N   LIG    1        0.228  -2.531  -2.158  0.00  0.00    -0.730 N 
ATOM      5  H   LIG    1        0.801  -1.813  -2.472  0.00  0.00    +0.400 HD
ATOM      6  O   LIG    1       -1.111  -4.233  -2.650  0.00  0.00    -0.570 OA
ENDROOT
BRANCH   4   7
ATOM      7  C   LIG    1        0.039  -2.740  -0.720  0.00  0.00    +0.290 C 
ATOM      8  C   LIG    1        1.244  -2.184   0.038  0.00  0.00    +0.110 C 
ATOM      9  C   LIG    1        1.216  -0.678   0.001  0.00  0.00    -0.130 A 
ATOM     10  C   LIG    1        2.400   0.034  -0.014  0.00  0.00    +0.050 A 
ATOM     11  C   LIG    1        2.377   1.417  -0.014  0.00  0.00    -0.010 A 
ATOM     12  C   LIG    1        1.170   2.091   0.002  0.00  0.00    +0.050 A 
ATOM     13  C   LIG    1       -0.017   1.384   0.010  0.00  0.00    -0.030 A 
ATOM     14  C   LIG    1        0.002  -0.004   0.002  0.00  0.00    +0.170 A 
ATOM     15  N   LIG    1       -1.198  -0.721   0.007  0.00  0.00    -0.550 N 
ATOM     16  C   LIG    1       -2.451  -0.032   0.321  0.00  0.00    +0.300 C 
ATOM     17  C   LIG    1       -1.214  -2.036  -0.272  0.00  0.00    +0.500 C 
ATOM     18  O   LIG    1       -2.248  -2.660  -0.162  0.00  0.00    -0.490 OA
ENDBRANCH   4   7
BRANCH   1  21
ATOM     19  N   LIG    1       -0.689  -4.700  -7.263  0.00  0.00    -0.470 NA
ATOM     20  C   LIG    1       -1.075  -3.379  -6.720  0.00  0.00    +0.190 C 
ATOM     21  C   LIG    1       -0.895  -4.014  -5.329  0.00  0.00    +0.270 C 
ATOM     22  C   LIG    1        0.044  -5.022  -6.016  0.00  0.00    +0.170 C 
BRANCH  19  23
ATOM     23  C   LIG    1        0.236  -4.553  -8.396  0.00  0.00    +0.290 C 
BRANCH  23  28
ATOM     24  C   LIG    1        1.986  -9.114  -9.632  0.00  0.00    +0.220 C 
ATOM     25  C   LIG    1        1.164  -7.852  -9.612  0.00  0.00    +0.190 A 
ATOM     26  N   LIG    1        0.160  -7.588 -10.398  0.00  0.00    -0.490 NA
ATOM     27  C   LIG    1       -0.328  -6.375 -10.082  0.00  0.00    +0.160 A 
ATOM     28  C   LIG    1        0.414  -5.887  -9.075  0.00  0.00    -0.050 A 
ATOM     29  O   LIG    1        1.345  -6.816  -8.781  0.00  0.00    -0.200 OA
ENDBRANCH  23  28
ENDBRANCH  19  23
ENDBRANCH   1  21
TORSDOF 4
