REMARK  Name = ZINCvU00000009RH.0
REMARK                            x       y       z     vdW  Elec       q    Type
REMARK                         _______ _______ _______ _____ _____    ______ ____
ROOT
ATOM      1  N   LIG    1       -0.028   5.285  -0.628  0.00  0.00    -0.640 N 
ATOM      2  H   LIG    1        0.803   5.781  -0.564  0.00  0.00    +0.420 HD
ENDROOT
BRANCH   1   3
ATOM      3  C   LIG    1       -1.237   5.958  -0.643  0.00  0.00    +0.480 A 
ATOM      4  C   LIG    1       -1.283   7.359  -0.435  0.00  0.00    -0.210 A 
ATOM      5  C   LIG    1       -0.206   8.313  -0.198  0.00  0.00    -0.030 A 
ATOM      6  C   LIG    1       -0.611   9.574  -0.051  0.00  0.00    -0.010 A 
ATOM      7  S   LIG    1       -2.353   9.704  -0.196  0.00  0.00    +0.200 S 
ATOM      8  C   LIG    1       -2.533   7.977  -0.467  0.00  0.00    +0.120 A 
ATOM      9  N   LIG    1       -3.624   7.229  -0.680  0.00  0.00    -0.520 NA
ATOM     10  C   LIG    1       -3.530   5.932  -0.862  0.00  0.00    +0.570 A 
ATOM     11  N   LIG    1       -2.370   5.302  -0.846  0.00  0.00    -0.570 NA
BRANCH   5  12
ATOM     12  C   LIG    1        1.219   7.914  -0.122  0.00  0.00    -0.040 A 
ATOM     13  C   LIG    1        1.632   6.973   0.821  0.00  0.00    +0.030 A 
ATOM     14  C   LIG    1        2.959   6.601   0.883  0.00  0.00    +0.040 A 
ATOM     15  C   LIG    1        3.882   7.167   0.020  0.00  0.00    -0.030 A 
ATOM     16  C   LIG    1        3.477   8.105  -0.915  0.00  0.00    +0.040 A 
ATOM     17 CL   LIG    1        5.551   6.699   0.109  0.00  0.00    -0.060 Cl
ATOM     18  C   LIG    1        2.151   8.481  -0.990  0.00  0.00    +0.050 A 
ENDBRANCH   5  12
ENDBRANCH   1   3
BRANCH   1  21
ATOM     19  C   LIG    1       -1.014   1.753  -0.221  0.00  0.00    -0.120 A 
ATOM     20  C   LIG    1       -1.032   3.147  -0.141  0.00  0.00    +0.140 A 
ATOM     21  C   LIG    1       -0.004   3.888  -0.705  0.00  0.00    +0.140 A 
ATOM     22  C   LIG    1        1.047   3.248  -1.346  0.00  0.00    +0.100 A 
ATOM     23  C   LIG    1        1.074   1.855  -1.425  0.00  0.00    -0.110 A 
ATOM     24  C   LIG    1        0.043   1.106  -0.859  0.00  0.00    +0.140 A 
BRANCH  19  25
ATOM     25  C   LIG    1       -2.112   0.964   0.375  0.00  0.00    +0.510 C 
ATOM     26  O   LIG    1       -3.034   1.528   0.930  0.00  0.00    -0.490 OA
BRANCH  25  28
ATOM     27  C   LIG    1       -3.203  -1.091   0.909  0.00  0.00    +0.290 C 
ATOM     28  O   LIG    1       -2.092  -0.381   0.302  0.00  0.00    -0.350 OA
ENDBRANCH  25  28
ENDBRANCH  19  25
BRANCH  23  29
ATOM     29  C   LIG    1        2.193   1.174  -2.107  0.00  0.00    +0.510 C 
ATOM     30  O   LIG    1        3.091   1.826  -2.600  0.00  0.00    -0.500 OA
BRANCH  29  31
ATOM     31  O   LIG    1        2.218  -0.171  -2.183  0.00  0.00    -0.350 OA
ATOM     32  C   LIG    1        3.349  -0.772  -2.869  0.00  0.00    +0.290 C 
ENDBRANCH  29  31
ENDBRANCH  23  29
ENDBRANCH   1  21
TORSDOF 7
