REMARK  Name = ZINCAx00000009NG.0
REMARK                            x       y       z     vdW  Elec       q    Type
REMARK                         _______ _______ _______ _____ _____    ______ ____
ROOT
ATOM      1  C   LIG    1        2.744   4.430  -1.420  0.00  0.00    +0.050 C 
ATOM      2  C   LIG    1        1.819   5.573  -1.751  0.00  0.00    +0.250 C 
ATOM      3  N   LIG    1        1.421   6.386  -0.830  0.00  0.00    -0.500 NA
ATOM      4  C   LIG    1        1.791   6.238   0.452  0.00  0.00    +0.660 C 
ATOM      5  N   LIG    1        2.339   5.092   0.894  0.00  0.00    -0.730 N 
ATOM      6  H   LIG    1        2.660   5.030   1.808  0.00  0.00    +0.420 HD
ATOM      7  O   LIG    1        1.628   7.159   1.229  0.00  0.00    -0.510 OA
ATOM      8  C   LIG    1        2.451   3.937  -0.001  0.00  0.00    +0.330 C 
ENDROOT
BRANCH   8   9
ATOM      9  C   LIG    1        1.156   3.165   0.008  0.00  0.00    -0.130 A 
ATOM     10  C   LIG    1        1.175   1.783   0.000  0.00  0.00    +0.030 A 
ATOM     11  C   LIG    1       -0.013   1.076   0.008  0.00  0.00    +0.010 A 
ATOM     12  C   LIG    1       -1.219   1.751   0.017  0.00  0.00    +0.020 A 
ATOM     13  C   LIG    1       -1.238   3.133   0.030  0.00  0.00    +0.020 A 
ATOM     14  C   LIG    1       -0.050   3.840   0.023  0.00  0.00    +0.020 A 
ENDBRANCH   8   9
BRANCH   1  15
ATOM     15  C   LIG    1        4.174   4.900  -1.504  0.00  0.00    +0.470 C 
ATOM     16  O   LIG    1        4.886   4.846  -0.530  0.00  0.00    -0.480 OA
BRANCH  15  17
ATOM     17  O   LIG    1        4.656   5.378  -2.662  0.00  0.00    -0.350 OA
BRANCH  17  19
ATOM     18  C   LIG    1        6.408   6.322  -4.065  0.00  0.00    +0.070 C 
ATOM     19  C   LIG    1        6.041   5.812  -2.670  0.00  0.00    +0.210 C 
ENDBRANCH  17  19
ENDBRANCH  15  17
ENDBRANCH   1  15
BRANCH   2  20
ATOM     20  C   LIG    1        1.354   5.769  -3.171  0.00  0.00    +0.430 C 
BRANCH  20  21
ATOM     21  N   LIG    1        0.470   6.936  -3.238  0.00  0.00    -0.560 N 
ATOM     22  C   LIG    1       -0.858   6.883  -3.082  0.00  0.00    +0.710 C 
ATOM     23  N   LIG    1       -1.436   8.093  -3.187  0.00  0.00    -0.710 N 
ATOM     24  H   LIG    1       -2.381   8.293  -3.106  0.00  0.00    +0.440 HD
ATOM     25  C   LIG    1       -0.353   9.056  -3.453  0.00  0.00    +0.180 C 
ATOM     26  O   LIG    1       -1.472   5.857  -2.866  0.00  0.00    -0.540 OA
ATOM     27  C   LIG    1        0.894   8.194  -3.471  0.00  0.00    +0.550 C 
ATOM     28  O   LIG    1        2.035   8.560  -3.656  0.00  0.00    -0.450 OA
BRANCH  25  29
ATOM     29  C   LIG    1       -0.554   9.725  -4.788  0.00  0.00    -0.140 A 
ATOM     30  C   LIG    1       -0.011  10.975  -5.023  0.00  0.00    +0.080 A 
ATOM     31  C   LIG    1       -0.190  11.588  -6.248  0.00  0.00    -0.080 A 
ATOM     32  C   LIG    1       -0.923  10.953  -7.239  0.00  0.00    +0.140 A 
ATOM     33  C   LIG    1       -1.472   9.701  -7.000  0.00  0.00    -0.010 A 
ATOM     34  C   LIG    1       -1.286   9.090  -5.775  0.00  0.00    +0.070 A 
BRANCH  32  35
ATOM     35  O   LIG    1       -1.105  11.556  -8.444  0.00  0.00    -0.320 OA
ATOM     36  C   LIG    1       -0.512  12.845  -8.620  0.00  0.00    +0.240 C 
ENDBRANCH  32  35
ENDBRANCH  25  29
BRANCH  25  37
ATOM     37  C   LIG    1       -0.270  10.099  -2.337  0.00  0.00    +0.060 C 
ATOM     38  C   LIG    1       -0.119   9.393  -0.988  0.00  0.00    +0.030 C 
ENDBRANCH  25  37
ENDBRANCH  20  21
ENDBRANCH   2  20
TORSDOF 9
