REMARK  Name = ZINCAx00000009NG.1
REMARK                            x       y       z     vdW  Elec       q    Type
REMARK                         _______ _______ _______ _____ _____    ______ ____
ROOT
ATOM      1  C   LIG    1       -0.553   0.966  -2.398  0.00  0.00    -0.260 C 
ATOM      2  C   LIG    1       -0.924   1.439  -1.189  0.00  0.00    +0.240 C 
ATOM      3  N   LIG    1       -1.760   2.514  -1.079  0.00  0.00    -0.640 N 
ATOM      4  H   LIG    1       -1.996   2.821  -0.189  0.00  0.00    +0.420 HD
ATOM      5  C   LIG    1       -2.272   3.167  -2.129  0.00  0.00    +0.710 C 
ATOM      6  N   LIG    1       -1.998   2.809  -3.399  0.00  0.00    -0.710 N 
ATOM      7  H   LIG    1       -2.379   3.297  -4.146  0.00  0.00    +0.440 HD
ATOM      8  O   LIG    1       -3.008   4.114  -1.931  0.00  0.00    -0.550 OA
ATOM      9  C   LIG    1       -1.105   1.661  -3.627  0.00  0.00    +0.340 C 
ENDROOT
BRANCH   9  10
ATOM     10  C   LIG    1        0.064   2.137  -4.450  0.00  0.00    -0.110 A 
ATOM     11  C   LIG    1        0.627   3.374  -4.200  0.00  0.00    +0.010 A 
ATOM     12  C   LIG    1        1.703   3.809  -4.952  0.00  0.00    +0.000 A 
ATOM     13  C   LIG    1        2.209   3.010  -5.960  0.00  0.00    +0.010 A 
ATOM     14  C   LIG    1        1.642   1.775  -6.214  0.00  0.00    +0.000 A 
ATOM     15  C   LIG    1        0.570   1.338  -5.459  0.00  0.00    +0.050 A 
ENDBRANCH   9  10
BRANCH   1  16
ATOM     16  C   LIG    1        0.317  -0.143  -2.514  0.00  0.00    +0.540 C 
ATOM     17  O   LIG    1        0.841  -0.612  -1.521  0.00  0.00    -0.520 OA
BRANCH  16  18
ATOM     18  O   LIG    1        0.567  -0.681  -3.726  0.00  0.00    -0.340 OA
BRANCH  18  20
ATOM     19  C   LIG    1        1.615  -2.269  -5.216  0.00  0.00    +0.070 C 
ATOM     20  C   LIG    1        1.455  -1.799  -3.769  0.00  0.00    +0.200 C 
ENDBRANCH  18  20
ENDBRANCH  16  18
ENDBRANCH   1  16
BRANCH   2  21
ATOM     21  C   LIG    1       -0.402   0.775   0.059  0.00  0.00    +0.440 C 
BRANCH  21  22
ATOM     22  N   LIG    1       -1.313   1.046   1.174  0.00  0.00    -0.590 N 
ATOM     23  C   LIG    1       -2.354   0.271   1.499  0.00  0.00    +0.700 C 
ATOM     24  N   LIG    1       -3.031   0.740   2.563  0.00  0.00    -0.710 N 
ATOM     25  H   LIG    1       -3.816   0.342   2.971  0.00  0.00    +0.440 HD
ATOM     26  C   LIG    1       -2.349   1.975   2.986  0.00  0.00    +0.180 C 
ATOM     27  O   LIG    1       -2.655  -0.744   0.901  0.00  0.00    -0.530 OA
ATOM     28  C   LIG    1       -1.203   2.103   2.002  0.00  0.00    +0.530 C 
ATOM     29  O   LIG    1       -0.363   2.977   1.966  0.00  0.00    -0.440 OA
BRANCH  26  30
ATOM     30  C   LIG    1       -3.278   3.156   2.882  0.00  0.00    -0.150 A 
ATOM     31  C   LIG    1       -3.125   4.232   3.737  0.00  0.00    +0.090 A 
ATOM     32  C   LIG    1       -3.972   5.319   3.639  0.00  0.00    -0.070 A 
ATOM     33  C   LIG    1       -4.984   5.326   2.690  0.00  0.00    +0.150 A 
ATOM     34  C   LIG    1       -5.138   4.243   1.837  0.00  0.00    +0.000 A 
ATOM     35  C   LIG    1       -4.285   3.161   1.935  0.00  0.00    +0.070 A 
BRANCH  33  36
ATOM     36  O   LIG    1       -5.822   6.392   2.596  0.00  0.00    -0.310 OA
ATOM     37  C   LIG    1       -5.603   7.471   3.507  0.00  0.00    +0.240 C 
ENDBRANCH  33  36
ENDBRANCH  26  30
BRANCH  26  38
ATOM     38  C   LIG    1       -1.817   1.834   4.414  0.00  0.00    +0.060 C 
ATOM     39  C   LIG    1       -0.837   0.661   4.480  0.00  0.00    +0.020 C 
ENDBRANCH  26  38
ENDBRANCH  21  22
ENDBRANCH   2  21
TORSDOF 9
