REMARK  Name = ZINCrH000004ncHZ.0
REMARK                            x       y       z     vdW  Elec       q    Type
REMARK                         _______ _______ _______ _____ _____    ______ ____
ROOT
ATOM      1  N   LIG    1       -0.219   2.347  -1.392  0.00  0.00    -0.700 N 
ATOM      2  H   LIG    1       -0.294   1.763  -2.163  0.00  0.00    +0.410 HD
ATOM      3  C   LIG    1       -0.952   3.476  -1.328  0.00  0.00    +0.600 C 
ATOM      4  O   LIG    1       -0.857   4.209  -0.361  0.00  0.00    -0.520 OA
ENDROOT
BRANCH   1  12
ATOM      5  C   LIG    1        3.196   4.702  -1.119  0.00  0.00    +0.090 A 
ATOM      6  C   LIG    1        4.403   4.056  -0.894  0.00  0.00    -0.030 A 
ATOM      7  C   LIG    1        4.411   2.741  -0.478  0.00  0.00    +0.030 A 
ATOM      8  C   LIG    1        3.215   2.059  -0.282  0.00  0.00    +0.100 A 
ATOM      9  O   LIG    1        3.267   0.762   0.123  0.00  0.00    -0.310 OA
ATOM     10  C   LIG    1        2.081   0.185   0.671  0.00  0.00    +0.260 C 
ATOM     11  C   LIG    1        0.914   0.488  -0.277  0.00  0.00    +0.020 C 
ATOM     12  C   LIG    1        0.693   2.003  -0.298  0.00  0.00    +0.300 C 
ATOM     13  C   LIG    1        2.011   2.705  -0.504  0.00  0.00    -0.140 A 
ATOM     14  C   LIG    1        2.004   4.025  -0.923  0.00  0.00    +0.040 A 
BRANCH   5  16
ATOM     15  C   LIG    1        4.451   6.634  -1.712  0.00  0.00    +0.240 C 
ATOM     16  O   LIG    1        3.184   5.998  -1.531  0.00  0.00    -0.320 OA
ENDBRANCH   5  16
ENDBRANCH   1  12
BRANCH   3  17
ATOM     17  C   LIG    1       -1.867   3.822  -2.426  0.00  0.00    -0.060 A 
ATOM     18  C   LIG    1       -2.755   4.886  -2.458  0.00  0.00    +0.090 A 
ATOM     19  O   LIG    1       -3.387   4.820  -3.647  0.00  0.00    -0.190 OA
ATOM     20  C   LIG    1       -2.909   3.763  -4.319  0.00  0.00    +0.450 A 
ATOM     21  N   LIG    1       -2.001   3.163  -3.608  0.00  0.00    -0.460 NA
BRANCH  18  22
ATOM     22  C   LIG    1       -2.968   5.891  -1.400  0.00  0.00    -0.050 A 
ATOM     23  C   LIG    1       -3.207   5.485  -0.085  0.00  0.00    +0.120 A 
ATOM     24  C   LIG    1       -3.398   6.429   0.901  0.00  0.00    -0.010 A 
ATOM     25  C   LIG    1       -3.367   7.779   0.588  0.00  0.00    +0.120 A 
ATOM     26  C   LIG    1       -3.136   8.188  -0.717  0.00  0.00    -0.020 A 
ATOM     27  F   LIG    1       -3.561   8.700   1.557  0.00  0.00    -0.130 F 
ATOM     28  C   LIG    1       -2.937   7.253  -1.710  0.00  0.00    +0.090 A 
ENDBRANCH  18  22
ENDBRANCH   3  17
TORSDOF 4
