REMARK  Name = ZINCfA000001ogL0.0
REMARK                            x       y       z     vdW  Elec       q    Type
REMARK                         _______ _______ _______ _____ _____    ______ ____
ROOT
ATOM      1  S   LIG    1       -0.860   1.669   1.497  0.00  0.00    +0.060 S 
ENDROOT
BRANCH   1   2
ATOM      2  C   LIG    1        0.174   0.961   2.735  0.00  0.00    +0.460 C 
ATOM      3  N   LIG    1        1.216   0.238   2.350  0.00  0.00    -0.650 NA
ATOM      4  C   LIG    1        2.124  -0.374   3.322  0.00  0.00    +0.310 C 
ATOM      5  C   LIG    1        1.348  -0.678   4.608  0.00  0.00    +0.060 C 
ATOM      6  C   LIG    1        0.686   0.617   5.091  0.00  0.00    +0.320 C 
ATOM      7  H   LIG    1        1.383   0.114   1.403  0.00  0.00    +0.440 HD
ATOM      8  N   LIG    1       -0.129   1.171   4.008  0.00  0.00    -0.620 NA
ATOM      9  H   LIG    1       -0.909   1.704   4.228  0.00  0.00    +0.440 HD
ENDBRANCH   1   2
BRANCH   1  10
ATOM     10  C   LIG    1       -0.013   1.086   0.008  0.00  0.00    +0.140 C 
BRANCH  10  16
ATOM     11 BR   LIG    1       -0.598   4.922  -3.662  0.00  0.00    -0.030 Br
ATOM     12  C   LIG    1       -1.067   3.259  -2.895  0.00  0.00    -0.090 A 
ATOM     13  C   LIG    1       -2.080   2.500  -3.453  0.00  0.00    +0.080 A 
ATOM     14  C   LIG    1       -2.423   1.284  -2.892  0.00  0.00    +0.030 A 
ATOM     15  C   LIG    1       -1.750   0.824  -1.775  0.00  0.00    +0.060 A 
ATOM     16  C   LIG    1       -0.742   1.585  -1.213  0.00  0.00    -0.100 A 
ATOM     17  C   LIG    1       -0.398   2.800  -1.774  0.00  0.00    +0.080 A 
ENDBRANCH  10  16
ENDBRANCH   1  10
TORSDOF 3
