REMARK  Name = ZINCpe000000SzBP.0
REMARK                            x       y       z     vdW  Elec       q    Type
REMARK                         _______ _______ _______ _____ _____    ______ ____
ROOT
ATOM      1  C   LIG    1       -0.419   5.373   2.542  0.00  0.00    +0.520 C 
ATOM      2  N   LIG    1       -1.443   4.628   3.004  0.00  0.00    -0.670 N 
ATOM      3  H   LIG    1       -1.792   3.899   2.468  0.00  0.00    +0.410 HD
ATOM      4  O   LIG    1       -0.037   6.336   3.173  0.00  0.00    -0.490 OA
ENDROOT
BRANCH   1  11
ATOM      5  C   LIG    1        2.465   2.022  -1.744  0.00  0.00    +0.110 C 
ATOM      6  C   LIG    1        1.637   2.248  -0.505  0.00  0.00    +0.520 C 
ATOM      7  N   LIG    1        1.744   3.408   0.174  0.00  0.00    -0.620 N 
ATOM      8  C   LIG    1        2.661   4.467  -0.275  0.00  0.00    +0.260 C 
ATOM      9  C   LIG    1        1.882   5.786  -0.338  0.00  0.00    +0.230 C 
ATOM     10  O   LIG    1        1.223   6.005   0.911  0.00  0.00    -0.350 OA
ATOM     11  C   LIG    1        0.250   5.010   1.242  0.00  0.00    +0.150 C 
ATOM     12  C   LIG    1        0.946   3.651   1.386  0.00  0.00    +0.280 C 
ATOM     13  O   LIG    1        0.876   1.387  -0.120  0.00  0.00    -0.540 OA
ENDBRANCH   1  11
BRANCH   2  14
ATOM     14  C   LIG    1       -2.001   4.906   4.257  0.00  0.00    +0.150 A 
ATOM     15  C   LIG    1       -2.470   3.870   5.055  0.00  0.00    -0.020 A 
ATOM     16  C   LIG    1       -3.017   4.148   6.292  0.00  0.00    +0.050 A 
ATOM     17  C   LIG    1       -3.106   5.455   6.733  0.00  0.00    -0.130 A 
ATOM     18  C   LIG    1       -2.644   6.489   5.939  0.00  0.00    +0.060 A 
ATOM     19  C   LIG    1       -2.092   6.218   4.702  0.00  0.00    +0.020 A 
BRANCH  17  20
ATOM     20  C   LIG    1       -3.709   5.755   8.081  0.00  0.00    +0.390 C 
BRANCH  20  21
ATOM     21  N   LIG    1       -5.152   5.963   7.936  0.00  0.00    -0.630 N 
ATOM     22  C   LIG    1       -6.180   4.915   8.028  0.00  0.00    +0.240 C 
ATOM     23  C   LIG    1       -7.501   5.677   7.802  0.00  0.00    +0.260 C 
ATOM     24  O   LIG    1       -7.082   7.059   7.609  0.00  0.00    -0.330 OA
ATOM     25  C   LIG    1       -5.750   7.139   7.704  0.00  0.00    +0.640 C 
ATOM     26  O   LIG    1       -5.139   8.182   7.587  0.00  0.00    -0.520 OA
ENDBRANCH  20  21
ENDBRANCH  17  20
ENDBRANCH   2  14
TORSDOF 4
