REMARK  Name = ZINCtV00001bB3oE.0
REMARK                            x       y       z     vdW  Elec       q    Type
REMARK                         _______ _______ _______ _____ _____    ______ ____
ROOT
ATOM      1  N   LIG    1        1.614  -2.155  -0.496  0.00  0.00    -0.510 NA
ATOM      2  C   LIG    1        0.564  -2.776  -1.000  0.00  0.00    +0.390 A 
ATOM      3  S   LIG    1       -0.936  -2.045  -1.598  0.00  0.00    +0.000 S 
ATOM      4  C   LIG    1       -1.683  -3.591  -2.039  0.00  0.00    -0.040 A 
ATOM      5  C   LIG    1       -0.786  -4.531  -1.718  0.00  0.00    +0.160 A 
ATOM      6  N   LIG    1        0.402  -4.120  -1.177  0.00  0.00    -0.490 N 
ENDROOT
BRANCH   5   7
ATOM      7  C   LIG    1       -1.067  -5.965  -1.948  0.00  0.00    -0.050 A 
ATOM      8  C   LIG    1       -0.879  -6.888  -0.918  0.00  0.00    +0.050 A 
ATOM      9  C   LIG    1       -1.146  -8.225  -1.133  0.00  0.00    +0.030 A 
ATOM     10  C   LIG    1       -1.590  -8.658  -2.375  0.00  0.00    +0.070 A 
ATOM     11  O   LIG    1       -1.838  -9.983  -2.567  0.00  0.00    -0.300 OA
ATOM     12  C   LIG    1       -2.637 -10.330  -3.703  0.00  0.00    +0.230 C 
ATOM     13  C   LIG    1       -2.112  -9.550  -4.916  0.00  0.00    +0.230 C 
ATOM     14  O   LIG    1       -2.215  -8.152  -4.629  0.00  0.00    -0.300 OA
ATOM     15  C   LIG    1       -1.775  -7.743  -3.407  0.00  0.00    +0.050 A 
ATOM     16  C   LIG    1       -1.514  -6.400  -3.196  0.00  0.00    +0.060 A 
ENDBRANCH   5   7
BRANCH   1  23
ATOM     17 CL   LIG    1        4.221  -0.896  -1.175  0.00  0.00    -0.060 Cl
ATOM     18  C   LIG    1        2.778  -0.067  -0.682  0.00  0.00    -0.030 A 
ATOM     19  C   LIG    1        2.773   1.308  -0.575  0.00  0.00    +0.050 A 
ATOM     20  C   LIG    1        1.623   1.971  -0.182  0.00  0.00    +0.000 A 
ATOM     21  C   LIG    1        0.471   1.261   0.107  0.00  0.00    +0.040 A 
ATOM     22  C   LIG    1        0.461  -0.115   0.004  0.00  0.00    -0.020 A 
ATOM     23  C   LIG    1        1.617  -0.791  -0.393  0.00  0.00    +0.140 A 
ENDBRANCH   1  23
BRANCH   6  24
ATOM     24  C   LIG    1        1.446  -5.076  -0.802  0.00  0.00    +0.240 C 
ATOM     25  C   LIG    1        1.653  -5.037   0.714  0.00  0.00    +0.020 C 
ATOM     26  C   LIG    1        2.744  -6.035   1.105  0.00  0.00    +0.020 C 
ATOM     27  C   LIG    1        4.052  -5.664   0.402  0.00  0.00    +0.010 C 
ATOM     28  C   LIG    1        3.845  -5.703  -1.113  0.00  0.00    +0.020 C 
ATOM     29  C   LIG    1        2.754  -4.705  -1.505  0.00  0.00    +0.020 C 
ENDBRANCH   6  24
TORSDOF 3
