REMARK  Name = ZINCbw0000000HiL.0
REMARK                            x       y       z     vdW  Elec       q    Type
REMARK                         _______ _______ _______ _____ _____    ______ ____
ROOT
ATOM      1  C   LIG    1       -2.464   1.770  -0.469  0.00  0.00    +0.150 C 
ATOM      2  C   LIG    1       -1.201   2.552  -0.214  0.00  0.00    +0.010 A 
ATOM      3  C   LIG    1        0.027   1.918  -0.264  0.00  0.00    -0.110 A 
ATOM      4  C   LIG    1        1.186   2.637  -0.035  0.00  0.00    +0.120 A 
ATOM      5  C   LIG    1        1.117   3.988   0.249  0.00  0.00    +0.040 A 
ATOM      6  C   LIG    1       -0.112   4.620   0.303  0.00  0.00    +0.120 A 
ATOM      7 BR   LIG    1        0.122   0.070  -0.652  0.00  0.00    -0.010 Br
ATOM      8  C   LIG    1       -1.270   3.902   0.075  0.00  0.00    -0.050 A 
ENDROOT
BRANCH   8   9
ATOM      9  N   LIG    1       -2.585   4.580   0.133  0.00  0.00    +0.030 N 
ATOM     10  O   LIG    1       -3.610   3.928   0.050  0.00  0.00    -0.150 OA
ATOM     11  O   LIG    1       -2.641   5.790   0.265  0.00  0.00    -0.160 OA
ENDBRANCH   8   9
TORSDOF 1
