REMARK  Name = ZINCrD0000074kuG.0
REMARK                            x       y       z     vdW  Elec       q    Type
REMARK                         _______ _______ _______ _____ _____    ______ ____
ROOT
ATOM      1  O   LIG    1        3.995   1.490   0.730  0.00  0.00    -0.330 OA
ENDROOT
BRANCH   1   2
ATOM      2  C   LIG    1        5.257   0.891   0.333  0.00  0.00    +0.160 C 
ATOM      3  C   LIG    1        5.911   0.229   1.548  0.00  0.00    +0.080 C 
BRANCH   2   4
ATOM      4  C   LIG    1        6.171   1.960  -0.209  0.00  0.00    +0.450 C 
ATOM      5  O   LIG    1        5.958   3.127   0.046  0.00  0.00    -0.420 OA
BRANCH   4   8
ATOM      6  C   LIG    1        6.130   1.760  -3.302  0.00  0.00    +0.150 C 
ATOM      7  C   LIG    1        7.303   1.502  -2.392  0.00  0.00    +0.150 A 
ATOM      8  C   LIG    1        7.279   1.601  -1.017  0.00  0.00    -0.270 A 
ATOM      9  C   LIG    1        8.641   1.267  -0.556  0.00  0.00    -0.060 A 
ATOM     10  C   LIG    1        9.244   1.181   0.695  0.00  0.00    +0.040 A 
ATOM     11  C   LIG    1       10.572   0.825   0.789  0.00  0.00    +0.000 A 
ATOM     12  C   LIG    1       11.304   0.547  -0.355  0.00  0.00    +0.030 A 
ATOM     13  C   LIG    1       10.717   0.623  -1.600  0.00  0.00    +0.000 A 
ATOM     14  C   LIG    1        9.378   0.981  -1.716  0.00  0.00    +0.090 A 
ATOM     15  N   LIG    1        8.535   1.138  -2.797  0.00  0.00    -0.570 N 
ATOM     16  H   LIG    1        8.794   1.004  -3.722  0.00  0.00    +0.420 HD
ENDBRANCH   4   8
ENDBRANCH   2   4
ENDBRANCH   1   2
BRANCH   1  17
ATOM     17  C   LIG    1        2.896   0.714   0.642  0.00  0.00    +0.510 C 
ATOM     18  O   LIG    1        2.990  -0.430   0.245  0.00  0.00    -0.500 OA
BRANCH  17  19
ATOM     19  C   LIG    1        1.579   1.255   1.028  0.00  0.00    -0.150 A 
ATOM     20  C   LIG    1        0.438   0.452   0.937  0.00  0.00    +0.110 A 
ATOM     21  C   LIG    1       -0.790   0.962   1.293  0.00  0.00    +0.010 A 
ATOM     22  C   LIG    1       -0.895   2.271   1.754  0.00  0.00    +0.210 A 
ATOM     23  C   LIG    1        0.239   3.073   1.845  0.00  0.00    -0.020 A 
ATOM     24  C   LIG    1        1.469   2.571   1.485  0.00  0.00    +0.110 A 
BRANCH  22  25
ATOM     25  N   LIG    1       -2.139   2.782   2.119  0.00  0.00    -0.690 N 
ATOM     26  H   LIG    1       -2.345   3.717   1.962  0.00  0.00    +0.410 HD
ATOM     27  C   LIG    1       -3.057   1.977   2.690  0.00  0.00    +0.710 C 
ATOM     28  O   LIG    1       -2.768   0.830   2.972  0.00  0.00    -0.570 OA
ATOM     29  N   LIG    1       -4.294   2.443   2.949  0.00  0.00    -0.860 N 
ATOM     30  H   LIG    1       -4.955   1.864   3.360  0.00  0.00    +0.420 HD
ATOM     31  H   LIG    1       -4.525   3.358   2.724  0.00  0.00    +0.400 HD
ENDBRANCH  22  25
ENDBRANCH  17  19
ENDBRANCH   1  17
TORSDOF 6
