REMARK  Name = ZINCkj00000h9xXT.0
REMARK                            x       y       z     vdW  Elec       q    Type
REMARK                         _______ _______ _______ _____ _____    ______ ____
ROOT
ATOM      1  C   LIG    1       -7.525   2.428  -3.145  0.00  0.00    +0.730 C 
ENDROOT
BRANCH   1   2
ATOM      2  N   LIG    1       -7.594   3.732  -3.575  0.00  0.00    -0.690 NA
ATOM      3  H   LIG    1       -8.433   4.090  -3.906  0.00  0.00    +0.430 HD
BRANCH   2   4
ATOM      4  C   LIG    1       -6.401   4.581  -3.535  0.00  0.00    +0.310 C 
BRANCH   4   6
ATOM      5  C   LIG    1       -6.498   7.021  -3.529  0.00  0.00    +0.110 C 
ATOM      6  C   LIG    1       -6.705   5.906  -4.186  0.00  0.00    -0.090 C 
ENDBRANCH   4   6
ENDBRANCH   2   4
ENDBRANCH   1   2
BRANCH   1   7
ATOM      7  N   LIG    1       -8.539   1.628  -3.325  0.00  0.00    -0.650 NA
ATOM      8  H   LIG    1       -8.490   0.708  -3.022  0.00  0.00    +0.440 HD
BRANCH   7   9
ATOM      9  C   LIG    1       -9.751   2.118  -3.986  0.00  0.00    +0.220 C 
ATOM     10  C   LIG    1       -9.584   2.010  -5.503  0.00  0.00    +0.060 C 
BRANCH   9  11
ATOM     11  C   LIG    1      -10.949   1.276  -3.543  0.00  0.00    +0.040 C 
ATOM     12  C   LIG    1      -11.192   1.482  -2.047  0.00  0.00    +0.020 C 
ENDBRANCH   9  11
ENDBRANCH   7   9
ENDBRANCH   1   7
BRANCH   1  13
ATOM     13  N   LIG    1       -6.388   1.968  -2.525  0.00  0.00    -0.700 NA
ATOM     14  H   LIG    1       -6.292   1.024  -2.326  0.00  0.00    +0.430 HD
BRANCH  13  15
ATOM     15  C   LIG    1       -5.320   2.904  -2.165  0.00  0.00    +0.280 C 
BRANCH  15  16
ATOM     16  C   LIG    1       -4.243   2.167  -1.367  0.00  0.00    +0.010 C 
BRANCH  16  17
ATOM     17  C   LIG    1       -3.127   3.145  -0.992  0.00  0.00    +0.340 C 
BRANCH  17  18
ATOM     18  N   LIG    1       -2.096   2.439  -0.228  0.00  0.00    -0.630 N 
ATOM     19  C   LIG    1       -0.920   1.764  -0.798  0.00  0.00    +0.250 C 
ATOM     20  C   LIG    1       -0.187   1.199   0.434  0.00  0.00    +0.260 C 
ATOM     21  O   LIG    1       -1.015   1.612   1.560  0.00  0.00    -0.320 OA
ATOM     22  C   LIG    1       -2.070   2.303   1.105  0.00  0.00    +0.640 C 
ATOM     23  O   LIG    1       -2.924   2.764   1.836  0.00  0.00    -0.520 OA
ENDBRANCH  17  18
ENDBRANCH  16  17
ENDBRANCH  15  16
ENDBRANCH  13  15
ENDBRANCH   1  13
TORSDOF 11
