REMARK  Name = ZINCpk00000xVQRs.2
REMARK                            x       y       z     vdW  Elec       q    Type
REMARK                         _______ _______ _______ _____ _____    ______ ____
ROOT
ATOM      1  C   LIG    1       -5.693   3.539   4.993  0.00  0.00    +0.230 C 
ENDROOT
BRANCH   1   4
ATOM      2  C   LIG    1       -4.268   1.133   2.469  0.00  0.00    +0.140 C 
ATOM      3  C   LIG    1       -5.041   1.593   3.708  0.00  0.00    +0.190 C 
ATOM      4  N   LIG    1       -4.901   3.048   3.857  0.00  0.00    -0.520 NA
ATOM      5  C   LIG    1       -3.488   3.427   3.997  0.00  0.00    +0.180 C 
ATOM      6  C   LIG    1       -2.715   2.967   2.759  0.00  0.00    +0.190 C 
ATOM      7  N   LIG    1       -2.855   1.512   2.609  0.00  0.00    -0.530 NA
BRANCH   2   9
ATOM      8  C   LIG    1       -5.835  -0.771   2.070  0.00  0.00    +0.020 C 
ATOM      9  C   LIG    1       -4.378  -0.387   2.333  0.00  0.00    +0.020 C 
ENDBRANCH   2   9
BRANCH   7  10
ATOM     10  C   LIG    1       -2.063   1.021   1.473  0.00  0.00    +0.140 C 
BRANCH  10  11
ATOM     11  C   LIG    1       -0.623   1.520   1.602  0.00  0.00    +0.200 C 
ATOM     12  C   LIG    1        0.204   1.000   0.424  0.00  0.00    +0.010 C 
BRANCH  11  13
ATOM     13  O   LIG    1       -0.061   1.043   2.826  0.00  0.00    -0.550 OA
ATOM     14  H   LIG    1       -0.036   0.079   2.898  0.00  0.00    +0.370 HD
ENDBRANCH  11  13
ENDBRANCH  10  11
ENDBRANCH   7  10
ENDBRANCH   1   4
BRANCH   1  15
ATOM     15  C   LIG    1       -5.725   5.046   4.969  0.00  0.00    +0.510 C 
ATOM     16  N   LIG    1       -6.397   5.721   5.922  0.00  0.00    -0.630 N 
ATOM     17  H   LIG    1       -6.861   5.237   6.624  0.00  0.00    +0.430 HD
ATOM     18  O   LIG    1       -5.145   5.651   4.092  0.00  0.00    -0.470 OA
BRANCH  16  19
ATOM     19  C   LIG    1       -6.426   7.105   5.900  0.00  0.00    +0.320 A 
ATOM     20  C   LIG    1       -7.080   7.920   6.809  0.00  0.00    -0.170 A 
ATOM     21  C   LIG    1       -6.812   9.296   6.363  0.00  0.00    -0.120 A 
ATOM     22  C   LIG    1       -6.056   9.189   5.261  0.00  0.00    -0.010 A 
ATOM     23  C   LIG    1       -5.538  10.347   4.447  0.00  0.00    +0.190 C 
ATOM     24  C   LIG    1       -7.293  10.569   7.010  0.00  0.00    +0.140 C 
ATOM     25  O   LIG    1       -5.832   7.891   4.993  0.00  0.00    -0.150 OA
BRANCH  20  26
ATOM     26  C   LIG    1       -7.851   7.511   7.945  0.00  0.00    +0.280 C 
ATOM     27  N   LIG    1       -8.463   7.187   8.845  0.00  0.00    -0.420 NA
ENDBRANCH  20  26
ENDBRANCH  16  19
ENDBRANCH   1  15
TORSDOF 8
