REMARK  Name = ZINCvU0000000Apc.0
REMARK                            x       y       z     vdW  Elec       q    Type
REMARK                         _______ _______ _______ _____ _____    ______ ____
ROOT
ATOM      1  C   LIG    1       -1.455   5.963   8.393  0.00  0.00    +0.190 C 
ATOM      2  C   LIG    1       -1.466   5.133   7.135  0.00  0.00    +0.290 A 
ATOM      3  N   LIG    1       -0.429   4.906   6.383  0.00  0.00    -0.480 NA
ATOM      4  C   LIG    1       -0.789   4.124   5.332  0.00  0.00    +0.050 A 
ATOM      5  C   LIG    1       -0.092   3.591   4.250  0.00  0.00    +0.130 A 
ATOM      6  C   LIG    1       -0.767   2.806   3.319  0.00  0.00    -0.130 A 
ATOM      7  C   LIG    1       -2.138   2.558   3.468  0.00  0.00    +0.060 A 
ATOM      8  C   LIG    1       -2.822   3.074   4.531  0.00  0.00    +0.020 A 
ATOM      9  C   LIG    1       -2.165   3.860   5.469  0.00  0.00    +0.070 A 
ATOM     10  N   LIG    1       -2.564   4.512   6.618  0.00  0.00    -0.440 N 
ENDROOT
BRANCH   6  11
ATOM     11  C   LIG    1       -0.037   2.238   2.168  0.00  0.00    +0.570 C 
ATOM     12  N   LIG    1       -0.516   2.402   0.919  0.00  0.00    -0.610 N 
ATOM     13  C   LIG    1        0.241   1.915  -0.243  0.00  0.00    +0.270 C 
ATOM     14  C   LIG    1        0.428   3.070  -1.232  0.00  0.00    +0.020 C 
ATOM     15  C   LIG    1       -0.939   3.664  -1.580  0.00  0.00    +0.000 C 
ATOM     16  C   LIG    1       -1.595   4.216  -0.312  0.00  0.00    +0.020 C 
ATOM     17  C   LIG    1       -1.805   3.074   0.688  0.00  0.00    +0.270 C 
ATOM     18  O   LIG    1        0.996   1.622   2.347  0.00  0.00    -0.530 OA
BRANCH  15  19
ATOM     19  C   LIG    1       -0.760   4.795  -2.595  0.00  0.00    +0.060 C 
BRANCH  19  20
ATOM     20  C   LIG    1       -2.112   5.298  -3.030  0.00  0.00    -0.080 A 
ATOM     21  C   LIG    1       -2.740   4.734  -4.125  0.00  0.00    +0.000 A 
ATOM     22  C   LIG    1       -3.982   5.193  -4.522  0.00  0.00    +0.000 A 
ATOM     23  C   LIG    1       -4.592   6.222  -3.830  0.00  0.00    -0.010 A 
ATOM     24  C   LIG    1       -3.962   6.790  -2.738  0.00  0.00    +0.000 A 
ATOM     25  C   LIG    1       -2.722   6.328  -2.338  0.00  0.00    +0.000 A 
ENDBRANCH  19  20
ENDBRANCH  15  19
ENDBRANCH   6  11
BRANCH  10  26
ATOM     26  C   LIG    1       -3.858   4.532   7.155  0.00  0.00    +0.110 A 
ATOM     27  C   LIG    1       -4.437   3.358   7.618  0.00  0.00    +0.020 A 
ATOM     28  C   LIG    1       -5.711   3.382   8.151  0.00  0.00    +0.030 A 
ATOM     29  C   LIG    1       -6.414   4.572   8.214  0.00  0.00    +0.020 A 
ATOM     30  C   LIG    1       -5.842   5.741   7.748  0.00  0.00    +0.040 A 
ATOM     31  C   LIG    1       -4.566   5.724   7.218  0.00  0.00    +0.020 A 
ENDBRANCH  10  26
TORSDOF 4
