REMARK  Name = ZINCqH0000037MTW.0
REMARK                            x       y       z     vdW  Elec       q    Type
REMARK                         _______ _______ _______ _____ _____    ______ ____
ROOT
ATOM      1  N   LIG    1        5.825   0.527  -0.052  0.00  0.00    -0.730 N 
ATOM      2  H   LIG    1        6.081  -0.407   0.003  0.00  0.00    +0.400 HD
ATOM      3  C   LIG    1        4.522   0.871  -0.024  0.00  0.00    +0.700 C 
ATOM      4  N   LIG    1        3.572  -0.085  -0.032  0.00  0.00    -0.640 N 
ATOM      5  H   LIG    1        3.826  -1.021  -0.057  0.00  0.00    +0.410 HD
ATOM      6  O   LIG    1        4.204   2.044   0.008  0.00  0.00    -0.540 OA
ENDROOT
BRANCH   1   7
ATOM      7  C   LIG    1        6.854   1.563  -0.166  0.00  0.00    +0.290 C 
ATOM      8  C   LIG    1        6.592   2.411  -1.414  0.00  0.00    +0.030 C 
ATOM      9  C   LIG    1        6.707   1.521  -2.657  0.00  0.00    +0.220 C 
ATOM     10  O   LIG    1        8.001   0.916  -2.692  0.00  0.00    -0.370 OA
ATOM     11  C   LIG    1        8.282   0.075  -1.571  0.00  0.00    +0.220 C 
ATOM     12  C   LIG    1        8.232   0.905  -0.286  0.00  0.00    +0.030 C 
BRANCH   7  17
ATOM     13  C   LIG    1        7.644   5.209   3.297  0.00  0.00    +0.160 C 
ATOM     14  C   LIG    1        7.145   3.997   2.554  0.00  0.00    +0.020 A 
ATOM     15  N   LIG    1        6.253   3.142   2.965  0.00  0.00    -0.360 NA
ATOM     16  O   LIG    1        6.056   2.275   2.146  0.00  0.00    +0.120 OA
ATOM     17  C   LIG    1        6.821   2.443   1.058  0.00  0.00    -0.030 A 
ATOM     18  C   LIG    1        7.553   3.562   1.272  0.00  0.00    -0.050 A 
ENDBRANCH   7  17
ENDBRANCH   1   7
BRANCH   4  19
ATOM     19  C   LIG    1        2.220   0.272  -0.002  0.00  0.00    +0.010 A 
ATOM     20  C   LIG    1        1.178  -0.575  -0.006  0.00  0.00    +0.020 A 
ATOM     21  N   LIG    1       -0.001   0.015   0.026  0.00  0.00    -0.450 NA
ATOM     22  C   LIG    1       -0.015   1.304   0.056  0.00  0.00    -0.010 A 
ATOM     23  C   LIG    1       -1.260   2.151   0.089  0.00  0.00    +0.180 C 
ATOM     24  S   LIG    1        1.582   1.914   0.045  0.00  0.00    +0.240 S 
BRANCH  20  25
ATOM     25  C   LIG    1        1.342  -2.073  -0.043  0.00  0.00    +0.120 C 
BRANCH  25  26
ATOM     26  C   LIG    1        1.376  -2.546  -1.497  0.00  0.00    -0.010 C 
ATOM     27  C   LIG    1        1.417  -4.075  -1.534  0.00  0.00    +0.020 C 
ATOM     28  C   LIG    1        2.621  -1.986  -2.187  0.00  0.00    +0.020 C 
ENDBRANCH  25  26
ENDBRANCH  20  25
ENDBRANCH   4  19
TORSDOF 5
