REMARK  Name = ZINCtj0000002q5p.1
REMARK                            x       y       z     vdW  Elec       q    Type
REMARK                         _______ _______ _______ _____ _____    ______ ____
ROOT
ATOM      1  N   LIG    1        5.913   1.234   0.193  0.00  0.00    -0.390 N 
ATOM      2  C   LIG    1        5.394   1.361   1.579  0.00  0.00    +0.270 C 
ATOM      3  C   LIG    1        4.028   2.061   1.420  0.00  0.00    +0.070 C 
ATOM      4  C   LIG    1        3.582   1.747  -0.023  0.00  0.00    +0.280 C 
ATOM      5  C   LIG    1        4.716   0.885  -0.617  0.00  0.00    +0.280 C 
ATOM      6  H   LIG    1        6.305   2.110  -0.119  0.00  0.00    +0.430 HD
ENDROOT
BRANCH   4   7
ATOM      7  N   LIG    1        2.323   0.998  -0.015  0.00  0.00    -0.740 N 
ATOM      8  H   LIG    1        2.336   0.028  -0.020  0.00  0.00    +0.400 HD
ATOM      9  C   LIG    1        1.147   1.655   0.000  0.00  0.00    +0.710 C 
ATOM     10  N   LIG    1       -0.011   0.966   0.007  0.00  0.00    -0.720 N 
ATOM     11  H   LIG    1        0.002  -0.004   0.002  0.00  0.00    +0.400 HD
ATOM     12  O   LIG    1        1.130   2.871   0.007  0.00  0.00    -0.560 OA
BRANCH  10  13
ATOM     13  C   LIG    1       -1.290   1.681   0.017  0.00  0.00    +0.260 C 
ATOM     14  C   LIG    1       -2.415   0.786  -0.552  0.00  0.00    +0.060 C 
ATOM     15  C   LIG    1       -3.614   1.187   0.339  0.00  0.00    +0.270 C 
ATOM     16  N   LIG    1       -3.027   1.679   1.591  0.00  0.00    -0.590 N 
ATOM     17  C   LIG    1       -1.724   1.970   1.437  0.00  0.00    +0.500 C 
ATOM     18  O   LIG    1       -1.001   2.400   2.311  0.00  0.00    -0.510 OA
BRANCH  16  19
ATOM     19  C   LIG    1       -3.767   1.834   2.846  0.00  0.00    +0.210 C 
ATOM     20  C   LIG    1       -3.060   2.550   3.998  0.00  0.00    +0.040 C 
ATOM     21  C   LIG    1       -3.278   1.036   4.056  0.00  0.00    +0.000 C 
ENDBRANCH  16  19
ENDBRANCH  10  13
ENDBRANCH   4   7
BRANCH   1  22
ATOM     22  C   LIG    1        6.918   0.166   0.116  0.00  0.00    +0.330 C 
BRANCH  22  25
ATOM     23  C   LIG    1        9.332   0.587   2.994  0.00  0.00    +0.180 A 
ATOM     24  C   LIG    1        8.215   0.225   2.255  0.00  0.00    -0.030 A 
ATOM     25  C   LIG    1        8.133   0.560   0.917  0.00  0.00    -0.080 A 
ATOM     26  C   LIG    1        9.164   1.251   0.310  0.00  0.00    -0.030 A 
ATOM     27  C   LIG    1       10.281   1.619   1.047  0.00  0.00    +0.180 A 
ATOM     28  C   LIG    1       10.366   1.284   2.390  0.00  0.00    -0.120 A 
BRANCH  23  30
ATOM     29  C   LIG    1       10.591   0.661   5.010  0.00  0.00    +0.250 C 
ATOM     30  O   LIG    1        9.412   0.257   4.310  0.00  0.00    -0.310 OA
ENDBRANCH  23  30
BRANCH  27  31
ATOM     31  O   LIG    1       11.294   2.302   0.451  0.00  0.00    -0.310 OA
ATOM     32  C   LIG    1       12.415   2.644   1.269  0.00  0.00    +0.250 C 
ENDBRANCH  27  31
ENDBRANCH  22  25
ENDBRANCH   1  22
TORSDOF 7
