REMARK  Name = ZINCtj0000002q5p.2
REMARK                            x       y       z     vdW  Elec       q    Type
REMARK                         _______ _______ _______ _____ _____    ______ ____
ROOT
ATOM      1  N   LIG    1       -3.659   5.502   3.560  0.00  0.00    -0.400 N 
ATOM      2  C   LIG    1       -4.308   4.181   3.360  0.00  0.00    +0.270 C 
ATOM      3  C   LIG    1       -5.805   4.437   3.632  0.00  0.00    +0.060 C 
ATOM      4  C   LIG    1       -5.840   5.686   4.537  0.00  0.00    +0.290 C 
ATOM      5  C   LIG    1       -4.360   6.079   4.735  0.00  0.00    +0.280 C 
ATOM      6  H   LIG    1       -3.789   6.086   2.747  0.00  0.00    +0.430 HD
ENDROOT
BRANCH   4   7
ATOM      7  N   LIG    1       -6.570   6.772   3.878  0.00  0.00    -0.750 N 
ATOM      8  H   LIG    1       -6.090   7.432   3.355  0.00  0.00    +0.400 HD
ATOM      9  C   LIG    1       -7.910   6.853   3.999  0.00  0.00    +0.710 C 
ATOM     10  N   LIG    1       -8.582   7.852   3.393  0.00  0.00    -0.720 N 
ATOM     11  H   LIG    1       -8.102   8.512   2.870  0.00  0.00    +0.400 HD
ATOM     12  O   LIG    1       -8.513   6.025   4.655  0.00  0.00    -0.560 OA
BRANCH  10  13
ATOM     13  C   LIG    1      -10.039   7.940   3.524  0.00  0.00    +0.260 C 
ATOM     14  C   LIG    1      -10.513   9.398   3.323  0.00  0.00    +0.070 C 
ATOM     15  C   LIG    1      -10.855   9.412   1.817  0.00  0.00    +0.270 C 
ATOM     16  N   LIG    1      -11.170   8.021   1.473  0.00  0.00    -0.590 N 
ATOM     17  C   LIG    1      -10.718   7.172   2.412  0.00  0.00    +0.500 C 
ATOM     18  O   LIG    1      -10.837   5.965   2.373  0.00  0.00    -0.500 OA
BRANCH  16  19
ATOM     19  C   LIG    1      -11.885   7.609   0.262  0.00  0.00    +0.210 C 
ATOM     20  C   LIG    1      -12.307   6.143   0.155  0.00  0.00    +0.040 C 
ATOM     21  C   LIG    1      -11.157   6.672  -0.704  0.00  0.00    +0.000 C 
ENDBRANCH  16  19
ENDBRANCH  10  13
ENDBRANCH   4   7
BRANCH   1  22
ATOM     22  C   LIG    1       -2.228   5.333   3.846  0.00  0.00    +0.330 C 
BRANCH  22  25
ATOM     23  C   LIG    1       -0.787   2.892   1.346  0.00  0.00    +0.180 A 
ATOM     24  C   LIG    1       -1.430   3.408   2.463  0.00  0.00    -0.030 A 
ATOM     25  C   LIG    1       -1.534   4.776   2.631  0.00  0.00    -0.080 A 
ATOM     26  C   LIG    1       -1.007   5.632   1.683  0.00  0.00    -0.030 A 
ATOM     27  C   LIG    1       -0.368   5.121   0.562  0.00  0.00    +0.180 A 
ATOM     28  C   LIG    1       -0.259   3.749   0.394  0.00  0.00    -0.130 A 
BRANCH  23  30
ATOM     29  C   LIG    1       -0.013   1.086   0.008  0.00  0.00    +0.250 C 
ATOM     30  O   LIG    1       -0.682   1.547   1.184  0.00  0.00    -0.310 OA
ENDBRANCH  23  30
BRANCH  27  31
ATOM     31  O   LIG    1        0.149   5.964  -0.369  0.00  0.00    -0.310 OA
ATOM     32  C   LIG    1        0.794   5.368  -1.497  0.00  0.00    +0.250 C 
ENDBRANCH  27  31
ENDBRANCH  22  25
ENDBRANCH   1  22
TORSDOF 7
