REMARK  Name = ZINCrg00000AyoFC.1
REMARK                            x       y       z     vdW  Elec       q    Type
REMARK                         _______ _______ _______ _____ _____    ______ ____
ROOT
ATOM      1  C   LIG    1       -1.149   6.699   1.466  0.00  0.00    +0.530 C 
ATOM      2  N   LIG    1       -2.030   7.685   1.726  0.00  0.00    -0.620 N 
ATOM      3  C   LIG    1       -2.669   8.554   0.721  0.00  0.00    +0.260 C 
ATOM      4  C   LIG    1       -3.055   9.839   1.494  0.00  0.00    +0.030 C 
ATOM      5  C   LIG    1       -3.482   9.260   2.868  0.00  0.00    +0.250 C 
ATOM      6  C   LIG    1       -2.518   8.070   3.059  0.00  0.00    +0.260 C 
ATOM      7  O   LIG    1       -0.686   6.045   2.376  0.00  0.00    -0.520 OA
ENDROOT
BRANCH   5   8
ATOM      8  N   LIG    1       -3.300  10.253   3.929  0.00  0.00    -0.720 N 
ATOM      9  H   LIG    1       -2.476  10.271   4.441  0.00  0.00    +0.400 HD
ATOM     10  C   LIG    1       -4.277  11.143   4.194  0.00  0.00    +0.520 C 
ATOM     11  O   LIG    1       -5.307  11.122   3.554  0.00  0.00    -0.510 OA
BRANCH  10  12
ATOM     12  C   LIG    1       -4.090  12.165   5.285  0.00  0.00    +0.190 C 
BRANCH  12  13
ATOM     13  C   LIG    1       -5.318  13.033   5.377  0.00  0.00    +0.180 A 
ATOM     14  N   LIG    1       -5.859  13.713   4.404  0.00  0.00    -0.260 NA
ATOM     15  N   LIG    1       -6.896  14.340   4.837  0.00  0.00    -0.290 NA
ATOM     16  C   LIG    1       -7.063  14.088   6.106  0.00  0.00    +0.380 A 
ATOM     17  N   LIG    1       -6.069  13.247   6.484  0.00  0.00    -0.580 N 
ATOM     18  H   LIG    1       -5.924  12.876   7.369  0.00  0.00    +0.430 HD
ENDBRANCH  12  13
ENDBRANCH  10  12
ENDBRANCH   5   8
BRANCH   1  19
ATOM     19  C   LIG    1       -0.741   6.409   0.045  0.00  0.00    +0.140 C 
BRANCH  19  28
ATOM     20  C   LIG    1       -2.514   0.962   0.019  0.00  0.00    +0.080 C 
ATOM     21  C   LIG    1       -1.228   1.746   0.017  0.00  0.00    -0.110 A 
ATOM     22  C   LIG    1       -0.013   1.076   0.008  0.00  0.00    +0.020 A 
ATOM     23  C   LIG    1        1.175   1.774   0.000  0.00  0.00    -0.010 A 
ATOM     24  C   LIG    1        1.159   3.165   0.008  0.00  0.00    +0.090 A 
ATOM     25  N   LIG    1        2.147   4.124   0.004  0.00  0.00    -0.590 N 
ATOM     26  H   LIG    1        3.099   3.943  -0.006  0.00  0.00    +0.420 HD
ATOM     27  C   LIG    1        1.583   5.371   0.017  0.00  0.00    +0.240 A 
ATOM     28  C   LIG    1        0.245   5.269   0.029  0.00  0.00    -0.160 A 
ATOM     29  C   LIG    1       -0.075   3.840   0.023  0.00  0.00    -0.080 A 
ATOM     30  C   LIG    1       -1.267   3.112   0.031  0.00  0.00    +0.050 A 
ENDBRANCH  19  28
ENDBRANCH   1  19
TORSDOF 5
