REMARK  Name = ZINCkj00000dEgRK.0
REMARK                            x       y       z     vdW  Elec       q    Type
REMARK                         _______ _______ _______ _____ _____    ______ ____
ROOT
ATOM      1  O   LIG    1       -3.186   0.900  -0.976  0.00  0.00    -0.510 OA
ATOM      2  C   LIG    1       -2.079   0.774  -1.456  0.00  0.00    +0.530 C 
ATOM      3  N   LIG    1       -1.845  -0.192  -2.365  0.00  0.00    -0.600 N 
ATOM      4  C   LIG    1       -2.914  -1.109  -2.787  0.00  0.00    +0.340 C 
ATOM      5  C   LIG    1       -3.202  -0.893  -4.282  0.00  0.00    +0.310 C 
ATOM      6  N   LIG    1       -1.934  -0.839  -5.013  0.00  0.00    -0.420 N 
ATOM      7  C   LIG    1       -1.726  -1.002  -6.331  0.00  0.00    +0.150 A 
ATOM      8  N   LIG    1       -0.448  -0.864  -6.572  0.00  0.00    -0.400 NA
ATOM      9  C   LIG    1        0.198  -0.613  -5.420  0.00  0.00    +0.030 A 
ATOM     10 BR   LIG    1        2.058  -0.333  -5.222  0.00  0.00    +0.050 Br
ATOM     11  C   LIG    1       -0.711  -0.597  -4.438  0.00  0.00    +0.010 A 
ATOM     12  C   LIG    1       -0.506  -0.364  -2.962  0.00  0.00    +0.420 C 
ENDROOT
BRANCH   2  13
ATOM     13  C   LIG    1       -0.966   1.698  -1.034  0.00  0.00    +0.190 C 
ATOM     14  C   LIG    1       -0.013   1.086   0.008  0.00  0.00    +0.120 C 
ATOM     15  C   LIG    1       -0.946   1.687   1.075  0.00  0.00    +0.310 C 
ATOM     16  N   LIG    1       -1.354   2.653   0.028  0.00  0.00    -0.520 N 
ATOM     17  H   LIG    1       -2.343   2.850   0.038  0.00  0.00    +0.430 HD
ATOM     18  H   LIG    1       -0.792   3.491   0.028  0.00  0.00    +0.450 HD
ENDBRANCH   2  13
BRANCH   7  19
ATOM     19  C   LIG    1       -2.788  -1.295  -7.359  0.00  0.00    +0.570 C 
ATOM     20  F   LIG    1       -3.524  -0.133  -7.614  0.00  0.00    -0.160 F 
ATOM     21  F   LIG    1       -3.642  -2.292  -6.876  0.00  0.00    -0.160 F 
ATOM     22  F   LIG    1       -2.183  -1.733  -8.543  0.00  0.00    -0.140 F 
ENDBRANCH   7  19
TORSDOF 2
