REMARK  Name = ZINCrH000004pGfD.0
REMARK                            x       y       z     vdW  Elec       q    Type
REMARK                         _______ _______ _______ _____ _____    ______ ____
ROOT
ATOM      1  C   LIG    1        0.675   1.154  -0.265  0.00  0.00    +0.020 C 
ATOM      2  C   LIG    1       -0.136   1.724   0.901  0.00  0.00    +0.010 C 
ATOM      3  C   LIG    1       -1.600   1.298   0.759  0.00  0.00    +0.030 C 
ATOM      4  C   LIG    1       -2.406   1.851   1.936  0.00  0.00    +0.010 C 
ATOM      5  C   LIG    1       -1.847   1.291   3.246  0.00  0.00    +0.030 C 
ATOM      6  C   LIG    1       -0.384   1.716   3.398  0.00  0.00    +0.010 C 
ATOM      7  C   LIG    1        0.181   1.140   4.697  0.00  0.00    +0.040 C 
ATOM      8  C   LIG    1        0.425   1.194   2.216  0.00  0.00    +0.130 C 
ATOM      9  N   LIG    1        1.839   1.565   2.358  0.00  0.00    -0.720 N 
ATOM     10  H   LIG    1        2.203   2.463   2.397  0.00  0.00    +0.440 HD
ATOM     11  C   LIG    1        2.530   0.411   2.423  0.00  0.00    +0.710 C 
ATOM     12  N   LIG    1        1.738  -0.665   2.341  0.00  0.00    -0.570 N 
ATOM     13  O   LIG    1        3.739   0.353   2.543  0.00  0.00    -0.540 OA
ATOM     14  C   LIG    1        0.441  -0.317   2.213  0.00  0.00    +0.550 C 
ATOM     15  O   LIG    1       -0.512  -1.061   2.116  0.00  0.00    -0.450 OA
ENDROOT
BRANCH  12  16
ATOM     16  C   LIG    1        2.220  -2.048   2.384  0.00  0.00    +0.480 C 
BRANCH  16  17
ATOM     17  N   LIG    1        2.244  -2.515   3.776  0.00  0.00    -0.540 NA
ATOM     18  C   LIG    1        3.455  -2.051   4.466  0.00  0.00    +0.200 C 
BRANCH  17  19
ATOM     19  C   LIG    1        2.127  -3.978   3.843  0.00  0.00    +0.230 C 
ATOM     20  C   LIG    1        3.384  -4.611   3.248  0.00  0.00    -0.010 C 
ATOM     21  C   LIG    1        3.341  -6.119   3.522  0.00  0.00    +0.030 C 
ATOM     22  C   LIG    1        3.548  -6.343   5.018  0.00  0.00    +0.080 C 
ATOM     23  C   LIG    1        2.602  -5.485   5.818  0.00  0.00    -0.070 A 
ATOM     24  C   LIG    1        2.391  -5.822   7.148  0.00  0.00    -0.010 A 
ATOM     25  C   LIG    1        1.540  -5.074   7.935  0.00  0.00    +0.010 A 
ATOM     26  C   LIG    1        0.890  -3.980   7.395  0.00  0.00    -0.010 A 
ATOM     27  C   LIG    1        1.097  -3.644   6.073  0.00  0.00    +0.040 A 
ATOM     28  C   LIG    1        1.952  -4.397   5.279  0.00  0.00    -0.080 A 
ENDBRANCH  17  19
ENDBRANCH  16  17
ENDBRANCH  12  16
TORSDOF 3
