REMARK  Name = ZINCvU00000008nQ.0
REMARK                            x       y       z     vdW  Elec       q    Type
REMARK                         _______ _______ _______ _____ _____    ______ ____
ROOT
ATOM      1  N   LIG    1        5.240   9.909   1.711  0.00  0.00    -0.730 N 
ATOM      2  H   LIG    1        4.566  10.258   1.108  0.00  0.00    +0.400 HD
ATOM      3  C   LIG    1        5.404   8.577   1.839  0.00  0.00    +0.520 C 
ATOM      4  O   LIG    1        6.247   8.140   2.593  0.00  0.00    -0.530 OA
ENDROOT
BRANCH   1   6
ATOM      5  C   LIG    1        7.395  11.065   1.734  0.00  0.00    +0.040 C 
ATOM      6  C   LIG    1        6.081  10.828   2.482  0.00  0.00    +0.290 C 
BRANCH   6   7
ATOM      7  C   LIG    1        5.360  12.139   2.659  0.00  0.00    -0.110 A 
ATOM      8  C   LIG    1        4.635  12.675   1.611  0.00  0.00    +0.060 A 
ATOM      9  C   LIG    1        3.968  13.874   1.773  0.00  0.00    -0.050 A 
ATOM     10  C   LIG    1        4.037  14.547   2.984  0.00  0.00    +0.110 A 
ATOM     11  C   LIG    1        4.771  14.010   4.032  0.00  0.00    +0.020 A 
ATOM     12  C   LIG    1        5.430  12.807   3.867  0.00  0.00    +0.070 A 
BRANCH  10  13
ATOM     13  O   LIG    1        3.387  15.729   3.144  0.00  0.00    -0.310 OA
BRANCH  13  14
ATOM     14  C   LIG    1        2.651  16.222   2.022  0.00  0.00    +0.600 C 
ATOM     15  F   LIG    1        3.520  16.414   0.943  0.00  0.00    -0.160 F 
ATOM     16  F   LIG    1        2.048  17.439   2.358  0.00  0.00    -0.130 F 
ATOM     17  F   LIG    1        1.665  15.295   1.668  0.00  0.00    -0.160 F 
ENDBRANCH  13  14
ENDBRANCH  10  13
ENDBRANCH   6   7
ENDBRANCH   1   6
BRANCH   3  18
ATOM     18  C   LIG    1        4.539   7.631   1.046  0.00  0.00    +0.070 C 
BRANCH  18  19
ATOM     19  C   LIG    1        4.926   6.188   1.375  0.00  0.00    +0.210 C 
BRANCH  19  20
ATOM     20  C   LIG    1        4.061   5.243   0.582  0.00  0.00    +0.200 A 
ATOM     21  N   LIG    1        4.338   4.779  -0.604  0.00  0.00    -0.470 NA
ATOM     22  C   LIG    1        3.343   3.968  -0.996  0.00  0.00    +0.190 A 
ATOM     23  C   LIG    1        2.421   3.941   0.000  0.00  0.00    -0.020 A 
ATOM     24  O   LIG    1        2.881   4.748   0.981  0.00  0.00    -0.190 OA
BRANCH  23  25
ATOM     25  C   LIG    1        1.155   3.179   0.008  0.00  0.00    -0.090 A 
ATOM     26  C   LIG    1        1.176   1.781   0.000  0.00  0.00    +0.160 A 
ATOM     27  C   LIG    1       -0.013   1.076   0.008  0.00  0.00    -0.010 A 
ATOM     28  C   LIG    1       -1.221   1.749   0.017  0.00  0.00    +0.110 A 
ATOM     29  C   LIG    1       -1.250   3.132   0.030  0.00  0.00    -0.010 A 
ATOM     30  F   LIG    1        2.355   1.122  -0.013  0.00  0.00    -0.120 F 
ATOM     31  C   LIG    1       -0.070   3.852   0.022  0.00  0.00    +0.160 A 
ATOM     32  F   LIG    1       -0.100   5.202   0.029  0.00  0.00    -0.120 F 
ENDBRANCH  23  25
ENDBRANCH  19  20
ENDBRANCH  18  19
ENDBRANCH   3  18
TORSDOF 8
