REMARK  Name = ZINCb80000002jbb.1
REMARK                            x       y       z     vdW  Elec       q    Type
REMARK                         _______ _______ _______ _____ _____    ______ ____
ROOT
ATOM      1  C   LIG    1       -1.449  -0.507   0.098  0.00  0.00    +0.060 C 
ATOM      2  C   LIG    1        0.002  -0.004   0.002  0.00  0.00    +0.110 C 
ATOM      3  C   LIG    1       -0.019   1.528   0.010  0.00  0.00    +0.240 C 
ATOM      4  N   LIG    1        1.360   2.015  -0.000  0.00  0.00    -0.720 N 
ATOM      5  H   LIG    1        1.563   2.855  -0.426  0.00  0.00    +0.400 HD
ATOM      6  C   LIG    1        2.340   1.308   0.575  0.00  0.00    +0.510 C 
ATOM      7  C   LIG    1        2.092   0.040   1.337  0.00  0.00    +0.120 C 
ATOM      8  C   LIG    1        3.136  -1.006   0.921  0.00  0.00    +0.070 C 
ATOM      9  C   LIG    1        2.298   0.336   2.834  0.00  0.00    +0.060 C 
ATOM     10  O   LIG    1        3.479   1.713   0.473  0.00  0.00    -0.540 OA
ATOM     11  C   LIG    1        0.602  -0.506  -1.313  0.00  0.00    +0.040 C 
ATOM     12  N   LIG    1        0.752  -0.497   1.152  0.00  0.00    -0.700 NA
ATOM     13  H   LIG    1        0.209  -0.460   2.001  0.00  0.00    +0.360 HD
ENDROOT
TORSDOF 0
