REMARK  Name = ZINCpe00000MJKh0.0
REMARK                            x       y       z     vdW  Elec       q    Type
REMARK                         _______ _______ _______ _____ _____    ______ ____
ROOT
ATOM      1  C   LIG    1       -1.369   1.185  -0.110  0.00  0.00    +0.210 C 
ATOM      2  C   LIG    1       -0.855  -0.231  -0.140  0.00  0.00    +0.230 A 
ATOM      3  N   LIG    1       -0.579  -0.931  -1.211  0.00  0.00    -0.480 NA
ATOM      4  C   LIG    1       -0.147  -2.138  -0.800  0.00  0.00    +0.160 A 
ATOM      5  N   LIG    1       -0.177  -2.152   0.515  0.00  0.00    -0.250 NA
ATOM      6  N   LIG    1       -0.602  -1.010   0.932  0.00  0.00    -0.250 N 
ENDROOT
BRANCH   4   7
ATOM      7  C   LIG    1        0.279  -3.252  -1.673  0.00  0.00    +0.610 C 
ATOM      8  N   LIG    1        0.164  -3.141  -3.011  0.00  0.00    -0.590 N 
ATOM      9  C   LIG    1       -0.284  -1.884  -3.629  0.00  0.00    +0.300 C 
ATOM     10  C   LIG    1       -1.427  -2.192  -4.596  0.00  0.00    +0.160 C 
ATOM     11  N   LIG    1       -1.000  -3.232  -5.542  0.00  0.00    -0.530 NA
ATOM     12  C   LIG    1       -0.699  -4.492  -4.848  0.00  0.00    +0.170 C 
ATOM     13  C   LIG    1        0.479  -4.277  -3.892  0.00  0.00    +0.240 C 
ATOM     14  C   LIG    1        0.695  -5.536  -3.050  0.00  0.00    +0.060 C 
ATOM     15  O   LIG    1        0.732  -4.268  -1.184  0.00  0.00    -0.510 OA
BRANCH  11  16
ATOM     16  C   LIG    1       -2.008  -3.436  -6.590  0.00  0.00    +0.190 C 
BRANCH  16  17
ATOM     17  C   LIG    1       -2.362  -2.090  -7.226  0.00  0.00    +0.170 C 
BRANCH  17  18
ATOM     18  O   LIG    1       -1.205  -1.546  -7.865  0.00  0.00    -0.560 OA
ATOM     19  H   LIG    1       -1.356  -0.691  -8.290  0.00  0.00    +0.380 HD
ENDBRANCH  17  18
ENDBRANCH  16  17
ENDBRANCH  11  16
ENDBRANCH   4   7
BRANCH   6  20
ATOM     20  C   LIG    1       -0.772  -0.638   2.273  0.00  0.00    +0.110 A 
ATOM     21  C   LIG    1       -0.518   0.667   2.670  0.00  0.00    +0.070 A 
ATOM     22  C   LIG    1       -0.693   1.033   3.991  0.00  0.00    +0.020 A 
ATOM     23  C   LIG    1       -1.110   0.095   4.920  0.00  0.00    +0.120 A 
ATOM     24  C   LIG    1       -1.359  -1.210   4.527  0.00  0.00    +0.010 A 
ATOM     25  F   LIG    1       -1.275   0.453   6.212  0.00  0.00    -0.130 F 
ATOM     26  C   LIG    1       -1.191  -1.577   3.206  0.00  0.00    +0.090 A 
ENDBRANCH   6  20
TORSDOF 5
