REMARK  Name = ZINCpe00000VVGQ4.0
REMARK                            x       y       z     vdW  Elec       q    Type
REMARK                         _______ _______ _______ _____ _____    ______ ____
ROOT
ATOM      1  N   LIG    1       -5.436   5.959   2.730  0.00  0.00    -0.520 N 
ATOM      2  H   LIG    1       -4.792   6.480   2.227  0.00  0.00    +0.430 HD
ATOM      3  C   LIG    1       -6.415   6.579   3.418  0.00  0.00    +0.510 C 
ATOM      4  O   LIG    1       -7.272   5.927   3.975  0.00  0.00    -0.510 OA
ENDROOT
BRANCH   1   6
ATOM      5  C   LIG    1       -4.369   3.940   2.057  0.00  0.00    +0.500 C 
ATOM      6  N   LIG    1       -5.348   4.561   2.744  0.00  0.00    -0.520 N 
ATOM      7  H   LIG    1       -5.992   4.039   3.248  0.00  0.00    +0.430 HD
ATOM      8  O   LIG    1       -3.563   4.592   1.427  0.00  0.00    -0.520 OA
BRANCH   5   9
ATOM      9  C   LIG    1       -4.275   2.436   2.071  0.00  0.00    +0.390 C 
BRANCH   9  16
ATOM     10  C   LIG    1       -1.380   2.026   3.101  0.00  0.00    +0.140 C 
ATOM     11  C   LIG    1       -1.871   1.829   1.690  0.00  0.00    +0.100 A 
ATOM     12  C   LIG    1       -1.123   1.436   0.633  0.00  0.00    -0.120 A 
ATOM     13  C   LIG    1       -1.959   1.376  -0.487  0.00  0.00    +0.080 A 
ATOM     14  N   LIG    1       -3.164   1.725  -0.116  0.00  0.00    -0.290 NA
ATOM     15  C   LIG    1       -1.542   0.983  -1.881  0.00  0.00    +0.160 C 
ATOM     16  N   LIG    1       -3.135   2.010   1.255  0.00  0.00    -0.360 N 
ENDBRANCH   9  16
ENDBRANCH   5   9
ENDBRANCH   1   6
BRANCH   3  17
ATOM     17  C   LIG    1       -6.445   8.084   3.494  0.00  0.00    +0.180 C 
BRANCH  17  18
ATOM     18  C   LIG    1       -5.229   8.580   4.279  0.00  0.00    -0.030 C 
ATOM     19  C   LIG    1       -5.333   8.108   5.731  0.00  0.00    +0.030 C 
ATOM     20  C   LIG    1       -5.187  10.109   4.242  0.00  0.00    +0.040 C 
ENDBRANCH  17  18
BRANCH  17  21
ATOM     21  O   LIG    1       -7.642   8.504   4.153  0.00  0.00    -0.340 OA
BRANCH  21  22
ATOM     22  C   LIG    1       -8.269   9.639   3.553  0.00  0.00    +0.190 C 
BRANCH  22  23
ATOM     23  C   LIG    1       -9.456  10.079   4.411  0.00  0.00    +0.160 C 
ATOM     24  C   LIG    1      -10.118  11.343   3.806  0.00  0.00    +0.020 C 
ATOM     25  C   LIG    1      -11.558  11.222   4.374  0.00  0.00    +0.000 C 
ATOM     26  C   LIG    1      -11.774   9.694   4.398  0.00  0.00    +0.190 C 
ATOM     27  O   LIG    1      -10.483   9.074   4.394  0.00  0.00    -0.370 OA
ENDBRANCH  22  23
ENDBRANCH  21  22
ENDBRANCH  17  21
ENDBRANCH   3  17
TORSDOF 8
