REMARK  Name = ZINCrH000004q9hb.0
REMARK                            x       y       z     vdW  Elec       q    Type
REMARK                         _______ _______ _______ _____ _____    ______ ____
ROOT
ATOM      1  C   LIG    1       -3.491   1.872  -1.672  0.00  0.00    +0.600 C 
ATOM      2  N   LIG    1       -4.428   2.049  -0.721  0.00  0.00    -0.710 N 
ATOM      3  H   LIG    1       -4.163   2.238   0.193  0.00  0.00    +0.410 HD
ATOM      4  O   LIG    1       -3.824   1.635  -2.818  0.00  0.00    -0.480 OA
ENDROOT
BRANCH   1   7
ATOM      5  C   LIG    1       -1.138   1.508  -3.672  0.00  0.00    +0.140 C 
ATOM      6  C   LIG    1       -1.037   1.807  -2.199  0.00  0.00    -0.060 A 
ATOM      7  C   LIG    1       -2.066   1.966  -1.326  0.00  0.00    -0.040 A 
ATOM      8  O   LIG    1       -1.581   2.221  -0.093  0.00  0.00    -0.180 OA
ATOM      9  C   LIG    1       -0.234   2.250  -0.103  0.00  0.00    +0.080 A 
ATOM     10  C   LIG    1        0.721   2.470   0.883  0.00  0.00    +0.050 A 
ATOM     11  C   LIG    1        2.060   2.436   0.561  0.00  0.00    +0.080 A 
ATOM     12  C   LIG    1        2.471   2.182  -0.741  0.00  0.00    -0.050 A 
ATOM     13  C   LIG    1        1.549   1.962  -1.727  0.00  0.00    +0.090 A 
ATOM     14 CL   LIG    1        4.165   2.143  -1.120  0.00  0.00    -0.060 Cl
ATOM     15  C   LIG    1        0.187   1.992  -1.421  0.00  0.00    -0.130 A 
ENDBRANCH   1   7
BRANCH   2  16
ATOM     16  C   LIG    1       -5.849   1.955  -1.066  0.00  0.00    +0.270 C 
ATOM     17  C   LIG    1       -6.671   2.766  -0.061  0.00  0.00    +0.050 C 
ATOM     18  C   LIG    1       -6.660   2.029   1.283  0.00  0.00    +0.030 C 
ATOM     19  C   LIG    1       -7.442   0.724   1.132  0.00  0.00    +0.270 C 
ATOM     20  N   LIG    1       -6.972  -0.022  -0.028  0.00  0.00    -0.560 N 
ATOM     21  C   LIG    1       -6.277   0.515  -1.031  0.00  0.00    +0.500 C 
ATOM     22  O   LIG    1       -5.974  -0.196  -1.966  0.00  0.00    -0.510 OA
BRANCH  20  23
ATOM     23  C   LIG    1       -7.269  -1.388  -0.094  0.00  0.00    +0.080 A 
ATOM     24  C   LIG    1       -6.388  -2.329   0.434  0.00  0.00    +0.060 A 
ATOM     25  C   LIG    1       -6.726  -3.669   0.345  0.00  0.00    -0.020 A 
ATOM     26  C   LIG    1       -7.915  -4.027  -0.261  0.00  0.00    +0.260 A 
ATOM     27  N   LIG    1       -8.728  -3.112  -0.752  0.00  0.00    -0.470 NA
ATOM     28  C   LIG    1       -8.448  -1.826  -0.683  0.00  0.00    +0.280 A 
ENDBRANCH  20  23
ENDBRANCH   2  16
TORSDOF 3
