REMARK  Name = ZINCrD00000F5Lk8.0
REMARK                            x       y       z     vdW  Elec       q    Type
REMARK                         _______ _______ _______ _____ _____    ______ ____
ROOT
ATOM      1  C   LIG    1        0.000  -0.696  -1.212  0.00  0.00    +0.230 A 
ATOM      2  C   LIG    1        1.196  -0.944  -1.874  0.00  0.00    +0.030 A 
ATOM      3  C   LIG    1        1.190  -1.628  -3.074  0.00  0.00    +0.140 A 
ATOM      4  C   LIG    1       -0.004  -2.066  -3.616  0.00  0.00    -0.100 A 
ATOM      5  C   LIG    1       -1.197  -1.821  -2.959  0.00  0.00    +0.130 A 
ATOM      6  C   LIG    1       -1.198  -1.143  -1.756  0.00  0.00    -0.050 A 
ENDROOT
BRANCH   4   7
ATOM      7  C   LIG    1       -0.006  -2.812  -4.925  0.00  0.00    +0.420 C 
ATOM      8  N   LIG    1        0.558  -1.969  -6.003  0.00  0.00    -0.740 N 
ATOM      9  H   LIG    1        0.386  -1.022  -6.125  0.00  0.00    +0.420 HD
ATOM     10  C   LIG    1        1.358  -2.735  -6.797  0.00  0.00    +0.540 C 
ATOM     11  C   LIG    1        1.235  -4.145  -6.302  0.00  0.00    +0.120 C 
ATOM     12  C   LIG    1        2.502  -4.985  -6.351  0.00  0.00    +0.070 C 
ATOM     13  C   LIG    1        2.138  -6.365  -5.770  0.00  0.00    +0.010 C 
ATOM     14  C   LIG    1        1.558  -6.227  -4.364  0.00  0.00    +0.030 C 
ATOM     15  C   LIG    1        0.395  -5.222  -4.338  0.00  0.00    +0.200 C 
ATOM     16  O   LIG    1        2.038  -2.350  -7.725  0.00  0.00    -0.500 OA
ATOM     17  N   LIG    1        0.897  -3.963  -4.861  0.00  0.00    -0.520 NA
ENDBRANCH   4   7
BRANCH   6  18
ATOM     18  N   LIG    1       -2.474  -0.887  -1.051  0.00  0.00    +0.030 N 
ATOM     19  O   LIG    1       -2.474  -0.284   0.007  0.00  0.00    -0.130 OA
ATOM     20  O   LIG    1       -3.523  -1.279  -1.529  0.00  0.00    -0.170 OA
ENDBRANCH   6  18
BRANCH   1  22
ATOM     21  C   LIG    1       -0.116   1.456   0.013  0.00  0.00    +0.300 C 
ATOM     22  N   LIG    1        0.002  -0.004   0.002  0.00  0.00    -0.600 N 
BRANCH  22  23
ATOM     23  C   LIG    1        0.116  -0.705   1.205  0.00  0.00    +0.220 A 
ATOM     24  C   LIG    1        0.223  -2.090   1.197  0.00  0.00    -0.080 A 
ATOM     25  C   LIG    1        0.341  -2.779   2.388  0.00  0.00    +0.050 A 
ATOM     26  C   LIG    1        0.344  -2.092   3.589  0.00  0.00    -0.050 A 
ATOM     27  C   LIG    1        0.232  -0.714   3.601  0.00  0.00    +0.050 A 
ATOM     28  C   LIG    1        0.119  -0.018   2.413  0.00  0.00    -0.050 A 
ENDBRANCH  22  23
ENDBRANCH   1  22
TORSDOF 4
