REMARK  Name = ZINCrH000004nMme.0
REMARK                            x       y       z     vdW  Elec       q    Type
REMARK                         _______ _______ _______ _____ _____    ______ ____
ROOT
ATOM      1  C   LIG    1       -1.187   1.624   0.017  0.00  0.00    +0.560 C 
ATOM      2  N   LIG    1       -0.011   0.966   0.007  0.00  0.00    -0.720 N 
ATOM      3  H   LIG    1        0.002  -0.004   0.002  0.00  0.00    +0.400 HD
ATOM      4  O   LIG    1       -1.204   2.839   0.023  0.00  0.00    -0.520 OA
ENDROOT
BRANCH   1   8
ATOM      5  C   LIG    1       -4.837  -0.550   0.021  0.00  0.00    -0.070 A 
ATOM      6  C   LIG    1       -4.859   0.834   0.029  0.00  0.00    +0.030 A 
ATOM      7  C   LIG    1       -3.677   1.546   0.028  0.00  0.00    +0.080 A 
ATOM      8  C   LIG    1       -2.458   0.867   0.018  0.00  0.00    -0.120 A 
ATOM      9  C   LIG    1       -2.442  -0.528   0.005  0.00  0.00    +0.050 A 
ATOM     10  C   LIG    1       -3.631  -1.228   0.012  0.00  0.00    +0.030 A 
BRANCH   5  11
ATOM     11  C   LIG    1       -6.131  -1.321   0.023  0.00  0.00    -0.270 C 
BRANCH  11  13
ATOM     12  C   LIG    1       -8.202  -2.543  -1.447  0.00  0.00    -0.270 C 
ATOM     13  S   LIG    1       -6.658  -1.621  -1.687  0.00  0.00    +2.420 S 
ATOM     14  O   LIG    1       -5.711  -2.479  -2.308  0.00  0.00    -0.930 OA
ATOM     15  O   LIG    1       -6.966  -0.372  -2.292  0.00  0.00    -0.930 OA
ENDBRANCH  11  13
ENDBRANCH   5  11
ENDBRANCH   1   8
BRANCH   2  16
ATOM     16  C   LIG    1        1.248   1.716  -0.001  0.00  0.00    +0.340 C 
BRANCH  16  17
ATOM     17  C   LIG    1        2.332   0.870  -0.616  0.00  0.00    -0.090 A 
ATOM     18  C   LIG    1        2.404  -0.480  -0.327  0.00  0.00    +0.010 A 
ATOM     19  C   LIG    1        3.396  -1.257  -0.895  0.00  0.00    +0.020 A 
ATOM     20  C   LIG    1        4.323  -0.682  -1.744  0.00  0.00    +0.000 A 
ATOM     21  C   LIG    1        4.254   0.668  -2.030  0.00  0.00    +0.020 A 
ATOM     22  C   LIG    1        3.259   1.444  -1.466  0.00  0.00    +0.030 A 
ENDBRANCH  16  17
BRANCH  16  23
ATOM     23  C   LIG    1        1.629   2.071   1.413  0.00  0.00    -0.090 A 
ATOM     24  C   LIG    1        1.438   1.157   2.432  0.00  0.00    +0.020 A 
ATOM     25  C   LIG    1        1.793   1.481   3.728  0.00  0.00    +0.000 A 
ATOM     26  C   LIG    1        2.329   2.724   4.007  0.00  0.00    +0.000 A 
ATOM     27  C   LIG    1        2.515   3.641   2.989  0.00  0.00    +0.000 A 
ATOM     28  C   LIG    1        2.165   3.315   1.692  0.00  0.00    +0.020 A 
ENDBRANCH  16  23
ENDBRANCH   2  16
TORSDOF 6
