REMARK  Name = ZINCqH0000007eer.0
REMARK                            x       y       z     vdW  Elec       q    Type
REMARK                         _______ _______ _______ _____ _____    ______ ____
ROOT
ATOM      1  C   LIG    1        2.871   4.199  -1.423  0.00  0.00    +0.180 A 
ATOM      2  N   LIG    1        2.550   5.234  -2.140  0.00  0.00    -0.380 NA
ATOM      3  O   LIG    1        3.046   5.150  -3.244  0.00  0.00    +0.090 OA
ATOM      4  C   LIG    1        3.752   4.019  -3.339  0.00  0.00    +0.190 A 
ATOM      5  N   LIG    1        3.650   3.408  -2.183  0.00  0.00    -0.470 NA
ENDROOT
BRANCH   4   6
ATOM      6  C   LIG    1        4.521   3.539  -4.543  0.00  0.00    +0.270 C 
ATOM      7  C   LIG    1        5.811   4.350  -4.680  0.00  0.00    +0.080 C 
BRANCH   6   8
ATOM      8  N   LIG    1        3.702   3.715  -5.750  0.00  0.00    -0.520 NA
ATOM      9  C   LIG    1        4.423   3.256  -6.948  0.00  0.00    +0.230 C 
ATOM     10  C   LIG    1        4.926   1.835  -6.697  0.00  0.00    +0.050 C 
ATOM     11  C   LIG    1        3.799   0.971  -6.192  0.00  0.00    -0.080 A 
ATOM     12  C   LIG    1        3.949  -0.406  -6.239  0.00  0.00    +0.000 A 
ATOM     13  C   LIG    1        2.941  -1.233  -5.784  0.00  0.00    +0.000 A 
ATOM     14  C   LIG    1        1.777  -0.685  -5.279  0.00  0.00    +0.000 A 
ATOM     15  C   LIG    1        1.626   0.686  -5.233  0.00  0.00    +0.010 A 
ATOM     16  C   LIG    1        2.636   1.518  -5.691  0.00  0.00    -0.110 A 
ATOM     17  C   LIG    1        2.423   3.008  -5.625  0.00  0.00    +0.270 C 
ENDBRANCH   6   8
ENDBRANCH   4   6
BRANCH   1  18
ATOM     18  C   LIG    1        2.452   3.935  -0.000  0.00  0.00    +0.230 C 
BRANCH  18  22
ATOM     19  C   LIG    1       -1.223   1.754   0.017  0.00  0.00    +0.130 A 
ATOM     20  C   LIG    1       -0.013   1.076   0.008  0.00  0.00    -0.020 A 
ATOM     21  C   LIG    1        1.174   1.783   0.000  0.00  0.00    +0.070 A 
ATOM     22  C   LIG    1        1.156   3.166   0.007  0.00  0.00    -0.130 A 
ATOM     23  C   LIG    1       -0.049   3.844   0.022  0.00  0.00    +0.070 A 
ATOM     24  C   LIG    1       -1.238   3.141   0.029  0.00  0.00    -0.080 A 
BRANCH  19  26
ATOM     25  C   LIG    1       -3.599   1.824   0.029  0.00  0.00    +0.250 C 
ATOM     26  O   LIG    1       -2.392   1.060   0.019  0.00  0.00    -0.320 OA
ENDBRANCH  19  26
ENDBRANCH  18  22
ENDBRANCH   1  18
TORSDOF 5
