REMARK  Name = ZINCrg00000fSFGX.0
REMARK                            x       y       z     vdW  Elec       q    Type
REMARK                         _______ _______ _______ _____ _____    ______ ____
ROOT
ATOM      1  O   LIG    1       -0.036  -0.028   0.287  0.00  0.00    -0.490 OA
ATOM      2  C   LIG    1       -0.040   1.188   0.279  0.00  0.00    +0.560 C 
ATOM      3  N   LIG    1        1.119   1.867   0.383  0.00  0.00    -0.720 N 
ATOM      4  H   LIG    1        1.116   2.837   0.377  0.00  0.00    +0.400 HD
ENDROOT
BRANCH   2   5
ATOM      5  C   LIG    1       -1.317   1.922   0.150  0.00  0.00    -0.100 A 
ATOM      6  C   LIG    1       -1.341   3.313   0.262  0.00  0.00    +0.040 A 
ATOM      7  C   LIG    1       -2.536   3.991   0.140  0.00  0.00    +0.020 A 
ATOM      8  C   LIG    1       -3.709   3.296  -0.093  0.00  0.00    +0.030 A 
ATOM      9  C   LIG    1       -3.693   1.917  -0.205  0.00  0.00    +0.020 A 
ATOM     10  C   LIG    1       -2.504   1.227  -0.090  0.00  0.00    -0.060 A 
BRANCH  10  11
ATOM     11  C   LIG    1       -2.487  -0.275  -0.219  0.00  0.00    +0.380 C 
BRANCH  11  12
ATOM     12  N   LIG    1       -2.537  -0.879   1.114  0.00  0.00    -0.360 N 
ATOM     13  C   LIG    1       -3.430  -1.781   1.557  0.00  0.00    +0.450 A 
ATOM     14  N   LIG    1       -3.134  -2.071   2.798  0.00  0.00    -0.550 NA
ATOM     15  C   LIG    1       -2.063  -1.377   3.181  0.00  0.00    +0.390 A 
ATOM     16  N   LIG    1       -1.657  -0.637   2.182  0.00  0.00    -0.280 NA
ENDBRANCH  11  12
ENDBRANCH  10  11
ENDBRANCH   2   5
BRANCH   3  17
ATOM     17  C   LIG    1        2.385   1.139   0.506  0.00  0.00    +0.260 C 
ATOM     18  C   LIG    1        3.440   2.027   1.198  0.00  0.00    +0.050 C 
ATOM     19  C   LIG    1        4.230   2.662   0.026  0.00  0.00    -0.020 C 
ATOM     20  C   LIG    1        4.311   1.504  -0.999  0.00  0.00    +0.020 C 
ATOM     21  C   LIG    1        2.938   0.806  -0.891  0.00  0.00    +0.150 C 
BRANCH  21  22
ATOM     22  O   LIG    1        3.095  -0.608  -1.030  0.00  0.00    -0.560 OA
ATOM     23  H   LIG    1        3.441  -0.882  -1.891  0.00  0.00    +0.380 HD
ENDBRANCH  21  22
BRANCH  19  24
ATOM     24  C   LIG    1        5.627   3.087   0.482  0.00  0.00    +0.330 C 
BRANCH  24  25
ATOM     25  N   LIG    1        6.305   3.790  -0.611  0.00  0.00    -0.370 N 
ATOM     26  C   LIG    1        6.844   5.025  -0.546  0.00  0.00    +0.220 A 
ATOM     27  C   LIG    1        7.371   5.308  -1.760  0.00  0.00    -0.120 A 
ATOM     28  C   LIG    1        7.147   4.208  -2.594  0.00  0.00    +0.220 A 
ATOM     29  N   LIG    1        6.512   3.295  -1.905  0.00  0.00    -0.290 NA
ENDBRANCH  24  25
ENDBRANCH  19  24
ENDBRANCH   3  17
TORSDOF 7
