REMARK  Name = ZINCrD000000Ab63.0
REMARK                            x       y       z     vdW  Elec       q    Type
REMARK                         _______ _______ _______ _____ _____    ______ ____
ROOT
ATOM      1  C   LIG    1        0.829   1.977   3.065  0.00  0.00    +0.520 C 
ATOM      2  N   LIG    1        0.163   2.036   4.235  0.00  0.00    -0.620 N 
ATOM      3  C   LIG    1       -1.024   2.891   4.378  0.00  0.00    +0.270 C 
ATOM      4  C   LIG    1       -2.194   2.019   4.866  0.00  0.00    +0.270 C 
ATOM      5  N   LIG    1       -1.743   1.234   6.023  0.00  0.00    -0.610 N 
ATOM      6  C   LIG    1       -0.553   0.384   5.882  0.00  0.00    +0.290 C 
ATOM      7  C   LIG    1       -2.408   1.294   7.194  0.00  0.00    +0.560 C 
ATOM      8  O   LIG    1       -2.067   0.589   8.123  0.00  0.00    -0.530 OA
ATOM      9  C   LIG    1        0.614   1.251   5.393  0.00  0.00    +0.280 C 
ATOM     10  O   LIG    1        1.810   1.272   2.960  0.00  0.00    -0.540 OA
ENDROOT
BRANCH   7  11
ATOM     11  C   LIG    1       -3.553   2.216   7.347  0.00  0.00    -0.130 A 
ATOM     12  C   LIG    1       -4.588   2.211   6.411  0.00  0.00    +0.030 A 
ATOM     13  C   LIG    1       -5.656   3.071   6.563  0.00  0.00    +0.010 A 
ATOM     14  C   LIG    1       -5.697   3.945   7.635  0.00  0.00    +0.030 A 
ATOM     15  C   LIG    1       -4.672   3.959   8.564  0.00  0.00    +0.010 A 
ATOM     16  C   LIG    1       -3.601   3.100   8.427  0.00  0.00    +0.060 A 
ENDBRANCH   7  11
BRANCH   1  17
ATOM     17  C   LIG    1        0.354   2.788   1.887  0.00  0.00    +0.070 C 
BRANCH  17  18
ATOM     18  C   LIG    1        1.279   2.542   0.693  0.00  0.00    +0.070 C 
BRANCH  18  20
ATOM     19  O   LIG    1       -0.176   4.058  -0.381  0.00  0.00    -0.450 OA
ATOM     20  C   LIG    1        0.804   3.353  -0.486  0.00  0.00    +0.400 C 
BRANCH  20  21
ATOM     21  C   LIG    1        1.531   3.288  -1.763  0.00  0.00    -0.160 A 
ATOM     22  C   LIG    1        2.667   2.480  -1.886  0.00  0.00    +0.080 A 
ATOM     23  C   LIG    1        3.339   2.421  -3.088  0.00  0.00    +0.040 A 
ATOM     24  C   LIG    1        2.900   3.168  -4.169  0.00  0.00    -0.060 A 
ATOM     25  C   LIG    1        1.780   3.974  -4.053  0.00  0.00    +0.040 A 
ATOM     26 BR   LIG    1        3.835   3.086  -5.811  0.00  0.00    -0.040 Br
ATOM     27  C   LIG    1        1.094   4.040  -2.859  0.00  0.00    +0.090 A 
ENDBRANCH  20  21
ENDBRANCH  18  20
ENDBRANCH  17  18
ENDBRANCH   1  17
TORSDOF 5
