REMARK  Name = ZINCqH0000033ztc.0
REMARK                            x       y       z     vdW  Elec       q    Type
REMARK                         _______ _______ _______ _____ _____    ______ ____
ROOT
ATOM      1  N   LIG    1        1.832  -1.791  -2.799  0.00  0.00    -0.440 N 
ATOM      2  C   LIG    1        2.354  -2.171  -1.478  0.00  0.00    +0.210 C 
ATOM      3  C   LIG    1        2.107  -1.031  -0.488  0.00  0.00    +0.210 C 
ATOM      4  N   LIG    1        2.761   0.191  -0.978  0.00  0.00    -0.530 NA
ATOM      5  C   LIG    1        2.239   0.571  -2.298  0.00  0.00    +0.190 C 
ATOM      6  C   LIG    1        2.486  -0.570  -3.289  0.00  0.00    +0.220 C 
ENDROOT
BRANCH   4   7
ATOM      7  C   LIG    1        2.610   1.290  -0.015  0.00  0.00    +0.240 C 
ATOM      8  C   LIG    1        1.117   1.537   0.287  0.00  0.00    +0.000 C 
ATOM      9  C   LIG    1        1.143   1.944   1.775  0.00  0.00    +0.090 C 
ATOM     10  C   LIG    1        2.383   1.288   2.344  0.00  0.00    -0.090 A 
ATOM     11  C   LIG    1        2.746   1.040   3.658  0.00  0.00    -0.020 A 
ATOM     12  C   LIG    1        3.948   0.418   3.942  0.00  0.00    +0.030 A 
ATOM     13  C   LIG    1        4.787   0.038   2.912  0.00  0.00    +0.020 A 
ATOM     14  C   LIG    1        4.429   0.290   1.601  0.00  0.00    +0.050 A 
ATOM     15 CL   LIG    1        1.688   1.511   4.951  0.00  0.00    -0.070 Cl
ATOM     16  C   LIG    1        3.226   0.913   1.315  0.00  0.00    -0.080 A 
ENDBRANCH   4   7
BRANCH   1  20
ATOM     17  C   LIG    1        1.823  -3.888  -5.675  0.00  0.00    +0.050 A 
ATOM     18  C   LIG    1        2.406  -4.910  -5.010  0.00  0.00    +0.010 A 
ATOM     19  S   LIG    1        2.682  -4.399  -3.347  0.00  0.00    +0.090 S 
ATOM     20  C   LIG    1        1.974  -2.828  -3.705  0.00  0.00    +0.270 A 
ATOM     21  N   LIG    1        1.602  -2.791  -4.944  0.00  0.00    -0.460 NA
BRANCH  17  22
ATOM     22  C   LIG    1        1.454  -3.978  -7.096  0.00  0.00    +0.550 C 
ATOM     23  O   LIG    1        1.672  -5.000  -7.716  0.00  0.00    -0.500 OA
BRANCH  22  24
ATOM     24  O   LIG    1        0.874  -2.927  -7.709  0.00  0.00    -0.330 OA
BRANCH  24  26
ATOM     25  C   LIG    1       -0.108  -1.801  -9.632  0.00  0.00    +0.070 C 
ATOM     26  C   LIG    1        0.537  -3.088  -9.113  0.00  0.00    +0.200 C 
ENDBRANCH  24  26
ENDBRANCH  22  24
ENDBRANCH  17  22
ENDBRANCH   1  20
TORSDOF 5
