REMARK  Name = ZINCpk00000eaZc4.0
REMARK                            x       y       z     vdW  Elec       q    Type
REMARK                         _______ _______ _______ _____ _____    ______ ____
ROOT
ATOM      1  N   LIG    1       -0.017   1.463   0.005  0.00  0.00    -0.530 NA
ATOM      2  C   LIG    1        1.345   2.014  -0.004  0.00  0.00    +0.170 C 
ATOM      3  C   LIG    1        2.072   1.593   1.277  0.00  0.00    +0.280 C 
ATOM      4  N   LIG    1        1.995   0.129   1.399  0.00  0.00    -0.630 N 
ATOM      5  C   LIG    1        0.675  -0.510   1.281  0.00  0.00    +0.320 C 
ATOM      6  C   LIG    1        3.103  -0.607   1.612  0.00  0.00    +0.710 C 
ATOM      7  N   LIG    1        4.314  -0.015   1.617  0.00  0.00    -0.740 N 
ATOM      8  H   LIG    1        4.383   0.950   1.540  0.00  0.00    +0.410 HD
ATOM      9  O   LIG    1        3.011  -1.804   1.800  0.00  0.00    -0.590 OA
ATOM     10  C   LIG    1        0.003  -0.006  -0.001  0.00  0.00    +0.170 C 
ENDROOT
BRANCH   1  11
ATOM     11  C   LIG    1       -0.804   1.983  -1.120  0.00  0.00    +0.230 C 
BRANCH  11  16
ATOM     12  C   LIG    1       -1.589   7.670  -0.457  0.00  0.00    +0.090 C 
ATOM     13  C   LIG    1       -1.384   6.187  -0.630  0.00  0.00    -0.080 A 
ATOM     14  C   LIG    1       -0.281   5.717  -1.318  0.00  0.00    +0.000 A 
ATOM     15  C   LIG    1       -0.093   4.357  -1.476  0.00  0.00    +0.010 A 
ATOM     16  C   LIG    1       -1.008   3.466  -0.947  0.00  0.00    -0.090 A 
ATOM     17  C   LIG    1       -2.115   3.936  -0.264  0.00  0.00    +0.030 A 
ATOM     18  C   LIG    1       -2.300   5.296  -0.101  0.00  0.00    +0.000 A 
ENDBRANCH  11  16
ENDBRANCH   1  11
BRANCH   7  19
ATOM     19  C   LIG    1        5.527  -0.828   1.737  0.00  0.00    +0.330 C 
BRANCH  19  20
ATOM     20  C   LIG    1        6.738   0.068   1.717  0.00  0.00    +0.530 C 
ATOM     21  N   LIG    1        7.972  -0.464   1.815  0.00  0.00    -0.620 N 
ATOM     22  C   LIG    1        8.280  -1.895   1.953  0.00  0.00    +0.240 C 
ATOM     23  C   LIG    1        9.814  -2.026   2.054  0.00  0.00    +0.040 C 
ATOM     24  C   LIG    1       10.249  -0.620   2.544  0.00  0.00    +0.030 C 
ATOM     25  C   LIG    1        9.237   0.293   1.808  0.00  0.00    +0.250 C 
ATOM     26  O   LIG    1        6.601   1.269   1.612  0.00  0.00    -0.540 OA
ENDBRANCH  19  20
ENDBRANCH   7  19
TORSDOF 4
