REMARK  Name = ZINCrH00000No4HA.0
REMARK                            x       y       z     vdW  Elec       q    Type
REMARK                         _______ _______ _______ _____ _____    ______ ____
ROOT
ATOM      1  C   LIG    1        6.178   6.509  -1.907  0.00  0.00    -0.120 A 
ATOM      2  C   LIG    1        5.450   6.050  -3.011  0.00  0.00    +0.090 A 
ATOM      3  C   LIG    1        4.314   5.298  -2.818  0.00  0.00    -0.010 A 
ATOM      4  C   LIG    1        3.889   4.994  -1.530  0.00  0.00    +0.150 A 
ATOM      5  C   LIG    1        4.605   5.452  -0.430  0.00  0.00    -0.080 A 
ATOM      6  C   LIG    1        5.746   6.200  -0.612  0.00  0.00    +0.070 A 
ENDROOT
BRANCH   1   8
ATOM      7  C   LIG    1        8.093   7.754  -1.041  0.00  0.00    -0.100 C 
ATOM      8  C   LIG    1        7.393   7.313  -2.107  0.00  0.00    +0.140 C 
BRANCH   7  15
ATOM      9  C   LIG    1       10.210   7.498   1.673  0.00  0.00    +0.140 C 
ATOM     10  C   LIG    1        9.467   8.761   1.155  0.00  0.00    +0.250 C 
ATOM     11  N   LIG    1        9.942   9.082  -0.178  0.00  0.00    -0.610 N 
ATOM     12  C   LIG    1       11.096   9.970  -0.416  0.00  0.00    +0.270 C 
ATOM     13  C   LIG    1       12.231   9.675   0.576  0.00  0.00    -0.000 C 
ATOM     14  C   LIG    1       12.352   8.179   0.779  0.00  0.00    +0.220 C 
ATOM     15  C   LIG    1        9.302   8.553  -1.240  0.00  0.00    +0.550 C 
ATOM     16  O   LIG    1        9.729   8.741  -2.364  0.00  0.00    -0.540 OA
ATOM     17  O   LIG    1       11.540   7.800   1.882  0.00  0.00    -0.380 OA
BRANCH   9  19
ATOM     18  C   LIG    1       10.224   5.729   3.436  0.00  0.00    +0.020 C 
ATOM     19  C   LIG    1        9.577   7.041   2.989  0.00  0.00    +0.040 C 
ENDBRANCH   9  19
ENDBRANCH   7  15
ENDBRANCH   1   8
BRANCH   4  20
ATOM     20  O   LIG    1        2.767   4.251  -1.345  0.00  0.00    -0.310 OA
BRANCH  20  21
ATOM     21  C   LIG    1        2.387   3.975   0.004  0.00  0.00    +0.270 C 
BRANCH  21  22
ATOM     22  C   LIG    1        1.129   3.146   0.012  0.00  0.00    -0.150 A 
ATOM     23  C   LIG    1        1.200   1.762  -0.004  0.00  0.00    +0.090 A 
ATOM     24  C   LIG    1        0.016   1.040   0.005  0.00  0.00    -0.030 A 
ATOM     25  C   LIG    1       -1.187   1.719   0.022  0.00  0.00    +0.270 A 
ATOM     26  N   LIG    1       -1.217   3.037   0.042  0.00  0.00    -0.490 NA
ATOM     27  C   LIG    1       -0.112   3.756   0.034  0.00  0.00    +0.290 A 
ENDBRANCH  21  22
ENDBRANCH  20  21
ENDBRANCH   4  20
TORSDOF 6
