REMARK  Name = ZINCrg000000sCnh.0
REMARK                            x       y       z     vdW  Elec       q    Type
REMARK                         _______ _______ _______ _____ _____    ______ ____
ROOT
ATOM      1  C   LIG    1       -1.196   3.455  -0.770  0.00  0.00    +0.330 C 
ATOM      2  C   LIG    1       -1.395   3.467  -2.290  0.00  0.00    +0.250 C 
ATOM      3  O   LIG    1       -2.540   2.677  -2.621  0.00  0.00    -0.370 OA
ATOM      4  C   LIG    1       -2.420   1.297  -2.271  0.00  0.00    +0.210 C 
ATOM      5  C   LIG    1       -2.269   1.172  -0.754  0.00  0.00    +0.250 C 
ATOM      6  N   LIG    1       -1.177   2.055  -0.316  0.00  0.00    -0.610 N 
ATOM      7  C   LIG    1       -0.187   1.595   0.473  0.00  0.00    +0.580 C 
ATOM      8  O   LIG    1        0.656   2.361   0.901  0.00  0.00    -0.510 OA
ENDROOT
BRANCH   7   9
ATOM      9  C   LIG    1       -0.121   0.163   0.813  0.00  0.00    -0.170 A 
ATOM     10  C   LIG    1       -1.297  -0.569   0.997  0.00  0.00    +0.080 A 
ATOM     11  C   LIG    1       -1.232  -1.907   1.314  0.00  0.00    -0.020 A 
ATOM     12  C   LIG    1        0.003  -2.534   1.453  0.00  0.00    +0.150 A 
ATOM     13  C   LIG    1        1.176  -1.817   1.272  0.00  0.00    -0.040 A 
ATOM     14  C   LIG    1        1.123  -0.472   0.948  0.00  0.00    +0.190 A 
BRANCH  12  15
ATOM     15  O   LIG    1        0.059  -3.853   1.766  0.00  0.00    -0.490 OA
ATOM     16  H   LIG    1        0.067  -4.440   0.997  0.00  0.00    +0.400 HD
ENDBRANCH  12  15
BRANCH  14  17
ATOM     17  O   LIG    1        2.270   0.230   0.766  0.00  0.00    -0.480 OA
ATOM     18  H   LIG    1        2.613   0.638   1.572  0.00  0.00    +0.400 HD
ENDBRANCH  14  17
ENDBRANCH   7   9
BRANCH   1  21
ATOM     19  C   LIG    1        1.577   5.410   0.404  0.00  0.00    +0.270 A 
ATOM     20  N   LIG    1        0.277   5.168   0.395  0.00  0.00    -0.480 NA
ATOM     21  C   LIG    1        0.113   4.118  -0.425  0.00  0.00    +0.190 A 
ATOM     22  N   LIG    1        1.288   3.772  -0.862  0.00  0.00    -0.360 NA
ATOM     23  O   LIG    1        2.143   4.501  -0.405  0.00  0.00    +0.080 OA
BRANCH  19  27
ATOM     24  C   LIG    1        5.145   8.370   2.273  0.00  0.00    +0.370 C 
ATOM     25  N   LIG    1        3.842   7.769   1.976  0.00  0.00    -0.360 N 
ATOM     26  C   LIG    1        3.628   6.716   1.168  0.00  0.00    +0.300 A 
ATOM     27  C   LIG    1        2.271   6.473   1.158  0.00  0.00    -0.190 A 
ATOM     28  C   LIG    1        1.669   7.425   2.009  0.00  0.00    +0.310 A 
ATOM     29  N   LIG    1        2.611   8.191   2.490  0.00  0.00    -0.290 NA
ENDBRANCH  19  27
ENDBRANCH   1  21
TORSDOF 5
