REMARK  Name = ZINCrH000004ne8N.0
REMARK                            x       y       z     vdW  Elec       q    Type
REMARK                         _______ _______ _______ _____ _____    ______ ____
ROOT
ATOM      1  N   LIG    1       -4.143   6.198   1.459  0.00  0.00    -0.520 NA
ATOM      2  C   LIG    1       -4.463   4.935   2.137  0.00  0.00    +0.190 C 
ENDROOT
BRANCH   1   3
ATOM      3  C   LIG    1       -3.732   5.960   0.069  0.00  0.00    +0.230 C 
BRANCH   3   9
ATOM      4  C   LIG    1        1.195   1.782   0.000  0.00  0.00    +0.130 A 
ATOM      5  C   LIG    1        1.208   3.147   0.008  0.00  0.00    -0.020 A 
ATOM      6  C   LIG    1       -0.006   3.853   0.023  0.00  0.00    -0.010 A 
ATOM      7  C   LIG    1       -0.032   5.258   0.031  0.00  0.00    +0.010 A 
ATOM      8  C   LIG    1       -1.227   5.910   0.045  0.00  0.00    +0.040 A 
ATOM      9  C   LIG    1       -2.428   5.205   0.053  0.00  0.00    -0.080 A 
ATOM     10  C   LIG    1       -2.442   3.843   0.045  0.00  0.00    +0.030 A 
ATOM     11  C   LIG    1       -1.229   3.136   0.031  0.00  0.00    -0.080 A 
ATOM     12  C   LIG    1       -1.205   1.730   0.017  0.00  0.00    +0.070 A 
ATOM     13  C   LIG    1       -0.013   1.076   0.008  0.00  0.00    -0.060 A 
BRANCH   4  15
ATOM     14  C   LIG    1        2.292  -0.327  -0.022  0.00  0.00    +0.250 C 
ATOM     15  O   LIG    1        2.370   1.100  -0.015  0.00  0.00    -0.320 OA
ENDBRANCH   4  15
ENDBRANCH   3   9
ENDBRANCH   1   3
BRANCH   1  16
ATOM     16  C   LIG    1       -5.277   7.130   1.520  0.00  0.00    +0.220 C 
BRANCH  16  17
ATOM     17  C   LIG    1       -5.513   7.540   2.951  0.00  0.00    +0.510 C 
ATOM     18  N   LIG    1       -6.509   8.397   3.251  0.00  0.00    -0.730 N 
ATOM     19  H   LIG    1       -7.075   8.749   2.546  0.00  0.00    +0.400 HD
ATOM     20  O   LIG    1       -4.806   7.100   3.832  0.00  0.00    -0.520 OA
BRANCH  18  21
ATOM     21  C   LIG    1       -6.738   8.796   4.641  0.00  0.00    +0.320 C 
BRANCH  21  22
ATOM     22  C   LIG    1       -7.902   9.752   4.705  0.00  0.00    -0.120 A 
ATOM     23  C   LIG    1       -7.684  11.113   4.598  0.00  0.00    +0.070 A 
ATOM     24  C   LIG    1       -8.750  11.991   4.650  0.00  0.00    -0.020 A 
ATOM     25  C   LIG    1      -10.036  11.507   4.821  0.00  0.00    +0.110 A 
ATOM     26  C   LIG    1      -10.253  10.144   4.933  0.00  0.00    -0.020 A 
ATOM     27  F   LIG    1      -11.079  12.364   4.878  0.00  0.00    -0.140 F 
ATOM     28  C   LIG    1       -9.185   9.268   4.875  0.00  0.00    +0.070 A 
ENDBRANCH  21  22
ENDBRANCH  18  21
ENDBRANCH  16  17
ENDBRANCH   1  16
TORSDOF 7
