REMARK  Name = ZINCpe000000U2Nh.0
REMARK                            x       y       z     vdW  Elec       q    Type
REMARK                         _______ _______ _______ _____ _____    ______ ____
ROOT
ATOM      1  C   LIG    1       -2.077  -4.613  -0.003  0.00  0.00    -0.200 A 
ATOM      2  C   LIG    1       -3.151  -3.717   0.012  0.00  0.00    +0.130 A 
ATOM      3  C   LIG    1       -2.914  -2.362   0.017  0.00  0.00    -0.070 A 
ATOM      4  C   LIG    1       -1.608  -1.881   0.007  0.00  0.00    +0.250 A 
ATOM      5  C   LIG    1       -0.536  -2.770  -0.013  0.00  0.00    -0.080 A 
ATOM      6  C   LIG    1       -0.766  -4.127  -0.013  0.00  0.00    +0.090 A 
ENDROOT
BRANCH   1   9
ATOM      7  N   LIG    1       -1.291  -6.928  -0.023  0.00  0.00    -0.720 N 
ATOM      8  H   LIG    1       -0.381  -6.593  -0.030  0.00  0.00    +0.400 HD
ATOM      9  C   LIG    1       -2.327  -6.066  -0.009  0.00  0.00    +0.560 C 
ATOM     10  O   LIG    1       -3.468  -6.487  -0.001  0.00  0.00    -0.540 OA
BRANCH   7  11
ATOM     11  CA  LIG    1       -1.539  -8.372  -0.029  0.00  0.00    +0.250 C 
BRANCH  11  13
ATOM     12  C   LIG    1       -3.042  -8.213  -2.019  0.00  0.00    +0.020 C 
ATOM     13  C   LIG    1       -1.763  -8.845  -1.467  0.00  0.00    +0.010 C 
ENDBRANCH  11  13
BRANCH  11  14
ATOM     14  C   LIG    1       -0.331  -9.100   0.565  0.00  0.00    +0.180 C 
BRANCH  14  15
ATOM     15  O   LIG    1        0.804  -8.908  -0.281  0.00  0.00    -0.570 OA
ATOM     16  H   LIG    1        1.608  -9.342   0.035  0.00  0.00    +0.380 HD
ENDBRANCH  14  15
ENDBRANCH  11  14
ENDBRANCH   7  11
ENDBRANCH   1   9
BRANCH   4  17
ATOM     17  N   LIG    1       -1.372  -0.511   0.012  0.00  0.00    -0.730 N 
ATOM     18  H   LIG    1       -2.118   0.109   0.023  0.00  0.00    +0.410 HD
BRANCH  17  19
ATOM     19  C   LIG    1        0.002  -0.004   0.002  0.00  0.00    +0.290 C 
BRANCH  19  20
ATOM     20  C   LIG    1       -0.018   1.503   0.010  0.00  0.00    +0.510 C 
ATOM     21  N   LIG    1        1.139   2.192   0.003  0.00  0.00    -0.610 N 
ATOM     22  C   LIG    1        2.436   1.496  -0.013  0.00  0.00    +0.260 C 
ATOM     23  C   LIG    1        3.310   2.076   1.104  0.00  0.00    +0.220 C 
ATOM     24  O   LIG    1        3.352   3.500   0.978  0.00  0.00    -0.370 OA
ATOM     25  C   LIG    1        2.082   4.138   1.127  0.00  0.00    +0.140 C 
ATOM     26  C   LIG    1        2.259   5.656   1.036  0.00  0.00    +0.070 C 
ATOM     27  C   LIG    1        1.145   3.664   0.005  0.00  0.00    +0.260 C 
ATOM     28  O   LIG    1       -1.077   2.095   0.018  0.00  0.00    -0.530 OA
ENDBRANCH  19  20
ENDBRANCH  17  19
ENDBRANCH   4  17
TORSDOF 8
