REMARK  Name = ZINCrH000004okCJ.0
REMARK                            x       y       z     vdW  Elec       q    Type
REMARK                         _______ _______ _______ _____ _____    ______ ____
ROOT
ATOM      1  C   LIG    1       -1.330   1.944   0.019  0.00  0.00    +0.180 C 
ATOM      2  C   LIG    1       -1.429   2.829  -1.225  0.00  0.00    +0.020 C 
ENDROOT
BRANCH   1   3
ATOM      3  N   LIG    1       -2.433   0.975   0.019  0.00  0.00    -0.520 NA
ATOM      4  C   LIG    1       -2.398   0.137  -1.188  0.00  0.00    +0.190 C 
ATOM      5  C   LIG    1       -3.513  -0.909  -1.112  0.00  0.00    +0.180 C 
ATOM      6  N   LIG    1       -4.810  -0.231  -0.983  0.00  0.00    -0.530 NA
ATOM      7  C   LIG    1       -4.845   0.607   0.224  0.00  0.00    +0.190 C 
ATOM      8  C   LIG    1       -3.730   1.653   0.148  0.00  0.00    +0.190 C 
BRANCH   6   9
ATOM      9  C   LIG    1       -5.913  -1.200  -0.983  0.00  0.00    +0.230 C 
BRANCH   9  10
ATOM     10  C   LIG    1       -5.708  -2.195  -2.097  0.00  0.00    -0.070 A 
ATOM     11  C   LIG    1       -4.995  -3.356  -1.864  0.00  0.00    +0.020 A 
ATOM     12  C   LIG    1       -4.806  -4.268  -2.885  0.00  0.00    +0.020 A 
ATOM     13  C   LIG    1       -5.332  -4.021  -4.139  0.00  0.00    +0.020 A 
ATOM     14  C   LIG    1       -6.046  -2.859  -4.373  0.00  0.00    -0.040 A 
ATOM     15 CL   LIG    1       -6.707  -2.548  -5.947  0.00  0.00    -0.070 Cl
ATOM     16  C   LIG    1       -6.239  -1.948  -3.349  0.00  0.00    +0.040 A 
ENDBRANCH   9  10
ENDBRANCH   6   9
ENDBRANCH   1   3
BRANCH   1  19
ATOM     17  N   LIG    1        1.143   1.898   0.001  0.00  0.00    -0.730 N 
ATOM     18  H   LIG    1        1.130   2.868   0.007  0.00  0.00    +0.400 HD
ATOM     19  C   LIG    1       -0.014   1.209   0.009  0.00  0.00    +0.520 C 
ATOM     20  O   LIG    1        0.002  -0.004   0.002  0.00  0.00    -0.520 OA
BRANCH  17  22
ATOM     21  C   LIG    1        2.819   0.817   1.417  0.00  0.00    +0.040 C 
ATOM     22  C   LIG    1        2.422   1.183  -0.015  0.00  0.00    +0.290 C 
BRANCH  22  23
ATOM     23  C   LIG    1        3.483   2.065  -0.621  0.00  0.00    -0.090 A 
ATOM     24  C   LIG    1        3.511   3.415  -0.325  0.00  0.00    +0.000 A 
ATOM     25  C   LIG    1        4.487   4.223  -0.878  0.00  0.00    +0.000 A 
ATOM     26  C   LIG    1        5.430   3.683  -1.732  0.00  0.00    +0.000 A 
ATOM     27  C   LIG    1        5.399   2.334  -2.032  0.00  0.00    +0.020 A 
ATOM     28  C   LIG    1        4.425   1.525  -1.476  0.00  0.00    +0.010 A 
ENDBRANCH  22  23
ENDBRANCH  17  22
ENDBRANCH   1  19
TORSDOF 6
