REMARK  Name = ZINCrH000004pmeH.0
REMARK                            x       y       z     vdW  Elec       q    Type
REMARK                         _______ _______ _______ _____ _____    ______ ____
ROOT
ATOM      1  N   LIG    1        1.175   1.278   0.695  0.00  0.00    -0.740 N 
ATOM      2  H   LIG    1        1.196   2.242   0.802  0.00  0.00    +0.390 HD
ATOM      3  C   LIG    1       -0.001   0.621   0.731  0.00  0.00    +0.710 C 
ATOM      4  N   LIG    1       -1.149   1.304   0.911  0.00  0.00    -0.730 N 
ATOM      5  H   LIG    1       -1.128   2.268   1.019  0.00  0.00    +0.390 HD
ATOM      6  O   LIG    1       -0.027  -0.587   0.596  0.00  0.00    -0.580 OA
ENDROOT
BRANCH   1   8
ATOM      7  C   LIG    1        2.680   0.372  -1.007  0.00  0.00    +0.040 C 
ATOM      8  C   LIG    1        2.422   0.537   0.492  0.00  0.00    +0.310 C 
BRANCH   8   9
ATOM      9  C   LIG    1        3.565   1.296   1.118  0.00  0.00    -0.080 A 
ATOM     10  C   LIG    1        3.492   2.669   1.249  0.00  0.00    +0.050 A 
ATOM     11  C   LIG    1        4.537   3.365   1.828  0.00  0.00    +0.040 A 
ATOM     12  C   LIG    1        5.661   2.688   2.266  0.00  0.00    -0.030 A 
ATOM     13  C   LIG    1        5.737   1.313   2.130  0.00  0.00    +0.050 A 
ATOM     14 CL   LIG    1        6.976   3.562   2.987  0.00  0.00    -0.050 Cl
ATOM     15  C   LIG    1        4.688   0.617   1.556  0.00  0.00    -0.020 A 
ATOM     16 CL   LIG    1        4.782  -1.108   1.385  0.00  0.00    -0.040 Cl
ENDBRANCH   8   9
ENDBRANCH   1   8
BRANCH   4  17
ATOM     17  C   LIG    1       -2.428   0.590   0.945  0.00  0.00    +0.360 C 
BRANCH  17  18
ATOM     18  C   LIG    1       -3.555   1.584   1.060  0.00  0.00    -0.130 A 
ATOM     19  C   LIG    1       -4.189   1.787   2.273  0.00  0.00    +0.090 A 
ATOM     20  C   LIG    1       -5.222   2.713   2.333  0.00  0.00    -0.030 A 
ATOM     21  C   LIG    1       -5.584   3.399   1.191  0.00  0.00    +0.280 A 
ATOM     22  N   LIG    1       -4.961   3.185   0.048  0.00  0.00    -0.510 NA
ATOM     23  C   LIG    1       -3.968   2.314  -0.050  0.00  0.00    +0.310 A 
BRANCH  23  24
ATOM     24  N   LIG    1       -3.336   2.124  -1.273  0.00  0.00    -0.480 N 
ATOM     25  C   LIG    1       -2.712   3.370  -1.743  0.00  0.00    +0.170 C 
ATOM     26  C   LIG    1       -1.979   3.102  -3.060  0.00  0.00    +0.230 C 
ATOM     27  O   LIG    1       -2.901   2.565  -4.013  0.00  0.00    -0.380 OA
ATOM     28  C   LIG    1       -3.526   1.351  -3.587  0.00  0.00    +0.220 C 
ATOM     29  C   LIG    1       -4.275   1.601  -2.276  0.00  0.00    +0.170 C 
ENDBRANCH  23  24
ENDBRANCH  17  18
ENDBRANCH   4  17
TORSDOF 5
