REMARK  Name = ZINCkj000005hLPk.2
REMARK                            x       y       z     vdW  Elec       q    Type
REMARK                         _______ _______ _______ _____ _____    ______ ____
ROOT
ATOM      1  C   LIG    1       -0.624   1.657   3.691  0.00  0.00    +0.220 C 
ATOM      2  C   LIG    1       -0.201   0.684   4.812  0.00  0.00    +0.080 C 
ATOM      3  C   LIG    1        0.081  -0.653   4.096  0.00  0.00    +0.210 C 
ATOM      4  C   LIG    1       -0.194  -0.375   2.603  0.00  0.00    +0.300 C 
ATOM      5  N   LIG    1       -0.018   1.093   2.457  0.00  0.00    -0.390 N 
ATOM      6  H   LIG    1        0.961   1.329   2.404  0.00  0.00    +0.440 HD
ENDROOT
BRANCH   1   7
ATOM      7  C   LIG    1       -0.080   3.036   3.959  0.00  0.00    +0.460 C 
ATOM      8  O   LIG    1        0.734   3.522   3.210  0.00  0.00    -0.490 OA
BRANCH   7  10
ATOM      9  C   LIG    1        0.068   5.048   5.228  0.00  0.00    +0.310 C 
ATOM     10  O   LIG    1       -0.499   3.726   5.032  0.00  0.00    -0.330 OA
ENDBRANCH   7  10
ENDBRANCH   1   7
BRANCH   3  11
ATOM     11  O   LIG    1        1.444  -1.040   4.286  0.00  0.00    -0.560 OA
ATOM     12  H   LIG    1        1.687  -1.184   5.211  0.00  0.00    +0.410 HD
ENDBRANCH   3  11
BRANCH   5  13
ATOM     13  C   LIG    1       -0.729   1.579   1.267  0.00  0.00    +0.260 C 
BRANCH  13  14
ATOM     14  C   LIG    1       -0.013   1.086   0.008  0.00  0.00    +0.040 C 
BRANCH  14  15
ATOM     15  C   LIG    1       -0.753   1.593  -1.232  0.00  0.00    +0.110 C 
BRANCH  15  16
ATOM     16  C   LIG    1       -0.047   1.107  -2.471  0.00  0.00    -0.070 A 
ATOM     17  C   LIG    1        0.950   1.873  -3.044  0.00  0.00    +0.000 A 
ATOM     18  C   LIG    1        1.601   1.427  -4.179  0.00  0.00    +0.060 A 
ATOM     19  C   LIG    1        1.249   0.218  -4.748  0.00  0.00    -0.010 A 
ATOM     20  C   LIG    1        0.246  -0.549  -4.178  0.00  0.00    +0.110 A 
ATOM     21  F   LIG    1       -0.099  -1.731  -4.733  0.00  0.00    -0.130 F 
ATOM     22  C   LIG    1       -0.402  -0.103  -3.039  0.00  0.00    -0.010 A 
ENDBRANCH  15  16
ENDBRANCH  14  15
ENDBRANCH  13  14
ENDBRANCH   5  13
TORSDOF 7
