REMARK  Name = ZINCkj000005hLPk.1
REMARK                            x       y       z     vdW  Elec       q    Type
REMARK                         _______ _______ _______ _____ _____    ______ ____
ROOT
ATOM      1  C   LIG    1        0.037   1.066   4.912  0.00  0.00    +0.200 C 
ATOM      2  C   LIG    1       -0.977   0.207   5.697  0.00  0.00    +0.080 C 
ATOM      3  C   LIG    1       -2.346   0.742   5.199  0.00  0.00    +0.210 C 
ATOM      4  C   LIG    1       -2.037   1.050   3.714  0.00  0.00    +0.290 C 
ATOM      5  N   LIG    1       -0.655   1.576   3.715  0.00  0.00    -0.370 N 
ATOM      6  H   LIG    1       -0.676   2.584   3.738  0.00  0.00    +0.440 HD
ENDROOT
BRANCH   1   7
ATOM      7  C   LIG    1        1.218   0.224   4.502  0.00  0.00    +0.450 C 
ATOM      8  O   LIG    1        1.058  -0.727   3.774  0.00  0.00    -0.470 OA
BRANCH   7  10
ATOM      9  C   LIG    1        3.537  -0.325   4.510  0.00  0.00    +0.310 C 
ATOM     10  O   LIG    1        2.447   0.530   4.945  0.00  0.00    -0.340 OA
ENDBRANCH   7  10
ENDBRANCH   1   7
BRANCH   3  11
ATOM     11  O   LIG    1       -3.359  -0.260   5.314  0.00  0.00    -0.540 OA
ATOM     12  H   LIG    1       -3.517  -0.556   6.220  0.00  0.00    +0.410 HD
ENDBRANCH   3  11
BRANCH   5  13
ATOM     13  C   LIG    1        0.046   1.122   2.507  0.00  0.00    +0.260 C 
BRANCH  13  14
ATOM     14  C   LIG    1       -0.568   1.794   1.277  0.00  0.00    +0.040 C 
BRANCH  14  15
ATOM     15  C   LIG    1        0.163   1.321   0.019  0.00  0.00    +0.110 C 
BRANCH  15  16
ATOM     16  C   LIG    1       -0.442   1.983  -1.192  0.00  0.00    -0.070 A 
ATOM     17  C   LIG    1        0.055   3.193  -1.639  0.00  0.00    +0.000 A 
ATOM     18  C   LIG    1       -0.499   3.801  -2.750  0.00  0.00    +0.060 A 
ATOM     19  C   LIG    1       -1.550   3.199  -3.416  0.00  0.00    -0.010 A 
ATOM     20  C   LIG    1       -2.048   1.987  -2.969  0.00  0.00    +0.110 A 
ATOM     21  F   LIG    1       -3.075   1.397  -3.620  0.00  0.00    -0.130 F 
ATOM     22  C   LIG    1       -1.489   1.376  -1.860  0.00  0.00    -0.010 A 
ENDBRANCH  15  16
ENDBRANCH  14  15
ENDBRANCH  13  14
ENDBRANCH   5  13
TORSDOF 7
