REMARK  Name = ZINCrD0000073XSl.2
REMARK                            x       y       z     vdW  Elec       q    Type
REMARK                         _______ _______ _______ _____ _____    ______ ____
ROOT
ATOM      1  C   LIG    1        3.523  -1.973  -0.024  0.00  0.00    +0.550 C 
ATOM      2  N   LIG    1        3.522  -0.632  -0.157  0.00  0.00    -0.660 N 
ATOM      3  H   LIG    1        4.362  -0.146  -0.177  0.00  0.00    +0.410 HD
ATOM      4  O   LIG    1        2.478  -2.591  -0.096  0.00  0.00    -0.480 OA
ENDROOT
BRANCH   2   5
ATOM      5  C   LIG    1        2.312   0.060  -0.267  0.00  0.00    +0.170 A 
ATOM      6  C   LIG    1        1.146  -0.493   0.247  0.00  0.00    +0.020 A 
ATOM      7  C   LIG    1       -0.048   0.192   0.136  0.00  0.00    +0.040 A 
ATOM      8  C   LIG    1       -0.084   1.427  -0.486  0.00  0.00    +0.000 A 
ATOM      9  C   LIG    1        1.074   1.980  -0.999  0.00  0.00    -0.080 A 
ATOM     10  C   LIG    1        1.334   3.285  -1.717  0.00  0.00    +0.230 C 
ATOM     11  N   LIG    1        2.645   3.121  -2.384  0.00  0.00    -0.470 NA
ATOM     12  C   LIG    1        3.354   2.137  -1.536  0.00  0.00    +0.240 C 
ATOM     13  C   LIG    1        2.273   1.299  -0.892  0.00  0.00    -0.140 A 
BRANCH  11  14
ATOM     14  C   LIG    1        3.374   4.395  -2.434  0.00  0.00    +0.080 C 
ATOM     15  C   LIG    1        3.461   5.107  -3.785  0.00  0.00    +0.040 C 
ATOM     16  C   LIG    1        4.698   4.423  -3.200  0.00  0.00    +0.030 C 
ENDBRANCH  11  14
ENDBRANCH   2   5
BRANCH   1  22
ATOM     17  C   LIG    1        4.794  -4.087   0.355  0.00  0.00    -0.050 A 
ATOM     18  C   LIG    1        5.996  -4.751   0.569  0.00  0.00    -0.020 A 
ATOM     19  C   LIG    1        7.175  -4.039   0.649  0.00  0.00    +0.070 A 
ATOM     20  C   LIG    1        7.172  -2.660   0.512  0.00  0.00    -0.010 A 
ATOM     21  C   LIG    1        5.992  -1.984   0.294  0.00  0.00    +0.070 A 
ATOM     22  C   LIG    1        4.789  -2.690   0.210  0.00  0.00    -0.130 A 
BRANCH  17  23
ATOM     23  S   LIG    1        3.286  -4.993   0.260  0.00  0.00    +0.080 S 
BRANCH  23  25
ATOM     24  C   LIG    1        4.542  -7.230  -0.688  0.00  0.00    +0.080 C 
ATOM     25  C   LIG    1        3.817  -6.702   0.552  0.00  0.00    -0.060 C 
BRANCH  25  26
ATOM     26  C   LIG    1        2.612  -7.562   0.834  0.00  0.00    +0.540 C 
ATOM     27  O   LIG    1        1.522  -7.235   0.414  0.00  0.00    -0.520 OA
ATOM     28  N   LIG    1        2.745  -8.694   1.553  0.00  0.00    -0.850 N 
ATOM     29  H   LIG    1        1.970  -9.248   1.734  0.00  0.00    +0.410 HD
ATOM     30  H   LIG    1        3.617  -8.956   1.889  0.00  0.00    +0.400 HD
ENDBRANCH  25  26
ENDBRANCH  23  25
ENDBRANCH  17  23
ENDBRANCH   1  22
TORSDOF 6
