REMARK  Name = ZINCpe00000gMqiC.2
REMARK                            x       y       z     vdW  Elec       q    Type
REMARK                         _______ _______ _______ _____ _____    ______ ____
ROOT
ATOM      1  N   LIG    1       -0.144   3.247   1.305  0.00  0.00    -0.530 NA
ATOM      2  C   LIG    1       -1.576   2.963   1.386  0.00  0.00    +0.160 C 
ATOM      3  C   LIG    1       -2.232   2.767   0.079  0.00  0.00    +0.020 C 
ATOM      4  C   LIG    1       -1.617   1.537  -0.636  0.00  0.00    +0.280 C 
ATOM      5  N   LIG    1       -0.261   1.840  -1.038  0.00  0.00    -0.590 N 
ATOM      6  C   LIG    1        0.908   1.603  -0.166  0.00  0.00    +0.270 C 
ATOM      7  C   LIG    1       -0.054   2.362  -2.264  0.00  0.00    +0.530 C 
ATOM      8  O   LIG    1       -0.980   2.473  -3.039  0.00  0.00    -0.530 OA
ATOM      9  C   LIG    1        0.619   2.016   1.290  0.00  0.00    +0.200 C 
ENDROOT
BRANCH   7  10
ATOM     10  C   LIG    1        1.327   2.806  -2.670  0.00  0.00    -0.010 C 
ATOM     11  C   LIG    1        1.691   4.156  -2.009  0.00  0.00    +0.090 C 
ATOM     12  C   LIG    1        2.479   4.889  -3.072  0.00  0.00    +0.520 C 
ATOM     13  N   LIG    1        2.286   4.313  -4.271  0.00  0.00    -0.620 N 
ATOM     14  O   LIG    1        3.182   5.857  -2.872  0.00  0.00    -0.520 OA
ATOM     15  C   LIG    1        1.372   3.169  -4.171  0.00  0.00    +0.290 C 
BRANCH  13  16
ATOM     16  C   LIG    1        2.908   4.768  -5.516  0.00  0.00    +0.430 C 
BRANCH  16  17
ATOM     17  C   LIG    1        2.017   5.786  -6.180  0.00  0.00    -0.050 A 
ATOM     18  C   LIG    1        2.055   7.115  -5.978  0.00  0.00    -0.030 A 
ATOM     19  C   LIG    1        1.055   7.683  -6.800  0.00  0.00    -0.070 A 
ATOM     20  C   LIG    1        0.460   6.666  -7.449  0.00  0.00    +0.170 A 
ATOM     21  O   LIG    1        1.047   5.519  -7.069  0.00  0.00    -0.170 OA
ENDBRANCH  16  17
ENDBRANCH  13  16
ENDBRANCH   7  10
BRANCH   1  22
ATOM     22  C   LIG    1        0.283   4.118   2.409  0.00  0.00    +0.240 C 
BRANCH  22  23
ATOM     23  C   LIG    1        0.048   3.405   3.742  0.00  0.00    +0.120 C 
BRANCH  23  25
ATOM     24  C   LIG    1        0.781   1.537   5.053  0.00  0.00    +0.200 C 
ATOM     25  O   LIG    1        0.920   2.277   3.839  0.00  0.00    -0.390 OA
ENDBRANCH  23  25
ENDBRANCH  22  23
ENDBRANCH   1  22
TORSDOF 6
