REMARK  Name = ZINCrD00000F5LtV.0
REMARK                            x       y       z     vdW  Elec       q    Type
REMARK                         _______ _______ _______ _____ _____    ______ ____
ROOT
ATOM      1  C   LIG    1       -2.566   1.426   0.021  0.00  0.00    +0.600 C 
ATOM      2  N   LIG    1       -2.838   0.106   0.015  0.00  0.00    -0.720 N 
ATOM      3  H   LIG    1       -2.113  -0.539   0.009  0.00  0.00    +0.400 HD
ATOM      4  O   LIG    1       -3.475   2.233   0.028  0.00  0.00    -0.540 OA
ENDROOT
BRANCH   1   9
ATOM      5  C   LIG    1        1.472   4.368   0.011  0.00  0.00    +0.360 C 
ATOM      6  N   LIG    1        0.603   3.188   0.013  0.00  0.00    -0.360 N 
ATOM      7  N   LIG    1        1.032   1.857   0.002  0.00  0.00    -0.290 NA
ATOM      8  C   LIG    1       -0.013   1.076   0.008  0.00  0.00    +0.270 A 
ATOM      9  C   LIG    1       -1.167   1.890   0.017  0.00  0.00    -0.300 A 
ATOM     10  C   LIG    1       -0.739   3.203   0.026  0.00  0.00    +0.170 A 
BRANCH  10  11
ATOM     11  C   LIG    1       -1.618   4.427   0.041  0.00  0.00    +0.170 C 
BRANCH  11  12
ATOM     12  C   LIG    1       -1.924   4.843  -1.375  0.00  0.00    -0.080 A 
ATOM     13  C   LIG    1       -1.095   5.736  -2.028  0.00  0.00    +0.000 A 
ATOM     14  C   LIG    1       -1.373   6.113  -3.328  0.00  0.00    +0.000 A 
ATOM     15  C   LIG    1       -2.486   5.606  -3.972  0.00  0.00    +0.000 A 
ATOM     16  C   LIG    1       -3.318   4.717  -3.318  0.00  0.00    +0.000 A 
ATOM     17  C   LIG    1       -3.037   4.335  -2.019  0.00  0.00    +0.040 A 
ENDBRANCH  11  12
ENDBRANCH  10  11
ENDBRANCH   1   9
BRANCH   2  18
ATOM     18  C   LIG    1       -4.228  -0.356   0.018  0.00  0.00    +0.300 C 
BRANCH  18  19
ATOM     19  C   LIG    1       -4.257  -1.886   0.011  0.00  0.00    -0.010 C 
ATOM     20  C   LIG    1       -4.864  -2.586   1.227  0.00  0.00    +0.000 C 
ATOM     21  C   LIG    1       -5.659  -1.772   2.219  0.00  0.00    -0.070 A 
ATOM     22  C   LIG    1       -5.418  -1.484   3.542  0.00  0.00    +0.020 A 
ATOM     23  C   LIG    1       -6.303  -0.714   4.270  0.00  0.00    +0.000 A 
ATOM     24  C   LIG    1       -7.450  -0.230   3.669  0.00  0.00    +0.020 A 
ATOM     25  C   LIG    1       -7.706  -0.519   2.343  0.00  0.00    +0.010 A 
ATOM     26  C   LIG    1       -6.817  -1.292   1.611  0.00  0.00    -0.090 A 
ATOM     27  C   LIG    1       -6.883  -1.733   0.168  0.00  0.00    +0.120 C 
ATOM     28  C   LIG    1       -5.624  -2.566  -0.106  0.00  0.00    -0.010 C 
ENDBRANCH  18  19
ENDBRANCH   2  18
TORSDOF 5
