REMARK  Name = ZINCrD0000074ouo.0
REMARK                            x       y       z     vdW  Elec       q    Type
REMARK                         _______ _______ _______ _____ _____    ______ ____
ROOT
ATOM      1  C   LIG    1       -0.029   1.020   0.026  0.00  0.00    +0.160 C 
ATOM      2  C   LIG    1       -0.726   1.540   1.256  0.00  0.00    +0.130 A 
ATOM      3  C   LIG    1       -2.044   1.846   1.199  0.00  0.00    -0.080 A 
ATOM      4  C   LIG    1       -2.664   2.328   2.381  0.00  0.00    +0.380 A 
ATOM      5  C   LIG    1       -1.816   2.468   3.576  0.00  0.00    -0.030 A 
ATOM      6  N   LIG    1       -0.545   2.138   3.492  0.00  0.00    -0.170 NA
ATOM      7  O   LIG    1       -3.849   2.620   2.404  0.00  0.00    -0.440 OA
ATOM      8  N   LIG    1       -0.024   1.701   2.405  0.00  0.00    -0.270 N 
ENDROOT
BRANCH   8   9
ATOM      9  C   LIG    1        1.336   1.374   2.405  0.00  0.00    +0.120 A 
ATOM     10  C   LIG    1        1.750   0.118   1.978  0.00  0.00    +0.050 A 
ATOM     11  C   LIG    1        3.093  -0.200   1.974  0.00  0.00    +0.060 A 
ATOM     12  C   LIG    1        4.027   0.727   2.404  0.00  0.00    -0.020 A 
ATOM     13  C   LIG    1        3.617   1.977   2.834  0.00  0.00    +0.060 A 
ATOM     14 CL   LIG    1        5.715   0.321   2.403  0.00  0.00    -0.050 Cl
ATOM     15  C   LIG    1        2.275   2.303   2.836  0.00  0.00    +0.060 A 
ENDBRANCH   8   9
BRANCH   5  16
ATOM     16  C   LIG    1       -2.382   2.968   4.845  0.00  0.00    +0.590 C 
ATOM     17  N   LIG    1       -1.595   3.091   5.932  0.00  0.00    -0.720 N 
ATOM     18  H   LIG    1       -0.656   2.850   5.880  0.00  0.00    +0.410 HD
ATOM     19  O   LIG    1       -3.558   3.269   4.909  0.00  0.00    -0.490 OA
BRANCH  17  20
ATOM     20  C   LIG    1       -2.156   3.587   7.191  0.00  0.00    +0.280 C 
BRANCH  20  21
ATOM     21  C   LIG    1       -1.059   3.629   8.257  0.00  0.00    +0.080 C 
BRANCH  21  22
ATOM     22  C   LIG    1       -1.636   4.139   9.552  0.00  0.00    -0.050 A 
ATOM     23  C   LIG    1       -1.626   5.494   9.826  0.00  0.00    +0.010 A 
ATOM     24  C   LIG    1       -2.160   5.964  11.012  0.00  0.00    +0.050 A 
ATOM     25  C   LIG    1       -2.695   5.079  11.928  0.00  0.00    -0.010 A 
ATOM     26  C   LIG    1       -2.700   3.721  11.657  0.00  0.00    +0.100 A 
ATOM     27  F   LIG    1       -3.223   2.855  12.552  0.00  0.00    -0.140 F 
ATOM     28  C   LIG    1       -2.170   3.252  10.467  0.00  0.00    -0.010 A 
ENDBRANCH  21  22
ENDBRANCH  20  21
ENDBRANCH  17  20
ENDBRANCH   5  16
TORSDOF 5
