REMARK  Name = ZINCpk00000y6tUL.0
REMARK                            x       y       z     vdW  Elec       q    Type
REMARK                         _______ _______ _______ _____ _____    ______ ____
ROOT
ATOM      1  O   LIG    1       -4.487   1.929  -1.490  0.00  0.00    -0.520 OA
ATOM      2  C   LIG    1       -4.013   1.552  -0.440  0.00  0.00    +0.500 C 
ATOM      3  N   LIG    1       -2.773   1.025  -0.410  0.00  0.00    -0.620 N 
ATOM      4  C   LIG    1       -1.983   0.900  -1.642  0.00  0.00    +0.290 C 
ATOM      5  C   LIG    1       -0.624   1.574  -1.427  0.00  0.00    +0.040 C 
ATOM      6  C   LIG    1        0.046   0.977  -0.188  0.00  0.00    +0.170 C 
ATOM      7  C   LIG    1       -0.825   1.242   1.043  0.00  0.00    +0.010 C 
ATOM      8  C   LIG    1       -2.186   0.564   0.856  0.00  0.00    +0.280 C 
ENDROOT
BRANCH   6   9
ATOM      9  O   LIG    1        1.328   1.580  -0.002  0.00  0.00    -0.310 OA
BRANCH   9  10
ATOM     10  C   LIG    1        2.257   0.859   0.680  0.00  0.00    +0.130 A 
ATOM     11  C   LIG    1        3.556   1.332   0.794  0.00  0.00    -0.020 A 
ATOM     12  C   LIG    1        4.497   0.599   1.492  0.00  0.00    +0.050 A 
ATOM     13  C   LIG    1        4.147  -0.608   2.068  0.00  0.00    -0.040 A 
ATOM     14  C   LIG    1        2.854  -1.084   1.950  0.00  0.00    +0.040 A 
ATOM     15  C   LIG    1        1.908  -0.353   1.257  0.00  0.00    -0.080 A 
ENDBRANCH   9  10
ENDBRANCH   6   9
BRANCH   2  16
ATOM     16  C   LIG    1       -4.811   1.674   0.833  0.00  0.00    +0.320 C 
BRANCH  16  17
ATOM     17  N   LIG    1       -6.115   2.273   0.537  0.00  0.00    -0.590 N 
ATOM     18  C   LIG    1       -7.255   1.409   0.193  0.00  0.00    +0.280 C 
ATOM     19  C   LIG    1       -7.556   1.566  -1.299  0.00  0.00    +0.020 C 
ATOM     20  C   LIG    1       -8.487   2.739  -1.543  0.00  0.00    +0.010 C 
ATOM     21  C   LIG    1       -7.867   4.089  -1.230  0.00  0.00    +0.060 C 
ATOM     22  C   LIG    1       -7.601   4.228   0.271  0.00  0.00    +0.180 C 
ATOM     23  C   LIG    1       -6.261   3.598   0.587  0.00  0.00    +0.490 C 
ATOM     24  O   LIG    1       -5.317   4.300   0.881  0.00  0.00    -0.530 OA
BRANCH  22  25
ATOM     25  O   LIG    1       -7.581   5.612   0.628  0.00  0.00    -0.540 OA
ATOM     26  H   LIG    1       -7.417   5.773   1.568  0.00  0.00    +0.380 HD
ENDBRANCH  22  25
ENDBRANCH  16  17
ENDBRANCH   2  16
TORSDOF 5
