REMARK  Name = ZINCrg00000fROcP.0
REMARK                            x       y       z     vdW  Elec       q    Type
REMARK                         _______ _______ _______ _____ _____    ______ ____
ROOT
ATOM      1  C   LIG    1        2.255   5.690   0.011  0.00  0.00    +0.270 C 
ENDROOT
BRANCH   1   2
ATOM      2  C   LIG    1        3.643   6.276   0.001  0.00  0.00    +0.520 C 
ATOM      3  N   LIG    1        3.811   7.613   0.007  0.00  0.00    -0.560 N 
ATOM      4  C   LIG    1        2.655   8.522   0.022  0.00  0.00    +0.340 C 
ATOM      5  C   LIG    1        2.915   9.664  -0.926  0.00  0.00    +0.510 C 
ATOM      6  N   LIG    1        4.170  10.082  -1.175  0.00  0.00    -0.650 N 
ATOM      7  H   LIG    1        4.316  10.841  -1.761  0.00  0.00    +0.420 HD
ATOM      8  C   LIG    1        5.267   9.433  -0.599  0.00  0.00    +0.130 A 
ATOM      9  C   LIG    1        6.524  10.016  -0.614  0.00  0.00    +0.010 A 
ATOM     10  C   LIG    1        7.597   9.356  -0.043  0.00  0.00    +0.030 A 
ATOM     11  C   LIG    1        7.422   8.116   0.542  0.00  0.00    +0.010 A 
ATOM     12  C   LIG    1        6.170   7.526   0.564  0.00  0.00    +0.060 A 
ATOM     13  O   LIG    1        1.981  10.214  -1.472  0.00  0.00    -0.510 OA
ATOM     14  C   LIG    1        5.093   8.183   0.003  0.00  0.00    +0.110 A 
ATOM     15  O   LIG    1        4.610   5.544  -0.012  0.00  0.00    -0.480 OA
ENDBRANCH   1   2
BRANCH   1  16
ATOM     16  O   LIG    1        2.341   4.241   0.003  0.00  0.00    -0.300 OA
BRANCH  16  17
ATOM     17  C   LIG    1        1.180   3.559   0.010  0.00  0.00    +0.530 C 
ATOM     18  O   LIG    1        0.124   4.159   0.023  0.00  0.00    -0.480 OA
BRANCH  17  22
ATOM     19  C   LIG    1        1.242  -0.651  -0.013  0.00  0.00    -0.150 A 
ATOM     20  C   LIG    1        0.002  -0.004   0.002  0.00  0.00    +0.150 A 
ATOM     21  C   LIG    1       -0.017   1.381   0.010  0.00  0.00    +0.060 A 
ATOM     22  C   LIG    1        1.190   2.077   0.002  0.00  0.00    +0.120 A 
ATOM     23  N   LIG    1        2.349   1.430  -0.012  0.00  0.00    -0.440 NA
ATOM     24  C   LIG    1        2.410   0.117  -0.020  0.00  0.00    +0.350 A 
BRANCH  19  25
ATOM     25  C   LIG    1        1.316  -2.129  -0.021  0.00  0.00    +0.510 C 
ATOM     26  O   LIG    1        0.297  -2.788  -0.015  0.00  0.00    -0.490 OA
BRANCH  25  28
ATOM     27  C   LIG    1        2.512  -4.194  -0.043  0.00  0.00    +0.290 C 
ATOM     28  O   LIG    1        2.515  -2.742  -0.036  0.00  0.00    -0.350 OA
ENDBRANCH  25  28
ENDBRANCH  19  25
ENDBRANCH  17  22
ENDBRANCH  16  17
ENDBRANCH   1  16
TORSDOF 6
