REMARK  Name = ZINCrD00000hQ5uS.0
REMARK                            x       y       z     vdW  Elec       q    Type
REMARK                         _______ _______ _______ _____ _____    ______ ____
ROOT
ATOM      1  C   LIG    1        1.159   1.675  -0.049  0.00  0.00    +0.540 C 
ATOM      2  N   LIG    1       -0.012   1.007  -0.034  0.00  0.00    -0.720 N 
ATOM      3  H   LIG    1       -0.017   0.038   0.007  0.00  0.00    +0.400 HD
ATOM      4  O   LIG    1        1.165   2.886  -0.100  0.00  0.00    -0.510 OA
ENDROOT
BRANCH   2   5
ATOM      5  C   LIG    1       -1.277   1.744  -0.085  0.00  0.00    +0.250 C 
ATOM      6  C   LIG    1       -1.639   2.044  -1.545  0.00  0.00    +0.040 C 
ATOM      7  C   LIG    1       -1.588   0.734  -2.335  0.00  0.00    +0.080 C 
ATOM      8  C   LIG    1       -2.356  -0.332  -1.608  0.00  0.00    +0.520 C 
ATOM      9  N   LIG    1       -2.688  -0.250  -0.319  0.00  0.00    -0.720 N 
ATOM     10  H   LIG    1       -3.158  -1.000   0.078  0.00  0.00    +0.400 HD
ATOM     11  O   LIG    1       -2.694  -1.319  -2.226  0.00  0.00    -0.550 OA
ATOM     12  C   LIG    1       -2.389   0.898   0.535  0.00  0.00    +0.280 C 
BRANCH  12  13
ATOM     13  C   LIG    1       -1.950   0.415   1.893  0.00  0.00    -0.110 A 
ATOM     14  C   LIG    1       -1.111  -0.679   1.999  0.00  0.00    +0.010 A 
ATOM     15  C   LIG    1       -0.704  -1.120   3.244  0.00  0.00    +0.000 A 
ATOM     16  C   LIG    1       -1.143  -0.472   4.384  0.00  0.00    +0.010 A 
ATOM     17  C   LIG    1       -1.987   0.618   4.278  0.00  0.00    +0.020 A 
ATOM     18  C   LIG    1       -2.390   1.061   3.032  0.00  0.00    +0.030 A 
ENDBRANCH  12  13
ENDBRANCH   2   5
BRANCH   1  19
ATOM     19  C   LIG    1        2.460   0.916  -0.002  0.00  0.00    -0.010 C 
ATOM     20  C   LIG    1        2.853   0.490  -1.419  0.00  0.00    +0.080 C 
BRANCH  19  21
ATOM     21  S   LIG    1        3.756   1.980   0.691  0.00  0.00    -0.070 S 
BRANCH  21  25
ATOM     22  C   LIG    1        7.267  -0.849   1.135  0.00  0.00    +0.160 A 
ATOM     23  C   LIG    1        7.157  -0.053   0.004  0.00  0.00    -0.020 A 
ATOM     24  C   LIG    1        6.087   0.809  -0.132  0.00  0.00    +0.110 A 
ATOM     25  C   LIG    1        5.121   0.880   0.864  0.00  0.00    -0.170 A 
ATOM     26  C   LIG    1        5.235   0.087   1.998  0.00  0.00    +0.100 A 
ATOM     27  C   LIG    1        6.303  -0.779   2.130  0.00  0.00    -0.090 A 
BRANCH  22  29
ATOM     28  C   LIG    1        8.371  -2.489   2.458  0.00  0.00    +0.240 C 
ATOM     29  O   LIG    1        8.320  -1.699   1.268  0.00  0.00    -0.310 OA
ENDBRANCH  22  29
ENDBRANCH  21  25
ENDBRANCH  19  21
ENDBRANCH   1  19
TORSDOF 6
