REMARK  Name = ZINCrH000004s2N1.0
REMARK                            x       y       z     vdW  Elec       q    Type
REMARK                         _______ _______ _______ _____ _____    ______ ____
ROOT
ATOM      1  C   LIG    1        0.160   4.256   0.895  0.00  0.00    +0.550 C 
ATOM      2  N   LIG    1       -0.759   3.302   1.142  0.00  0.00    -0.590 N 
ATOM      3  O   LIG    1       -0.191   5.399   0.692  0.00  0.00    -0.520 OA
ENDROOT
BRANCH   2   4
ATOM      4  C   LIG    1       -0.347   1.902   1.268  0.00  0.00    +0.260 C 
ATOM      5  C   LIG    1       -0.802   1.356   2.622  0.00  0.00    +0.030 C 
BRANCH   4   6
ATOM      6  C   LIG    1       -0.984   1.079   0.146  0.00  0.00    -0.070 C 
ATOM      7  C   LIG    1       -2.059   0.063   0.538  0.00  0.00    +0.020 C 
ATOM      8  C   LIG    1       -0.673  -0.418   0.104  0.00  0.00    +0.030 C 
ENDBRANCH   4   6
ENDBRANCH   2   4
BRANCH   1   9
ATOM      9  C   LIG    1        1.625   3.902   0.872  0.00  0.00    -0.350 C 
BRANCH   9  10
ATOM     10  S   LIG    1        2.608   5.412   0.664  0.00  0.00    +2.440 S 
ATOM     11  O   LIG    1        2.437   6.227   1.816  0.00  0.00    -0.910 OA
ATOM     12  O   LIG    1        2.334   5.958  -0.619  0.00  0.00    -0.910 OA
BRANCH  10  13
ATOM     13  C   LIG    1        4.301   4.761   0.665  0.00  0.00    -0.280 C 
BRANCH  13  20
ATOM     14  C   LIG    1        5.141   5.568  -1.980  0.00  0.00    +0.100 C 
ATOM     15  C   LIG    1        5.679   6.283  -0.767  0.00  0.00    -0.060 A 
ATOM     16  C   LIG    1        6.570   7.328  -0.920  0.00  0.00    +0.010 A 
ATOM     17  C   LIG    1        7.068   7.981   0.192  0.00  0.00    +0.030 A 
ATOM     18  C   LIG    1        6.670   7.591   1.457  0.00  0.00    +0.000 A 
ATOM     19  C   LIG    1        5.775   6.549   1.610  0.00  0.00    +0.030 A 
ATOM     20  C   LIG    1        5.277   5.897   0.498  0.00  0.00    -0.100 A 
ENDBRANCH  13  20
ENDBRANCH  10  13
ENDBRANCH   9  10
ENDBRANCH   1   9
BRANCH   2  21
ATOM     21  C   LIG    1       -2.172   3.665   1.283  0.00  0.00    +0.340 C 
BRANCH  21  22
ATOM     22  C   LIG    1       -2.447   4.066   2.709  0.00  0.00    -0.110 A 
ATOM     23  C   LIG    1       -2.981   3.148   3.595  0.00  0.00    +0.010 A 
ATOM     24  C   LIG    1       -3.228   3.515   4.904  0.00  0.00    -0.010 A 
ATOM     25  C   LIG    1       -2.952   4.802   5.326  0.00  0.00    +0.010 A 
ATOM     26  C   LIG    1       -2.423   5.721   4.439  0.00  0.00    +0.000 A 
ATOM     27  C   LIG    1       -2.170   5.353   3.131  0.00  0.00    +0.030 A 
ENDBRANCH  21  22
ENDBRANCH   2  21
TORSDOF 8
