REMARK  Name = ZINCqH0000037Jb6.0
REMARK                            x       y       z     vdW  Elec       q    Type
REMARK                         _______ _______ _______ _____ _____    ______ ____
ROOT
ATOM      1  C   LIG    1       -0.253   4.130   0.051  0.00  0.00    +0.150 A 
ATOM      2  C   LIG    1        0.865   3.309   0.112  0.00  0.00    +0.000 A 
ATOM      3  C   LIG    1        0.713   1.941   0.210  0.00  0.00    +0.040 A 
ATOM      4  C   LIG    1       -0.558   1.385   0.248  0.00  0.00    +0.070 A 
ATOM      5  C   LIG    1       -1.676   2.204   0.181  0.00  0.00    +0.050 A 
ATOM      6  C   LIG    1       -1.525   3.573   0.089  0.00  0.00    +0.040 A 
ENDROOT
BRANCH   1   8
ATOM      7  C   LIG    1       -0.974   6.339   0.564  0.00  0.00    +0.610 C 
ATOM      8  N   LIG    1       -0.099   5.518  -0.050  0.00  0.00    -0.660 N 
ATOM      9  H   LIG    1        0.637   5.888  -0.561  0.00  0.00    +0.420 HD
ATOM     10  O   LIG    1       -1.940   5.878   1.140  0.00  0.00    -0.510 OA
BRANCH   7  14
ATOM     11  C   LIG    1       -1.488  11.333   1.259  0.00  0.00    +0.150 C 
ATOM     12  C   LIG    1       -0.996   9.970   0.847  0.00  0.00    +0.020 A 
ATOM     13  C   LIG    1       -1.588   8.784   1.126  0.00  0.00    +0.000 A 
ATOM     14  C   LIG    1       -0.759   7.800   0.536  0.00  0.00    -0.020 A 
ATOM     15  N   LIG    1        0.237   8.436  -0.047  0.00  0.00    -0.260 NA
ATOM     16  N   LIG    1        0.113   9.703   0.125  0.00  0.00    -0.380 N 
ATOM     17  H   LIG    1        0.729  10.372  -0.214  0.00  0.00    +0.450 HD
ENDBRANCH   7  14
ENDBRANCH   1   8
BRANCH   4  18
ATOM     18  O   LIG    1       -0.708   0.037   0.345  0.00  0.00    -0.230 OA
BRANCH  18  19
ATOM     19  C   LIG    1       -0.294  -0.569   1.484  0.00  0.00    +0.300 A 
ATOM     20  C   LIG    1       -0.329  -1.975   1.604  0.00  0.00    -0.080 A 
ATOM     21  C   LIG    1       -0.771  -2.812   0.573  0.00  0.00    +0.070 A 
ATOM     22  C   LIG    1       -0.770  -4.162   0.761  0.00  0.00    +0.030 A 
ATOM     23  C   LIG    1       -0.331  -4.721   1.959  0.00  0.00    +0.050 A 
ATOM     24  C   LIG    1        0.111  -3.936   2.982  0.00  0.00    +0.040 A 
ATOM     25  C   LIG    1        0.123  -2.544   2.823  0.00  0.00    -0.050 A 
ATOM     26  C   LIG    1        0.564  -1.667   3.831  0.00  0.00    +0.230 A 
ATOM     27  N   LIG    1        0.545  -0.373   3.604  0.00  0.00    -0.220 NA
ATOM     28  N   LIG    1        0.143   0.146   2.504  0.00  0.00    -0.310 NA
ENDBRANCH  18  19
ENDBRANCH   4  18
TORSDOF 4
