REMARK  Name = ZINCnE000001RoVm.0
REMARK                            x       y       z     vdW  Elec       q    Type
REMARK                         _______ _______ _______ _____ _____    ______ ____
ROOT
ATOM      1  S   LIG    1        3.332   3.486  -0.011  0.00  0.00    +2.620 S 
ATOM      2  O   LIG    1        3.834   3.053  -1.268  0.00  0.00    -1.020 OA
ATOM      3  O   LIG    1        3.858   3.040   1.231  0.00  0.00    -1.020 OA
ENDROOT
BRANCH   1   4
ATOM      4  C   LIG    1        3.459   5.243  -0.004  0.00  0.00    -0.680 A 
ATOM      5  C   LIG    1        3.523   5.979   1.088  0.00  0.00    +0.160 A 
ATOM      6  C   LIG    1        3.625   7.410   0.857  0.00  0.00    -0.090 A 
ATOM      7  C   LIG    1        3.710   8.464   1.792  0.00  0.00    +0.060 A 
ATOM      8  C   LIG    1        3.800   9.755   1.371  0.00  0.00    +0.000 A 
ATOM      9  C   LIG    1        3.808  10.057   0.016  0.00  0.00    +0.030 A 
ATOM     10  C   LIG    1        3.726   9.050  -0.917  0.00  0.00    +0.040 A 
ATOM     11  C   LIG    1        3.633   7.717  -0.506  0.00  0.00    -0.140 A 
ATOM     12  S   LIG    1        3.525   6.235  -1.448  0.00  0.00    +0.180 S 
ENDBRANCH   1   4
BRANCH   1  13
ATOM     13  N   LIG    1        1.719   3.111   0.002  0.00  0.00    -1.070 NA
BRANCH  13  17
ATOM     14  C   LIG    1        1.802  -1.817  -0.025  0.00  0.00    +0.340 C 
ATOM     15  N   LIG    1        1.337  -0.427  -0.013  0.00  0.00    -0.360 N 
ATOM     16  C   LIG    1        2.126   0.681  -0.015  0.00  0.00    +0.040 A 
ATOM     17  C   LIG    1        1.309   1.764  -0.001  0.00  0.00    +0.190 A 
ATOM     18  C   LIG    1       -0.016   1.304   0.009  0.00  0.00    -0.060 A 
ATOM     19  N   LIG    1        0.002  -0.004   0.002  0.00  0.00    -0.250 NA
BRANCH  18  20
ATOM     20  C   LIG    1       -1.250   2.170   0.020  0.00  0.00    +0.570 C 
ATOM     21  F   LIG    1       -1.317   2.900  -1.171  0.00  0.00    -0.170 F 
ATOM     22  F   LIG    1       -1.191   3.051   1.105  0.00  0.00    -0.170 F 
ATOM     23  F   LIG    1       -2.385   1.361   0.137  0.00  0.00    -0.190 F 
ENDBRANCH  18  20
ENDBRANCH  13  17
ENDBRANCH   1  13
TORSDOF 4
