REMARK  Name = ZINCrH000004lDYp.0
REMARK                            x       y       z     vdW  Elec       q    Type
REMARK                         _______ _______ _______ _____ _____    ______ ____
ROOT
ATOM      1  N   LIG    1        1.702  -0.614   2.305  0.00  0.00    -1.060 N 
ATOM      2  H   LIG    1        1.886  -1.405   2.835  0.00  0.00    +0.430 HD
ENDROOT
BRANCH   1   7
ATOM      3  C   LIG    1        2.838  -1.395  -1.112  0.00  0.00    -0.120 A 
ATOM      4  C   LIG    1        1.820  -0.805  -1.863  0.00  0.00    +0.070 A 
ATOM      5  C   LIG    1        0.778  -0.161  -1.227  0.00  0.00    +0.040 A 
ATOM      6  C   LIG    1        0.735  -0.103   0.153  0.00  0.00    +0.010 A 
ATOM      7  C   LIG    1        1.747  -0.681   0.910  0.00  0.00    +0.150 A 
ATOM      8  C   LIG    1        2.798  -1.330   0.281  0.00  0.00    +0.070 A 
BRANCH   3  10
ATOM      9  N   LIG    1        4.162  -1.897  -3.110  0.00  0.00    -0.480 N 
ATOM     10  C   LIG    1        3.956  -2.085  -1.791  0.00  0.00    +0.570 C 
ATOM     11  O   LIG    1        4.689  -2.821  -1.160  0.00  0.00    -0.510 OA
ATOM     12  C   LIG    1        5.188  -2.675  -3.809  0.00  0.00    +0.320 C 
BRANCH   9  14
ATOM     13  C   LIG    1        4.011   0.333  -3.944  0.00  0.00    +0.220 C 
ATOM     14  O   LIG    1        3.388  -0.947  -3.819  0.00  0.00    -0.140 OA
ENDBRANCH   9  14
ENDBRANCH   3  10
ENDBRANCH   1   7
BRANCH   1  15
ATOM     15  S   LIG    1        1.335   0.817   3.053  0.00  0.00    +2.690 S 
ATOM     16  O   LIG    1        1.369   0.559   4.450  0.00  0.00    -0.940 OA
ATOM     17  O   LIG    1        2.132   1.813   2.428  0.00  0.00    -0.940 OA
BRANCH  15  18
ATOM     18  C   LIG    1       -0.339   1.198   2.658  0.00  0.00    -0.680 A 
ATOM     19  C   LIG    1       -0.636   2.341   1.940  0.00  0.00    +0.130 A 
ATOM     20  C   LIG    1       -1.950   2.640   1.629  0.00  0.00    -0.090 A 
ATOM     21  C   LIG    1       -2.966   1.796   2.036  0.00  0.00    +0.080 A 
ATOM     22  C   LIG    1       -2.668   0.649   2.749  0.00  0.00    -0.010 A 
ATOM     23  C   LIG    1       -1.355   0.353   3.064  0.00  0.00    +0.020 A 
ATOM     24  C   LIG    1       -1.031  -0.893   3.847  0.00  0.00    +0.110 C 
BRANCH  20  25
ATOM     25  C   LIG    1       -2.275   3.887   0.848  0.00  0.00    -0.030 C 
ATOM     26  C   LIG    1       -1.789   5.115   1.621  0.00  0.00    +0.040 C 
ATOM     27  C   LIG    1       -3.788   3.980   0.641  0.00  0.00    +0.030 C 
ATOM     28  C   LIG    1       -1.576   3.833  -0.512  0.00  0.00    +0.040 C 
ENDBRANCH  20  25
ENDBRANCH  15  18
ENDBRANCH   1  15
TORSDOF 6
