REMARK  Name = ZINCqH0000034Ip2.0
REMARK                            x       y       z     vdW  Elec       q    Type
REMARK                         _______ _______ _______ _____ _____    ______ ____
ROOT
ATOM      1  C   LIG    1        2.867  -0.324  -2.289  0.00  0.00    +0.200 C 
ATOM      2  N   LIG    1        1.895   0.237  -1.341  0.00  0.00    -0.540 NA
ATOM      3  C   LIG    1        0.536  -0.234  -1.640  0.00  0.00    +0.170 C 
ATOM      4  C   LIG    1       -0.415   0.224  -0.529  0.00  0.00    +0.280 C 
ATOM      5  N   LIG    1       -0.282   1.680  -0.371  0.00  0.00    -0.630 N 
ATOM      6  C   LIG    1        1.067   2.242  -0.204  0.00  0.00    +0.310 C 
ATOM      7  C   LIG    1       -1.367   2.479  -0.384  0.00  0.00    +0.710 C 
ATOM      8  N   LIG    1       -2.584   1.960  -0.643  0.00  0.00    -0.750 N 
ATOM      9  H   LIG    1       -2.689   1.001  -0.750  0.00  0.00    +0.390 HD
ATOM     10  O   LIG    1       -1.249   3.668  -0.161  0.00  0.00    -0.590 OA
ATOM     11  C   LIG    1        1.960   1.704  -1.327  0.00  0.00    +0.130 C 
ENDROOT
BRANCH   8  12
ATOM     12  C   LIG    1       -3.747   2.843  -0.765  0.00  0.00    +0.270 C 
BRANCH  12  13
ATOM     13  C   LIG    1       -4.993   2.006  -1.059  0.00  0.00    -0.020 C 
ATOM     14  C   LIG    1       -5.295   1.102   0.138  0.00  0.00    +0.020 C 
ATOM     15  C   LIG    1       -6.542   0.265  -0.156  0.00  0.00    +0.000 C 
ATOM     16  C   LIG    1       -7.732   1.194  -0.406  0.00  0.00    +0.010 C 
ATOM     17  C   LIG    1       -7.430   2.099  -1.603  0.00  0.00    -0.060 C 
ATOM     18  C   LIG    1       -7.186   1.238  -2.844  0.00  0.00    +0.010 C 
ATOM     19  C   LIG    1       -8.620   3.027  -1.853  0.00  0.00    +0.040 C 
ATOM     20  C   LIG    1       -6.183   2.935  -1.309  0.00  0.00    +0.040 C 
ENDBRANCH  12  13
ENDBRANCH   8  12
BRANCH  11  21
ATOM     21  C   LIG    1        3.404   2.150  -1.089  0.00  0.00    +0.090 C 
BRANCH  21  22
ATOM     22  C   LIG    1        3.490   3.651  -1.189  0.00  0.00    -0.090 A 
ATOM     23  C   LIG    1        3.816   4.246  -2.393  0.00  0.00    +0.000 A 
ATOM     24  C   LIG    1        3.891   5.623  -2.486  0.00  0.00    +0.000 A 
ATOM     25  C   LIG    1        3.648   6.405  -1.373  0.00  0.00    +0.000 A 
ATOM     26  C   LIG    1        3.326   5.810  -0.167  0.00  0.00    +0.010 A 
ATOM     27  C   LIG    1        3.248   4.433  -0.075  0.00  0.00    +0.010 A 
ENDBRANCH  21  22
ENDBRANCH  11  21
TORSDOF 4
