REMARK  Name = ZINCrD000000fJVQ.0
REMARK                            x       y       z     vdW  Elec       q    Type
REMARK                         _______ _______ _______ _____ _____    ______ ____
ROOT
ATOM      1  N   LIG    1       -2.800  -2.643   0.691  0.00  0.00    -0.670 N 
ATOM      2  H   LIG    1       -2.851  -3.502   0.244  0.00  0.00    +0.420 HD
ATOM      3  C   LIG    1       -3.821  -2.224   1.465  0.00  0.00    +0.530 C 
ATOM      4  O   LIG    1       -3.724  -1.190   2.090  0.00  0.00    -0.510 OA
ENDROOT
BRANCH   3   5
ATOM      5  C   LIG    1       -5.084  -3.042   1.553  0.00  0.00    -0.010 C 
ATOM      6  C   LIG    1       -6.074  -2.352   2.494  0.00  0.00    +0.060 C 
ATOM      7  C   LIG    1       -7.370  -3.165   2.559  0.00  0.00    +0.020 C 
ATOM      8  C   LIG    1       -7.065  -4.560   3.115  0.00  0.00    +0.260 C 
ATOM      9  N   LIG    1       -6.008  -5.173   2.300  0.00  0.00    -0.610 N 
ATOM     10  C   LIG    1       -6.185  -6.391   1.749  0.00  0.00    +0.600 C 
ATOM     11  O   LIG    1       -5.268  -6.930   1.158  0.00  0.00    -0.520 OA
ATOM     12  C   LIG    1       -4.754  -4.435   2.098  0.00  0.00    +0.300 C 
BRANCH  10  13
ATOM     13  C   LIG    1       -7.482  -7.065   1.862  0.00  0.00    -0.270 A 
ATOM     14  C   LIG    1       -7.664  -8.400   2.087  0.00  0.00    +0.090 A 
ATOM     15  C   LIG    1       -8.988  -8.765   2.149  0.00  0.00    +0.000 A 
ATOM     16  C   LIG    1       -9.861  -7.765   1.980  0.00  0.00    -0.070 A 
ATOM     17  S   LIG    1       -9.052  -6.283   1.736  0.00  0.00    +0.220 S 
ENDBRANCH  10  13
ENDBRANCH   3   5
BRANCH   1  22
ATOM     18  C   LIG    1       -0.113  -0.230   1.411  0.00  0.00    +0.150 A 
ATOM     19  C   LIG    1        0.575  -0.237   0.204  0.00  0.00    +0.040 A 
ATOM     20  C   LIG    1        0.148  -1.047  -0.832  0.00  0.00    +0.040 A 
ATOM     21  C   LIG    1       -0.971  -1.843  -0.674  0.00  0.00    +0.060 A 
ATOM     22  C   LIG    1       -1.667  -1.836   0.531  0.00  0.00    +0.130 A 
ATOM     23  F   LIG    1       -1.389  -2.629  -1.690  0.00  0.00    -0.140 F 
ATOM     24  C   LIG    1       -1.237  -1.029   1.573  0.00  0.00    +0.040 A 
BRANCH  18  27
ATOM     25  C   LIG    1        2.117   1.579   3.846  0.00  0.00    +0.110 C 
ATOM     26  C   LIG    1        1.642   0.789   2.654  0.00  0.00    +0.510 C 
ATOM     27  N   LIG    1        0.324   0.586   2.461  0.00  0.00    -0.670 N 
ATOM     28  H   LIG    1       -0.323   1.009   3.048  0.00  0.00    +0.420 HD
ATOM     29  O   LIG    1        2.447   0.335   1.868  0.00  0.00    -0.520 OA
ENDBRANCH  18  27
ENDBRANCH   1  22
TORSDOF 4
