REMARK  Name = ZINCvU0000000ISD.0
REMARK                            x       y       z     vdW  Elec       q    Type
REMARK                         _______ _______ _______ _____ _____    ______ ____
ROOT
ATOM      1  C   LIG    1        1.867  -4.113   0.074  0.00  0.00    -0.220 A 
ATOM      2  C   LIG    1        2.233  -2.817  -0.029  0.00  0.00    +0.240 A 
ATOM      3  N   LIG    1        1.101  -2.065  -0.043  0.00  0.00    -0.320 N 
ATOM      4  N   LIG    1        0.004  -2.931   0.044  0.00  0.00    -0.270 NA
ATOM      5  C   LIG    1        0.460  -4.164   0.115  0.00  0.00    +0.130 A 
ENDROOT
BRANCH   3   6
ATOM      6  C   LIG    1        1.042  -0.668  -0.136  0.00  0.00    +0.160 A 
ATOM      7  C   LIG    1       -0.188  -0.023  -0.146  0.00  0.00    +0.020 A 
ATOM      8  C   LIG    1       -0.243   1.354  -0.236  0.00  0.00    +0.040 A 
ATOM      9  C   LIG    1        0.924   2.091  -0.317  0.00  0.00    +0.000 A 
ATOM     10  C   LIG    1        2.151   1.451  -0.307  0.00  0.00    +0.040 A 
ATOM     11  C   LIG    1        2.212   0.074  -0.217  0.00  0.00    -0.010 A 
ENDBRANCH   3   6
BRANCH   5  12
ATOM     12  C   LIG    1       -0.364  -5.394   0.220  0.00  0.00    -0.020 A 
ATOM     13  C   LIG    1       -0.035  -6.522  -0.527  0.00  0.00    +0.030 A 
ATOM     14  C   LIG    1       -0.802  -7.665  -0.422  0.00  0.00    +0.010 A 
ATOM     15  C   LIG    1       -1.903  -7.687   0.415  0.00  0.00    +0.020 A 
ATOM     16  C   LIG    1       -2.237  -6.567   1.156  0.00  0.00    +0.010 A 
ATOM     17  C   LIG    1       -1.474  -5.421   1.062  0.00  0.00    +0.030 A 
ENDBRANCH   5  12
BRANCH   1  18
ATOM     18  C   LIG    1        2.800  -5.295   0.129  0.00  0.00    +0.380 C 
BRANCH  18  20
ATOM     19  C   LIG    1        4.906  -4.520  -1.056  0.00  0.00    +0.290 C 
ATOM     20  N   LIG    1        4.186  -4.822   0.183  0.00  0.00    -0.620 N 
ATOM     21  C   LIG    1        4.798  -4.666   1.374  0.00  0.00    +0.510 C 
ATOM     22  O   LIG    1        4.202  -4.917   2.400  0.00  0.00    -0.530 OA
BRANCH  21  23
ATOM     23  C   LIG    1        6.223  -4.179   1.430  0.00  0.00    +0.070 C 
BRANCH  23  24
ATOM     24  C   LIG    1        6.675  -4.090   2.889  0.00  0.00    +0.060 C 
BRANCH  24  25
ATOM     25  C   LIG    1        8.100  -3.604   2.945  0.00  0.00    +0.430 C 
ATOM     26  O   LIG    1        8.697  -3.353   1.917  0.00  0.00    -0.450 OA
BRANCH  25  27
ATOM     27  C   LIG    1        8.741  -3.440   4.192  0.00  0.00    -0.310 A 
ATOM     28  C   LIG    1       10.030  -3.006   4.374  0.00  0.00    +0.110 A 
ATOM     29  C   LIG    1       10.398  -2.939   5.694  0.00  0.00    -0.010 A 
ATOM     30  C   LIG    1        9.450  -3.303   6.569  0.00  0.00    -0.050 A 
ATOM     31  S   LIG    1        8.014  -3.752   5.763  0.00  0.00    +0.240 S 
ENDBRANCH  25  27
ENDBRANCH  24  25
ENDBRANCH  23  24
ENDBRANCH  21  23
ENDBRANCH  18  20
ENDBRANCH   1  18
TORSDOF 8
