REMARK  Name = ZINCpe00000VVGLX.0
REMARK                            x       y       z     vdW  Elec       q    Type
REMARK                         _______ _______ _______ _____ _____    ______ ____
ROOT
ATOM      1  N   LIG    1       -2.064   1.234  -3.709  0.00  0.00    -0.530 NA
ATOM      2  C   LIG    1       -0.676   1.705  -3.605  0.00  0.00    +0.180 C 
ATOM      3  C   LIG    1       -0.002   1.038  -2.404  0.00  0.00    +0.190 C 
ATOM      4  N   LIG    1       -0.757   1.357  -1.183  0.00  0.00    -0.530 NA
ATOM      5  C   LIG    1       -2.145   0.885  -1.288  0.00  0.00    +0.190 C 
ATOM      6  C   LIG    1       -2.818   1.552  -2.489  0.00  0.00    +0.200 C 
ENDROOT
BRANCH   1   8
ATOM      7  C   LIG    1       -4.176   1.319  -4.946  0.00  0.00    +0.080 C 
ATOM      8  C   LIG    1       -2.723   1.794  -4.897  0.00  0.00    +0.270 C 
BRANCH   8   9
ATOM      9  C   LIG    1       -2.001   1.333  -6.137  0.00  0.00    +0.190 A 
ATOM     10  N   LIG    1       -1.643   2.078  -7.155  0.00  0.00    -0.480 NA
ATOM     11  C   LIG    1       -1.034   1.245  -8.017  0.00  0.00    +0.200 A 
ATOM     12  N   LIG    1       -1.051   0.057  -7.489  0.00  0.00    -0.380 NA
ATOM     13  O   LIG    1       -1.597   0.088  -6.406  0.00  0.00    +0.100 OA
BRANCH  11  14
ATOM     14  C   LIG    1       -0.440   1.619  -9.350  0.00  0.00    +0.060 C 
ATOM     15  C   LIG    1        0.026   0.480 -10.261  0.00  0.00    +0.050 C 
ATOM     16  C   LIG    1        1.055   1.365  -9.554  0.00  0.00    +0.050 C 
ENDBRANCH  11  14
ENDBRANCH   8   9
ENDBRANCH   1   8
BRANCH   4  17
ATOM     17  C   LIG    1       -0.098   0.796   0.004  0.00  0.00    +0.150 C 
BRANCH  17  18
ATOM     18  C   LIG    1       -0.763   1.351   1.266  0.00  0.00    +0.210 C 
BRANCH  18  19
ATOM     19  O   LIG    1       -0.642   2.775   1.281  0.00  0.00    -0.520 OA
ATOM     20  H   LIG    1        0.272   3.092   1.277  0.00  0.00    +0.370 HD
ENDBRANCH  18  19
BRANCH  18  21
ATOM     21  C   LIG    1       -0.077   0.767   2.502  0.00  0.00    +0.290 C 
BRANCH  21  22
ATOM     22  N   LIG    1       -0.788   1.203   3.707  0.00  0.00    -0.370 N 
ATOM     23  C   LIG    1       -1.294   0.399   4.665  0.00  0.00    +0.210 A 
ATOM     24  C   LIG    1       -1.870   1.187   5.603  0.00  0.00    -0.120 A 
ATOM     25  C   LIG    1       -1.710   2.518   5.203  0.00  0.00    +0.220 A 
ATOM     26  N   LIG    1       -1.057   2.529   4.070  0.00  0.00    -0.270 NA
ENDBRANCH  21  22
ENDBRANCH  18  21
ENDBRANCH  17  18
ENDBRANCH   4  17
TORSDOF 8
