REMARK  Name = ZINCvU0000000I4C.0
REMARK                            x       y       z     vdW  Elec       q    Type
REMARK                         _______ _______ _______ _____ _____    ______ ____
ROOT
ATOM      1  C   LIG    1       -5.629   5.258  -1.885  0.00  0.00    +0.560 C 
ATOM      2  S   LIG    1       -6.145   3.770  -2.557  0.00  0.00    -0.590 S 
ENDROOT
BRANCH   1   3
ATOM      3  N   LIG    1       -5.885   6.413  -2.530  0.00  0.00    -0.630 N 
ATOM      4  H   LIG    1       -5.651   7.260  -2.119  0.00  0.00    +0.400 HD
BRANCH   3   5
ATOM      5  C   LIG    1       -6.489   6.391  -3.794  0.00  0.00    +0.090 A 
ATOM      6  C   LIG    1       -6.013   7.215  -4.806  0.00  0.00    +0.050 A 
ATOM      7  C   LIG    1       -6.606   7.190  -6.053  0.00  0.00    -0.060 A 
ATOM      8  C   LIG    1       -7.683   6.348  -6.292  0.00  0.00    +0.130 A 
ATOM      9  C   LIG    1       -8.161   5.528  -5.281  0.00  0.00    +0.000 A 
ATOM     10  C   LIG    1       -7.566   5.549  -4.035  0.00  0.00    +0.130 A 
BRANCH   8  11
ATOM     11  O   LIG    1       -8.269   6.327  -7.519  0.00  0.00    -0.260 OA
BRANCH  11  12
ATOM     12  C   LIG    1       -7.706   7.070  -8.508  0.00  0.00    +0.080 A 
ATOM     13  C   LIG    1       -8.276   8.279  -8.879  0.00  0.00    +0.010 A 
ATOM     14  C   LIG    1       -7.700   9.034  -9.882  0.00  0.00    +0.020 A 
ATOM     15  C   LIG    1       -6.561   8.581 -10.522  0.00  0.00    +0.010 A 
ATOM     16  C   LIG    1       -5.994   7.374 -10.157  0.00  0.00    +0.020 A 
ATOM     17  C   LIG    1       -6.564   6.618  -9.152  0.00  0.00    +0.000 A 
ENDBRANCH  11  12
ENDBRANCH   8  11
ENDBRANCH   3   5
ENDBRANCH   1   3
BRANCH   1  18
ATOM     18  N   LIG    1       -4.968   5.274  -0.711  0.00  0.00    -0.570 N 
BRANCH  18  19
ATOM     19  C   LIG    1       -4.526   6.547  -0.136  0.00  0.00    +0.270 C 
BRANCH  19  21
ATOM     20  C   LIG    1       -2.659   8.204  -0.055  0.00  0.00    +0.030 C 
ATOM     21  C   LIG    1       -3.178   6.940  -0.743  0.00  0.00    +0.010 C 
ENDBRANCH  19  21
ENDBRANCH  18  19
BRANCH  18  22
ATOM     22  C   LIG    1       -4.689   4.018  -0.010  0.00  0.00    +0.360 C 
BRANCH  22  23
ATOM     23  C   LIG    1       -5.775   3.768   1.038  0.00  0.00    +0.120 C 
ATOM     24  C   LIG    1       -5.480   2.461   1.787  0.00  0.00    +0.240 C 
ATOM     25  O   LIG    1       -6.520   2.252   2.749  0.00  0.00    -0.310 OA
ATOM     26  C   LIG    1       -7.799   2.432   2.318  0.00  0.00    +0.040 A 
ATOM     27  C   LIG    1       -8.847   1.907   3.059  0.00  0.00    +0.020 A 
ATOM     28  C   LIG    1      -10.151   2.083   2.635  0.00  0.00    +0.010 A 
ATOM     29  C   LIG    1      -10.413   2.778   1.470  0.00  0.00    +0.020 A 
ATOM     30  C   LIG    1       -9.372   3.298   0.723  0.00  0.00    +0.020 A 
ATOM     31  C   LIG    1       -8.062   3.124   1.142  0.00  0.00    +0.060 A 
ATOM     32  O   LIG    1       -7.048   3.639   0.395  0.00  0.00    -0.270 OA
ENDBRANCH  22  23
ENDBRANCH  18  22
ENDBRANCH   1  18
TORSDOF 9
