REMARK  Name = ZINCb70000002qVd.0
REMARK                            x       y       z     vdW  Elec       q    Type
REMARK                         _______ _______ _______ _____ _____    ______ ____
ROOT
ATOM      1  C   LIG    1        1.144   0.146   2.128  0.00  0.00    +0.070 C 
ATOM      2  C   LIG    1       -0.018   1.060   2.522  0.00  0.00    +0.190 C 
ATOM      3  O   LIG    1        0.481   2.209   3.229  0.00  0.00    -0.360 OA
ATOM      4  C   LIG    1       -0.365   3.324   2.874  0.00  0.00    +0.240 C 
ATOM      5  C   LIG    1       -0.625   3.114   1.359  0.00  0.00    +0.000 C 
ATOM      6  C   LIG    1       -0.727   1.578   1.262  0.00  0.00    +0.060 C 
ATOM      7  C   LIG    1       -0.013   1.086   0.008  0.00  0.00    +0.270 C 
ATOM      8  N   LIG    1       -0.724   1.573  -1.183  0.00  0.00    -0.510 N 
ATOM      9  C   LIG    1       -2.110   1.083  -1.157  0.00  0.00    +0.240 C 
ATOM     10  C   LIG    1       -2.814   1.608   0.097  0.00  0.00    +0.260 C 
ATOM     11  H   LIG    1       -0.262   1.234  -2.014  0.00  0.00    +0.440 HD
ATOM     12  H   LIG    1       -0.724   2.582  -1.186  0.00  0.00    +0.430 HD
ATOM     13  O   LIG    1       -2.093   1.177   1.256  0.00  0.00    -0.340 OA
ENDROOT
TORSDOF 0
