REMARK  Name = ZINCnE000001D79j.0
REMARK                            x       y       z     vdW  Elec       q    Type
REMARK                         _______ _______ _______ _____ _____    ______ ____
ROOT
ATOM      1  N   LIG    1       -0.698   1.558   1.213  0.00  0.00    -0.740 N 
ATOM      2  H   LIG    1       -1.495   2.106   1.135  0.00  0.00    +0.390 HD
ATOM      3  C   LIG    1       -0.222   1.232   2.431  0.00  0.00    +0.670 C 
ATOM      4  O   LIG    1        0.779   0.545   2.530  0.00  0.00    -0.610 OA
ENDROOT
BRANCH   3   5
ATOM      5  N   LIG    1       -0.847   1.663   3.530  0.00  0.00    -0.680 NA
ATOM      6  C   LIG    1       -0.376   1.341   4.734  0.00  0.00    +0.350 A 
ATOM      7  N   LIG    1        0.711   0.595   5.012  0.00  0.00    -0.420 NA
ATOM      8  N   LIG    1        0.999   0.400   6.345  0.00  0.00    -0.270 NA
ATOM      9  C   LIG    1        0.208   0.944   7.209  0.00  0.00    -0.000 A 
ATOM     10  S   LIG    1       -1.024   1.796   6.263  0.00  0.00    -0.080 S 
BRANCH   9  11
ATOM     11  C   LIG    1        0.314   0.873   8.710  0.00  0.00    +0.030 C 
ATOM     12  C   LIG    1       -0.950   0.226   9.281  0.00  0.00    +0.040 C 
ATOM     13  C   LIG    1        0.465   2.286   9.278  0.00  0.00    +0.040 C 
ATOM     14  C   LIG    1        1.535   0.035   9.096  0.00  0.00    +0.050 C 
ENDBRANCH   9  11
ENDBRANCH   3   5
BRANCH   1  15
ATOM     15  C   LIG    1       -0.013   1.086   0.008  0.00  0.00    +0.430 C 
BRANCH  15  19
ATOM     16  C   LIG    1       -1.353   2.813  -2.871  0.00  0.00    -0.000 A 
ATOM     17  C   LIG    1       -2.122   1.712  -2.883  0.00  0.00    +0.130 A 
ATOM     18  O   LIG    1       -1.736   0.946  -1.844  0.00  0.00    -0.200 OA
ATOM     19  C   LIG    1       -0.742   1.585  -1.213  0.00  0.00    +0.190 A 
ATOM     20  N   LIG    1       -0.512   2.712  -1.825  0.00  0.00    -0.460 NA
BRANCH  16  22
ATOM     21  C   LIG    1       -2.653   4.814  -3.543  0.00  0.00    +0.040 C 
ATOM     22  C   LIG    1       -1.423   3.958  -3.848  0.00  0.00    +0.010 C 
ATOM     23  C   LIG    1       -1.524   3.407  -5.272  0.00  0.00    +0.040 C 
ATOM     24  C   LIG    1       -0.161   4.814  -3.721  0.00  0.00    +0.040 C 
ENDBRANCH  16  22
ENDBRANCH  15  19
ENDBRANCH   1  15
TORSDOF 5
