REMARK  Name = ZINCpe00000yiAB6.0
REMARK                            x       y       z     vdW  Elec       q    Type
REMARK                         _______ _______ _______ _____ _____    ______ ____
ROOT
ATOM      1  C   LIG    1       -0.016   1.325   0.009  0.00  0.00    +0.430 A 
ATOM      2  C   LIG    1        1.210   2.011   0.001  0.00  0.00    -0.070 A 
ATOM      3  N   LIG    1        1.571   3.317   0.006  0.00  0.00    -0.450 NA
ATOM      4  C   LIG    1        2.869   3.407  -0.005  0.00  0.00    +0.480 A 
ATOM      5  N   LIG    1        3.423   2.162  -0.018  0.00  0.00    -0.470 N 
ATOM      6  C   LIG    1        2.394   1.254  -0.014  0.00  0.00    +0.290 A 
ATOM      7  N   LIG    1        2.312  -0.072  -0.020  0.00  0.00    -0.540 NA
ATOM      8  C   LIG    1        1.141  -0.672  -0.012  0.00  0.00    +0.550 A 
ATOM      9  N   LIG    1        0.002  -0.004   0.002  0.00  0.00    -0.560 NA
ENDROOT
BRANCH   1  10
ATOM     10  N   LIG    1       -1.214   2.017   0.019  0.00  0.00    -0.450 N 
ATOM     11  C   LIG    1       -1.282   2.937   1.162  0.00  0.00    +0.260 C 
BRANCH  10  14
ATOM     12  C   LIG    1       -4.181   0.704  -0.985  0.00  0.00    +0.160 C 
ATOM     13  C   LIG    1       -3.721   1.799  -0.008  0.00  0.00    +0.050 C 
ATOM     14  C   LIG    1       -2.356   1.092   0.019  0.00  0.00    +0.150 C 
ATOM     15  C   LIG    1       -2.700   0.538  -1.373  0.00  0.00    +0.040 C 
BRANCH  12  16
ATOM     16  O   LIG    1       -5.003   1.192  -2.046  0.00  0.00    -0.370 OA
BRANCH  16  18
ATOM     17  C   LIG    1       -6.775   0.867  -3.658  0.00  0.00    +0.040 C 
ATOM     18  C   LIG    1       -5.954   0.240  -2.530  0.00  0.00    +0.160 C 
ENDBRANCH  16  18
ENDBRANCH  12  16
ENDBRANCH  10  14
ENDBRANCH   1  10
BRANCH   5  19
ATOM     19  C   LIG    1        4.854   1.849  -0.031  0.00  0.00    +0.340 C 
BRANCH  19  20
ATOM     20  C   LIG    1        5.314   1.625  -1.473  0.00  0.00    -0.150 C 
ATOM     21  C   LIG    1        5.062   0.196  -1.992  0.00  0.00    +0.240 C 
ATOM     22  O   LIG    1        6.387   0.288  -2.553  0.00  0.00    -0.360 OA
ATOM     23  C   LIG    1        6.811   1.288  -1.604  0.00  0.00    +0.240 C 
BRANCH  20  24
ATOM     24  C   LIG    1        4.842   2.723  -2.428  0.00  0.00    +0.200 C 
BRANCH  24  25
ATOM     25  O   LIG    1        5.311   2.441  -3.748  0.00  0.00    -0.550 OA
ATOM     26  H   LIG    1        5.048   3.097  -4.408  0.00  0.00    +0.380 HD
ENDBRANCH  24  25
ENDBRANCH  20  24
ENDBRANCH  19  20
ENDBRANCH   5  19
TORSDOF 8
