REMARK  Name = ZINCvU00000008FV.0
REMARK                            x       y       z     vdW  Elec       q    Type
REMARK                         _______ _______ _______ _____ _____    ______ ____
ROOT
ATOM      1  N   LIG    1        1.514   4.886   0.013  0.00  0.00    -0.510 N 
ATOM      2  C   LIG    1        2.846   4.673  -0.000  0.00  0.00    +0.570 A 
ATOM      3  C   LIG    1        3.347   3.286  -0.012  0.00  0.00    -0.160 A 
ATOM      4  C   LIG    1        4.713   3.012  -0.026  0.00  0.00    +0.120 A 
ATOM      5  C   LIG    1        5.144   1.701  -0.037  0.00  0.00    +0.020 A 
ATOM      6  C   LIG    1        4.229   0.662  -0.034  0.00  0.00    +0.090 A 
ATOM      7  C   LIG    1        2.872   0.921  -0.020  0.00  0.00    +0.060 A 
ATOM      8  C   LIG    1        2.421   2.232  -0.008  0.00  0.00    +0.160 A 
ATOM      9  N   LIG    1        1.057   2.520   0.005  0.00  0.00    -0.450 N 
ATOM     10  C   LIG    1       -0.021   1.708   0.011  0.00  0.00    +0.470 A 
ATOM     11  N   LIG    1       -1.120   2.489   0.020  0.00  0.00    -0.340 N 
ATOM     12  N   LIG    1       -0.687   3.821   0.028  0.00  0.00    -0.260 NA
ATOM     13  S   LIG    1        0.002  -0.004   0.002  0.00  0.00    -0.540 S 
ATOM     14  O   LIG    1        3.621   5.610  -0.003  0.00  0.00    -0.480 OA
ATOM     15  C   LIG    1        0.619   3.825   0.016  0.00  0.00    +0.490 A 
ENDROOT
BRANCH   1  16
ATOM     16  C   LIG    1        1.005   6.259   0.024  0.00  0.00    +0.320 C 
BRANCH  16  17
ATOM     17  C   LIG    1        0.840   6.731   1.470  0.00  0.00    +0.010 C 
BRANCH  17  19
ATOM     18  C   LIG    1       -1.101   8.191   0.884  0.00  0.00    +0.030 C 
ATOM     19  C   LIG    1        0.308   8.165   1.481  0.00  0.00    -0.020 C 
ATOM     20  C   LIG    1        0.261   8.680   2.921  0.00  0.00    +0.030 C 
ENDBRANCH  17  19
ENDBRANCH  16  17
ENDBRANCH   1  16
BRANCH  11  21
ATOM     21  C   LIG    1       -2.511   2.030   0.024  0.00  0.00    +0.540 C 
BRANCH  21  22
ATOM     22  N   LIG    1       -3.082   2.210   1.365  0.00  0.00    -0.520 NA
ATOM     23  C   LIG    1       -2.858   1.005   2.205  0.00  0.00    +0.170 C 
ATOM     24  C   LIG    1       -3.925   1.102   3.317  0.00  0.00    +0.030 C 
ATOM     25  C   LIG    1       -5.045   1.981   2.722  0.00  0.00    +0.050 C 
ATOM     26  C   LIG    1       -4.561   2.340   1.301  0.00  0.00    +0.220 C 
BRANCH  26  27
ATOM     27  C   LIG    1       -4.948   3.755   0.956  0.00  0.00    -0.180 A 
ATOM     28  C   LIG    1       -5.938   4.101   0.131  0.00  0.00    +0.000 A 
ATOM     29  C   LIG    1       -6.109   5.465  -0.034  0.00  0.00    +0.000 A 
ATOM     30  C   LIG    1       -5.259   6.226   0.657  0.00  0.00    -0.060 A 
ATOM     31  S   LIG    1       -4.171   5.202   1.585  0.00  0.00    +0.160 S 
ENDBRANCH  26  27
ENDBRANCH  21  22
ENDBRANCH  11  21
TORSDOF 6
