REMARK  Name = ZINCkj00000y7J9e.0
REMARK                            x       y       z     vdW  Elec       q    Type
REMARK                         _______ _______ _______ _____ _____    ______ ____
ROOT
ATOM      1  C   LIG    1        1.278   2.075  -0.034  0.00  0.00    +0.150 C 
ATOM      2  C   LIG    1        2.296   1.003   0.429  0.00  0.00    +0.100 C 
ATOM      3  C   LIG    1        1.752  -0.269  -0.272  0.00  0.00    +0.080 C 
ATOM      4  C   LIG    1        0.223  -0.070  -0.217  0.00  0.00    +0.260 C 
ATOM      5  N   LIG    1       -0.024   1.375  -0.056  0.00  0.00    -0.380 N 
ATOM      6  H   LIG    1       -0.514   1.541   0.810  0.00  0.00    +0.420 HD
ENDROOT
BRANCH   1   7
ATOM      7  C   LIG    1        1.240   3.238   0.960  0.00  0.00    +0.330 C 
BRANCH   7  10
ATOM      8  C   LIG    1        1.608   5.282  -0.971  0.00  0.00    +0.110 C 
ATOM      9  C   LIG    1        0.268   5.076  -0.311  0.00  0.00    +0.510 C 
ATOM     10  N   LIG    1        0.121   4.125   0.632  0.00  0.00    -0.610 N 
ATOM     11  O   LIG    1       -0.677   5.767  -0.629  0.00  0.00    -0.500 OA
BRANCH  10  12
ATOM     12  C   LIG    1       -1.159   3.977   1.329  0.00  0.00    +0.150 C 
ATOM     13  C   LIG    1       -2.388   4.635   0.698  0.00  0.00    +0.050 C 
ATOM     14  C   LIG    1       -1.767   5.229   1.964  0.00  0.00    +0.040 C 
ENDBRANCH  10  12
ENDBRANCH   7  10
ENDBRANCH   1   7
BRANCH   5  15
ATOM     15  C   LIG    1       -0.830   1.867  -1.181  0.00  0.00    +0.250 C 
BRANCH  15  16
ATOM     16  C   LIG    1       -2.241   1.282  -1.092  0.00  0.00    +0.210 C 
BRANCH  16  17
ATOM     17  C   LIG    1       -3.081   1.795  -2.263  0.00  0.00    +0.430 C 
ATOM     18  F   LIG    1       -3.151   3.191  -2.211  0.00  0.00    -0.160 F 
ATOM     19  F   LIG    1       -4.371   1.260  -2.181  0.00  0.00    -0.150 F 
ATOM     20  F   LIG    1       -2.489   1.402  -3.468  0.00  0.00    -0.170 F 
ENDBRANCH  16  17
BRANCH  16  21
ATOM     21  O   LIG    1       -2.169  -0.144  -1.145  0.00  0.00    -0.520 OA
ATOM     22  H   LIG    1       -1.769  -0.488  -1.955  0.00  0.00    +0.400 HD
ENDBRANCH  16  21
ENDBRANCH  15  16
ENDBRANCH   5  15
TORSDOF 7
