REMARK  Name = ZINCkj00000y7J9e.1
REMARK                            x       y       z     vdW  Elec       q    Type
REMARK                         _______ _______ _______ _____ _____    ______ ____
ROOT
ATOM      1  C   LIG    1       -2.807  -2.082   0.604  0.00  0.00    +0.140 C 
ATOM      2  C   LIG    1       -2.692  -3.237  -0.413  0.00  0.00    +0.090 C 
ATOM      3  C   LIG    1       -1.159  -3.389  -0.597  0.00  0.00    +0.080 C 
ATOM      4  C   LIG    1       -0.684  -1.918  -0.498  0.00  0.00    +0.260 C 
ATOM      5  N   LIG    1       -1.553  -1.309   0.531  0.00  0.00    -0.380 N 
ATOM      6  H   LIG    1       -1.086  -1.334   1.425  0.00  0.00    +0.430 HD
ENDROOT
BRANCH   1   7
ATOM      7  C   LIG    1       -3.993  -1.185   0.242  0.00  0.00    +0.300 C 
BRANCH   7  10
ATOM      8  C   LIG    1       -7.117  -3.263  -0.510  0.00  0.00    +0.110 C 
ATOM      9  C   LIG    1       -5.778  -2.586  -0.647  0.00  0.00    +0.530 C 
ATOM     10  N   LIG    1       -5.240  -1.936   0.404  0.00  0.00    -0.580 N 
ATOM     11  O   LIG    1       -5.184  -2.625  -1.704  0.00  0.00    -0.530 OA
BRANCH  10  12
ATOM     12  C   LIG    1       -5.903  -1.981   1.710  0.00  0.00    +0.210 C 
ATOM     13  C   LIG    1       -5.266  -1.189   2.853  0.00  0.00    +0.030 C 
ATOM     14  C   LIG    1       -5.184  -2.717   2.842  0.00  0.00    +0.020 C 
ENDBRANCH  10  12
ENDBRANCH   7  10
ENDBRANCH   1   7
BRANCH   5  15
ATOM     15  C   LIG    1       -1.851   0.083   0.166  0.00  0.00    +0.250 C 
BRANCH  15  16
ATOM     16  C   LIG    1       -0.559   0.902   0.183  0.00  0.00    +0.220 C 
BRANCH  16  17
ATOM     17  C   LIG    1       -0.856   2.332  -0.271  0.00  0.00    +0.430 C 
ATOM     18  F   LIG    1       -1.861   2.878   0.534  0.00  0.00    -0.170 F 
ATOM     19  F   LIG    1       -1.281   2.319  -1.604  0.00  0.00    -0.170 F 
ATOM     20  F   LIG    1        0.304   3.107  -0.159  0.00  0.00    -0.150 F 
ENDBRANCH  16  17
BRANCH  16  21
ATOM     21  O   LIG    1       -0.027   0.924   1.510  0.00  0.00    -0.520 OA
ATOM     22  H   LIG    1       -0.621   1.314   2.165  0.00  0.00    +0.400 HD
ENDBRANCH  16  21
ENDBRANCH  15  16
ENDBRANCH   5  15
TORSDOF 7
