REMARK  Name = ZINCpe00000yLrKD.0
REMARK                            x       y       z     vdW  Elec       q    Type
REMARK                         _______ _______ _______ _____ _____    ______ ____
ROOT
ATOM      1  C   LIG    1        0.673   0.366  -0.375  0.00  0.00    +0.170 C 
ATOM      2  C   LIG    1        1.909   1.235  -0.025  0.00  0.00    +0.080 C 
ATOM      3  C   LIG    1        1.836   1.339   1.512  0.00  0.00    +0.220 C 
ATOM      4  N   LIG    1        0.442   1.078   1.902  0.00  0.00    -0.610 N 
ATOM      5  C   LIG    1       -0.030   1.056   3.164  0.00  0.00    +0.610 C 
ATOM      6  O   LIG    1        0.717   1.286   4.097  0.00  0.00    -0.510 OA
ATOM      7  C   LIG    1       -0.353   0.845   0.682  0.00  0.00    +0.230 C 
ENDROOT
BRANCH   5   8
ATOM      8  C   LIG    1       -1.443   0.754   3.413  0.00  0.00    -0.040 A 
ATOM      9  C   LIG    1       -2.027   0.542   4.644  0.00  0.00    +0.080 A 
ATOM     10  C   LIG    1       -3.384   0.289   4.418  0.00  0.00    -0.130 A 
ATOM     11  C   LIG    1       -3.601   0.349   3.082  0.00  0.00    +0.220 A 
ATOM     12 CL   LIG    1       -4.578  -0.043   5.634  0.00  0.00    -0.040 Cl
ATOM     13  N   LIG    1       -2.430   0.636   2.460  0.00  0.00    -0.540 N 
ATOM     14  H   LIG    1       -2.308   0.740   1.504  0.00  0.00    +0.420 HD
ENDBRANCH   5   8
BRANCH   1  16
ATOM     15  C   LIG    1       -0.472  -0.454  -2.315  0.00  0.00    +0.210 C 
ATOM     16  O   LIG    1        0.211   0.640  -1.699  0.00  0.00    -0.370 OA
ENDBRANCH   1  16
BRANCH   3  17
ATOM     17  C   LIG    1        2.760   0.299   2.149  0.00  0.00    +0.260 C 
BRANCH  17  18
ATOM     18  N   LIG    1        2.983   0.639   3.556  0.00  0.00    -0.720 N 
ATOM     19  H   LIG    1        2.655   1.481   3.909  0.00  0.00    +0.410 HD
ATOM     20  C   LIG    1        3.643  -0.218   4.360  0.00  0.00    +0.520 C 
ATOM     21  O   LIG    1        4.052  -1.271   3.919  0.00  0.00    -0.530 OA
BRANCH  20  22
ATOM     22  C   LIG    1        3.872   0.132   5.808  0.00  0.00    +0.200 C 
BRANCH  22  23
ATOM     23  N   LIG    1        4.607  -0.957   6.465  0.00  0.00    -0.490 NA
ATOM     24  C   LIG    1        5.883  -1.235   5.762  0.00  0.00    +0.210 C 
ATOM     25  C   LIG    1        6.864  -1.613   6.848  0.00  0.00    -0.030 C 
ATOM     26  C   LIG    1        6.398  -1.227   8.010  0.00  0.00    -0.030 C 
ATOM     27  C   LIG    1        5.060  -0.553   7.817  0.00  0.00    +0.200 C 
ENDBRANCH  22  23
ENDBRANCH  20  22
ENDBRANCH  17  18
ENDBRANCH   3  17
TORSDOF 6
