REMARK  Name = ZINCrH000004r4Yu.0
REMARK                            x       y       z     vdW  Elec       q    Type
REMARK                         _______ _______ _______ _____ _____    ______ ____
ROOT
ATOM      1  C   LIG    1        4.597   8.170   0.288  0.00  0.00    -0.090 A 
ATOM      2  C   LIG    1        5.810   7.507   0.266  0.00  0.00    +0.020 A 
ATOM      3  C   LIG    1        5.846   6.129   0.159  0.00  0.00    +0.030 A 
ATOM      4  C   LIG    1        4.670   5.410   0.079  0.00  0.00    +0.030 A 
ATOM      5  C   LIG    1        3.450   6.073   0.095  0.00  0.00    +0.140 A 
ATOM      6  C   LIG    1        3.417   7.457   0.203  0.00  0.00    +0.010 A 
ENDROOT
BRANCH   5   7
ATOM      7  N   LIG    1        2.257   5.348   0.010  0.00  0.00    -0.670 N 
ATOM      8  H   LIG    1        1.466   5.660   0.477  0.00  0.00    +0.410 HD
ATOM      9  C   LIG    1        2.207   4.217  -0.721  0.00  0.00    +0.570 C 
ATOM     10  O   LIG    1        3.168   3.878  -1.383  0.00  0.00    -0.510 OA
BRANCH   9  11
ATOM     11  C   LIG    1        0.982   3.389  -0.718  0.00  0.00    -0.190 A 
ATOM     12  C   LIG    1        0.917   2.212  -1.473  0.00  0.00    +0.140 A 
ATOM     13  C   LIG    1       -0.252   1.473  -1.436  0.00  0.00    -0.030 A 
ATOM     14  C   LIG    1       -1.311   1.919  -0.665  0.00  0.00    +0.300 A 
ATOM     15  N   LIG    1       -1.219   3.030   0.041  0.00  0.00    -0.490 NA
ATOM     16  C   LIG    1       -0.129   3.768   0.038  0.00  0.00    +0.300 A 
ENDBRANCH   9  11
ENDBRANCH   5   7
BRANCH   1  17
ATOM     17  C   LIG    1        4.562   9.672   0.405  0.00  0.00    +0.320 C 
BRANCH  17  19
ATOM     18  C   LIG    1        4.481  11.353   2.167  0.00  0.00    +0.560 C 
ATOM     19  N   LIG    1        4.517  10.051   1.819  0.00  0.00    -0.720 N 
ATOM     20  H   LIG    1        4.514   9.365   2.505  0.00  0.00    +0.400 HD
ATOM     21  O   LIG    1        4.485  12.212   1.308  0.00  0.00    -0.530 OA
BRANCH  18  26
ATOM     22  C   LIG    1        4.302  12.836   7.726  0.00  0.00    +0.110 C 
ATOM     23  C   LIG    1        4.349  12.449   6.271  0.00  0.00    -0.090 A 
ATOM     24  C   LIG    1        4.387  11.113   5.915  0.00  0.00    +0.040 A 
ATOM     25  C   LIG    1        4.424  10.751   4.584  0.00  0.00    +0.040 A 
ATOM     26  C   LIG    1        4.435  11.735   3.595  0.00  0.00    -0.110 A 
ATOM     27  C   LIG    1        4.397  13.082   3.958  0.00  0.00    +0.060 A 
ATOM     28  C   LIG    1        4.355  13.432   5.294  0.00  0.00    +0.090 A 
ATOM     29  F   LIG    1        4.317  14.735   5.649  0.00  0.00    -0.130 F 
ENDBRANCH  18  26
ENDBRANCH  17  19
ENDBRANCH   1  17
TORSDOF 5
