REMARK  Name = ZINCtV00000vwajf.0
REMARK                            x       y       z     vdW  Elec       q    Type
REMARK                         _______ _______ _______ _____ _____    ______ ____
ROOT
ATOM      1  C   LIG    1        1.958  -4.162  -0.039  0.00  0.00    -0.270 A 
ATOM      2  C   LIG    1        2.348  -2.838  -0.041  0.00  0.00    +0.340 A 
ATOM      3  N   LIG    1        1.237  -2.081  -0.021  0.00  0.00    -0.310 N 
ATOM      4  N   LIG    1        0.108  -2.905  -0.014  0.00  0.00    -0.270 NA
ATOM      5  C   LIG    1        0.491  -4.161  -0.025  0.00  0.00    +0.190 A 
ENDROOT
BRANCH   3   6
ATOM      6  C   LIG    1        1.215  -0.680  -0.013  0.00  0.00    +0.140 A 
ATOM      7  C   LIG    1        0.002  -0.004   0.002  0.00  0.00    +0.030 A 
ATOM      8  C   LIG    1       -0.017   1.377   0.010  0.00  0.00    +0.040 A 
ATOM      9  C   LIG    1        1.171   2.086   0.002  0.00  0.00    +0.010 A 
ATOM     10  C   LIG    1        2.380   1.415  -0.013  0.00  0.00    +0.050 A 
ATOM     11  C   LIG    1        2.405   0.035  -0.021  0.00  0.00    -0.010 A 
ENDBRANCH   3   6
BRANCH   5  12
ATOM     12  C   LIG    1       -0.391  -5.353  -0.022  0.00  0.00    -0.040 A 
ATOM     13  C   LIG    1       -0.024  -6.497  -0.728  0.00  0.00    +0.090 A 
ATOM     14  C   LIG    1       -0.846  -7.605  -0.717  0.00  0.00    +0.000 A 
ATOM     15  C   LIG    1       -2.039  -7.577  -0.018  0.00  0.00    +0.020 A 
ATOM     16  C   LIG    1       -2.412  -6.442   0.680  0.00  0.00    +0.000 A 
ATOM     17  C   LIG    1       -1.594  -5.330   0.682  0.00  0.00    +0.040 A 
ENDBRANCH   5  12
BRANCH   1  19
ATOM     18  O   LIG    1        2.360  -6.457  -0.056  0.00  0.00    -0.500 OA
ATOM     19  C   LIG    1        2.839  -5.340  -0.054  0.00  0.00    +0.550 C 
BRANCH  19  20
ATOM     20  O   LIG    1        4.177  -5.181  -0.066  0.00  0.00    -0.340 OA
BRANCH  20  21
ATOM     21  C   LIG    1        4.984  -6.388  -0.081  0.00  0.00    +0.290 C 
BRANCH  21  22
ATOM     22  C   LIG    1        6.444  -6.016  -0.093  0.00  0.00    -0.080 A 
ATOM     23  C   LIG    1        7.105  -5.844  -1.296  0.00  0.00    -0.000 A 
ATOM     24  C   LIG    1        8.444  -5.497  -1.307  0.00  0.00    +0.040 A 
ATOM     25  C   LIG    1        9.125  -5.333  -0.115  0.00  0.00    +0.070 A 
ATOM     26  C   LIG    1        8.467  -5.510   1.087  0.00  0.00    +0.040 A 
ATOM     27 CL   LIG    1        6.251  -6.057  -2.793  0.00  0.00    -0.050 Cl
ATOM     28  C   LIG    1        7.127  -5.851   1.099  0.00  0.00    -0.000 A 
ATOM     29 CL   LIG    1        6.301  -6.074   2.610  0.00  0.00    -0.050 Cl
ENDBRANCH  21  22
ENDBRANCH  20  21
ENDBRANCH  19  20
ENDBRANCH   1  19
TORSDOF 6
