REMARK  Name = ZINCvU00000005P1.0
REMARK                            x       y       z     vdW  Elec       q    Type
REMARK                         _______ _______ _______ _____ _____    ______ ____
ROOT
ATOM      1  C   LIG    1        3.399   4.058  -0.964  0.00  0.00    +0.150 A 
ATOM      2  N   LIG    1        4.451   4.701  -0.508  0.00  0.00    -0.280 NA
ATOM      3  N   LIG    1        4.188   5.224   0.636  0.00  0.00    -0.260 NA
ATOM      4  C   LIG    1        2.949   4.955   0.979  0.00  0.00    +0.240 A 
ATOM      5  N   LIG    1        2.406   4.194  -0.033  0.00  0.00    -0.420 N 
ENDROOT
BRANCH   5   6
ATOM      6  C   LIG    1        1.107   3.672  -0.097  0.00  0.00    +0.110 A 
ATOM      7  C   LIG    1        0.907   2.298  -0.070  0.00  0.00    +0.060 A 
ATOM      8  C   LIG    1       -0.375   1.787  -0.133  0.00  0.00    +0.080 A 
ATOM      9  C   LIG    1       -1.458   2.642  -0.229  0.00  0.00    -0.070 A 
ATOM     10  C   LIG    1       -1.262   4.012  -0.251  0.00  0.00    +0.070 A 
ATOM     11 BR   LIG    1       -3.211   1.938  -0.324  0.00  0.00    -0.030 Br
ATOM     12  C   LIG    1        0.018   4.528  -0.188  0.00  0.00    +0.050 A 
ENDBRANCH   5   6
BRANCH   4  13
ATOM     13  C   LIG    1        2.268   5.384   2.218  0.00  0.00    -0.080 A 
ATOM     14  C   LIG    1        1.105   4.737   2.651  0.00  0.00    +0.080 A 
ATOM     15  C   LIG    1        0.505   5.177   3.818  0.00  0.00    -0.030 A 
ATOM     16  C   LIG    1        1.069   6.232   4.513  0.00  0.00    +0.280 A 
ATOM     17  N   LIG    1        2.166   6.823   4.081  0.00  0.00    -0.480 NA
ATOM     18  C   LIG    1        2.776   6.438   2.980  0.00  0.00    +0.320 A 
ENDBRANCH   4  13
BRANCH   1  19
ATOM     19  S   LIG    1        3.288   3.186  -2.491  0.00  0.00    +0.100 S 
BRANCH  19  20
ATOM     20  C   LIG    1        4.958   3.462  -3.133  0.00  0.00    +0.110 C 
BRANCH  20  23
ATOM     21  N   LIG    1        6.267   2.857  -5.143  0.00  0.00    -0.660 N 
ATOM     22  H   LIG    1        7.037   3.280  -4.732  0.00  0.00    +0.420 HD
ATOM     23  C   LIG    1        5.100   2.786  -4.472  0.00  0.00    +0.530 C 
ATOM     24  O   LIG    1        4.164   2.178  -4.947  0.00  0.00    -0.500 OA
BRANCH  21  29
ATOM     25  C   LIG    1        6.673   0.685 -10.368  0.00  0.00    +0.100 C 
ATOM     26  C   LIG    1        6.564   1.262  -8.980  0.00  0.00    -0.100 A 
ATOM     27  C   LIG    1        5.637   0.751  -8.091  0.00  0.00    +0.020 A 
ATOM     28  C   LIG    1        5.536   1.278  -6.818  0.00  0.00    +0.030 A 
ATOM     29  C   LIG    1        6.367   2.321  -6.432  0.00  0.00    +0.130 A 
ATOM     30  C   LIG    1        7.293   2.837  -7.330  0.00  0.00    -0.110 A 
ATOM     31  C   LIG    1        8.191   3.974  -6.917  0.00  0.00    +0.080 C 
ATOM     32  C   LIG    1        7.393   2.302  -8.599  0.00  0.00    +0.030 A 
ENDBRANCH  21  29
ENDBRANCH  20  23
ENDBRANCH  19  20
ENDBRANCH   1  19
TORSDOF 6
