REMARK  Name = ZINCrD000000fvXn.0
REMARK                            x       y       z     vdW  Elec       q    Type
REMARK                         _______ _______ _______ _____ _____    ______ ____
ROOT
ATOM      1  C   LIG    1       -0.014   1.209   0.009  0.00  0.00    +0.520 C 
ATOM      2  N   LIG    1       -1.191   1.867   0.018  0.00  0.00    -0.620 N 
ATOM      3  C   LIG    1       -1.227   3.335   0.032  0.00  0.00    +0.270 C 
ATOM      4  C   LIG    1       -2.105   3.814  -1.134  0.00  0.00    +0.040 C 
ATOM      5  C   LIG    1       -3.481   3.151  -1.034  0.00  0.00    +0.080 C 
ATOM      6  C   LIG    1       -3.325   1.632  -1.141  0.00  0.00    +0.030 C 
ATOM      7  C   LIG    1       -2.461   1.129   0.020  0.00  0.00    +0.280 C 
ATOM      8  O   LIG    1        0.002  -0.004   0.002  0.00  0.00    -0.510 OA
ENDROOT
BRANCH   5   9
ATOM      9  C   LIG    1       -4.358   3.645  -2.155  0.00  0.00    +0.330 A 
ATOM     10  N   LIG    1       -3.983   3.438  -3.402  0.00  0.00    -0.510 NA
ATOM     11  C   LIG    1       -4.724   3.856  -4.417  0.00  0.00    +0.330 A 
ATOM     12  C   LIG    1       -5.910   4.519  -4.158  0.00  0.00    -0.070 A 
ATOM     13  C   LIG    1       -6.278   4.722  -2.826  0.00  0.00    +0.220 A 
ATOM     14  N   LIG    1       -5.481   4.267  -1.861  0.00  0.00    -0.510 NA
BRANCH  13  15
ATOM     15  C   LIG    1       -7.540   5.427  -2.491  0.00  0.00    -0.030 A 
ATOM     16  C   LIG    1       -8.420   5.803  -3.504  0.00  0.00    +0.040 A 
ATOM     17  C   LIG    1       -9.593   6.459  -3.188  0.00  0.00    +0.050 A 
ATOM     18  C   LIG    1       -9.896   6.744  -1.870  0.00  0.00    +0.010 A 
ATOM     19  C   LIG    1       -9.025   6.373  -0.858  0.00  0.00    +0.100 A 
ATOM     20  F   LIG    1       -9.327   6.654   0.429  0.00  0.00    -0.130 F 
ATOM     21  C   LIG    1       -7.851   5.712  -1.163  0.00  0.00    +0.040 A 
ENDBRANCH  13  15
ENDBRANCH   5   9
BRANCH   1  22
ATOM     22  C   LIG    1        1.280   1.980   0.001  0.00  0.00    +0.030 C 
BRANCH  22  23
ATOM     23  C   LIG    1        2.457   1.002  -0.016  0.00  0.00    +0.180 C 
ATOM     24  C   LIG    1        2.376   0.128  -1.269  0.00  0.00    +0.060 C 
BRANCH  23  26
ATOM     25  C   LIG    1        4.614   1.615   0.949  0.00  0.00    +0.030 C 
ATOM     26  C   LIG    1        3.751   1.773  -0.024  0.00  0.00    -0.070 C 
ENDBRANCH  23  26
BRANCH  23  27
ATOM     27  O   LIG    1        2.403   0.173   1.147  0.00  0.00    -0.540 OA
ATOM     28  H   LIG    1        2.450   0.661   1.980  0.00  0.00    +0.370 HD
ENDBRANCH  23  27
ENDBRANCH  22  23
ENDBRANCH   1  22
TORSDOF 6
