REMARK  Name = ZINCrD000000AfFz.1
REMARK                            x       y       z     vdW  Elec       q    Type
REMARK                         _______ _______ _______ _____ _____    ______ ____
ROOT
ATOM      1  O   LIG    1        0.002  -0.004   0.002  0.00  0.00    -0.460 OA
ATOM      2  C   LIG    1       -0.014   1.209   0.009  0.00  0.00    +0.510 C 
ATOM      3  N   LIG    1       -1.191   1.867   0.018  0.00  0.00    -0.630 N 
ATOM      4  H   LIG    1       -1.204   2.837   0.023  0.00  0.00    +0.430 HD
ENDROOT
BRANCH   3   5
ATOM      5  C   LIG    1       -2.387   1.154   0.020  0.00  0.00    +0.250 A 
ATOM      6  N   LIG    1       -2.507  -0.139   0.007  0.00  0.00    -0.250 NA
ATOM      7  N   LIG    1       -3.673  -0.622   0.015  0.00  0.00    -0.240 NA
ATOM      8  C   LIG    1       -4.672   0.211   0.024  0.00  0.00    -0.020 A 
ATOM      9  S   LIG    1       -4.010   1.847   0.031  0.00  0.00    +0.130 S 
BRANCH   8  10
ATOM     10  S   LIG    1       -6.381  -0.218   0.030  0.00  0.00    +0.030 S 
BRANCH  10  11
ATOM     11  C   LIG    1       -6.347  -2.031   0.018  0.00  0.00    +0.150 C 
BRANCH  11  12
ATOM     12  C   LIG    1       -7.758  -2.560   0.022  0.00  0.00    -0.100 A 
ATOM     13  C   LIG    1       -8.397  -2.816   1.221  0.00  0.00    +0.070 A 
ATOM     14  C   LIG    1       -9.693  -3.296   1.226  0.00  0.00    -0.010 A 
ATOM     15  C   LIG    1      -10.347  -3.532   0.029  0.00  0.00    +0.110 A 
ATOM     16  C   LIG    1       -9.704  -3.281  -1.172  0.00  0.00    -0.010 A 
ATOM     17  F   LIG    1      -11.612  -4.007   0.032  0.00  0.00    -0.140 F 
ATOM     18  C   LIG    1       -8.410  -2.796  -1.174  0.00  0.00    +0.070 A 
ENDBRANCH  11  12
ENDBRANCH  10  11
ENDBRANCH   8  10
ENDBRANCH   3   5
BRANCH   2  19
ATOM     19  C   LIG    1        1.280   1.980   0.001  0.00  0.00    +0.070 C 
BRANCH  19  20
ATOM     20  C   LIG    1        2.457   1.002  -0.016  0.00  0.00    +0.310 C 
BRANCH  20  21
ATOM     21  N   LIG    1        3.715   1.751  -0.024  0.00  0.00    -0.720 N 
ATOM     22  H   LIG    1        3.702   2.721  -0.019  0.00  0.00    +0.410 HD
ATOM     23  C   LIG    1        4.891   1.093  -0.039  0.00  0.00    +0.610 C 
ATOM     24  O   LIG    1        4.908  -0.123  -0.045  0.00  0.00    -0.510 OA
BRANCH  23  25
ATOM     25  C   LIG    1        6.151   1.844  -0.047  0.00  0.00    -0.090 A 
ATOM     26  C   LIG    1        7.406   1.305  -0.056  0.00  0.00    +0.050 A 
ATOM     27  C   LIG    1        8.307   2.381  -0.063  0.00  0.00    -0.060 A 
ATOM     28  C   LIG    1        7.572   3.515  -0.050  0.00  0.00    +0.210 A 
ATOM     29  O   LIG    1        6.274   3.187  -0.040  0.00  0.00    -0.170 OA
ENDBRANCH  23  25
ENDBRANCH  20  21
ENDBRANCH  19  20
ENDBRANCH   2  19
TORSDOF 8
