REMARK  Name = ZINCrD000006T7C6.0
REMARK                            x       y       z     vdW  Elec       q    Type
REMARK                         _______ _______ _______ _____ _____    ______ ____
ROOT
ATOM      1  C   LIG    1       -3.466   5.326   7.452  0.00  0.00    +0.000 C 
ATOM      2  C   LIG    1       -2.575   4.282   8.130  0.00  0.00    +0.030 C 
ATOM      3  C   LIG    1       -2.076   4.834   9.468  0.00  0.00    +0.300 C 
ATOM      4  N   LIG    1       -3.235   5.251  10.270  0.00  0.00    -1.000 NA
ATOM      5  C   LIG    1       -4.204   6.184   9.679  0.00  0.00    +0.300 C 
ATOM      6  C   LIG    1       -4.680   5.616   8.338  0.00  0.00    +0.050 C 
ENDROOT
BRANCH   1   8
ATOM      7  O   LIG    1       -5.118   4.668   5.899  0.00  0.00    -0.540 OA
ATOM      8  C   LIG    1       -3.932   4.799   6.119  0.00  0.00    +0.520 C 
ATOM      9  N   LIG    1       -3.031   4.473   5.171  0.00  0.00    -0.730 N 
ATOM     10  H   LIG    1       -2.083   4.577   5.347  0.00  0.00    +0.400 HD
BRANCH   9  11
ATOM     11  C   LIG    1       -3.484   3.961   3.876  0.00  0.00    +0.260 C 
BRANCH  11  12
ATOM     12  C   LIG    1       -2.271   3.670   2.990  0.00  0.00    +0.010 C 
BRANCH  12  13
ATOM     13  C   LIG    1       -2.744   3.135   1.636  0.00  0.00    +0.030 C 
BRANCH  13  14
ATOM     14  C   LIG    1       -1.531   2.845   0.750  0.00  0.00    -0.010 C 
ATOM     15  C   LIG    1       -0.763   1.597   1.255  0.00  0.00    +0.010 C 
ATOM     16  C   LIG    1       -0.013   1.086   0.008  0.00  0.00    -0.010 C 
ATOM     17  C   LIG    1       -0.784   1.609  -1.216  0.00  0.00    -0.010 C 
ATOM     18  C   LIG    1       -1.978   2.421  -0.670  0.00  0.00    +0.010 C 
ENDBRANCH  13  14
ENDBRANCH  12  13
ENDBRANCH  11  12
ENDBRANCH   9  11
ENDBRANCH   1   8
BRANCH   4  19
ATOM     19  S   LIG    1       -3.443   4.681  11.811  0.00  0.00    +2.690 S 
ATOM     20  O   LIG    1       -4.260   5.631  12.482  0.00  0.00    -0.950 OA
ATOM     21  O   LIG    1       -2.156   4.296  12.274  0.00  0.00    -0.950 OA
BRANCH  19  22
ATOM     22  C   LIG    1       -4.393   3.202  11.695  0.00  0.00    -0.690 A 
ATOM     23  C   LIG    1       -5.773   3.260  11.755  0.00  0.00    +0.160 A 
ATOM     24  C   LIG    1       -6.519   2.101  11.660  0.00  0.00    -0.020 A 
ATOM     25  C   LIG    1       -5.884   0.879  11.514  0.00  0.00    +0.160 A 
ATOM     26  C   LIG    1       -4.502   0.821  11.460  0.00  0.00    -0.030 A 
ATOM     27  F   LIG    1       -6.613  -0.255  11.426  0.00  0.00    -0.130 F 
ATOM     28  C   LIG    1       -3.758   1.982  11.550  0.00  0.00    +0.160 A 
ENDBRANCH  19  22
ENDBRANCH   4  19
TORSDOF 7
