REMARK  Name = ZINCb80000002vA0.0
REMARK                            x       y       z     vdW  Elec       q    Type
REMARK                         _______ _______ _______ _____ _____    ______ ____
ROOT
ATOM      1  C   LIG    1        3.059   0.100  -0.026  0.00  0.00    +0.350 C 
ATOM      2  N   LIG    1        2.517   1.462  -0.014  0.00  0.00    -0.540 N 
ATOM      3  C   LIG    1        3.241   2.598  -0.015  0.00  0.00    +0.680 A 
ATOM      4  N   LIG    1        2.416   3.662  -0.001  0.00  0.00    -0.630 N 
ATOM      5  H   LIG    1        2.689   4.593   0.002  0.00  0.00    +0.440 HD
ATOM      6  C   LIG    1        1.104   3.198   0.009  0.00  0.00    +0.030 A 
ATOM      7  C   LIG    1       -0.137   3.809   0.025  0.00  0.00    +0.300 A 
ATOM      8  N   LIG    1       -1.239   3.082   0.031  0.00  0.00    -0.470 NA
ATOM      9  C   LIG    1       -1.211   1.762   0.017  0.00  0.00    +0.280 A 
ATOM     10  C   LIG    1       -0.013   1.076   0.008  0.00  0.00    -0.020 A 
ATOM     11  O   LIG    1        4.457   2.654  -0.026  0.00  0.00    -0.540 OA
ATOM     12  C   LIG    1        1.173   1.799   0.001  0.00  0.00    +0.130 A 
ENDROOT
TORSDOF 0
