REMARK  Name = ZINCvU0000000A2V.0
REMARK                            x       y       z     vdW  Elec       q    Type
REMARK                         _______ _______ _______ _____ _____    ______ ____
ROOT
ATOM      1  C   LIG    1       -0.216   1.279  -0.049  0.00  0.00    +0.510 C 
ATOM      2  N   LIG    1        0.855   2.095  -0.103  0.00  0.00    -0.670 N 
ATOM      3  H   LIG    1        0.730   3.054  -0.190  0.00  0.00    +0.410 HD
ATOM      4  O   LIG    1       -0.060   0.076  -0.011  0.00  0.00    -0.520 OA
ENDROOT
BRANCH   2   5
ATOM      5  C   LIG    1        2.146   1.562  -0.033  0.00  0.00    +0.150 A 
ATOM      6  C   LIG    1        2.419   0.324  -0.599  0.00  0.00    +0.020 A 
ATOM      7  C   LIG    1        3.695  -0.201  -0.528  0.00  0.00    +0.020 A 
ATOM      8  C   LIG    1        4.700   0.505   0.106  0.00  0.00    -0.010 A 
ATOM      9  C   LIG    1        4.431   1.738   0.672  0.00  0.00    +0.020 A 
ATOM     10  C   LIG    1        3.160   2.271   0.599  0.00  0.00    -0.100 A 
BRANCH  10  11
ATOM     11  C   LIG    1        2.870   3.618   1.210  0.00  0.00    +0.120 C 
BRANCH  11  12
ATOM     12  C   LIG    1        2.329   3.432   2.604  0.00  0.00    -0.080 A 
ATOM     13  C   LIG    1        0.967   3.310   2.806  0.00  0.00    +0.000 A 
ATOM     14  C   LIG    1        0.471   3.135   4.085  0.00  0.00    +0.000 A 
ATOM     15  C   LIG    1        1.337   3.090   5.162  0.00  0.00    +0.000 A 
ATOM     16  C   LIG    1        2.698   3.217   4.960  0.00  0.00    +0.000 A 
ATOM     17  C   LIG    1        3.194   3.388   3.681  0.00  0.00    +0.010 A 
ENDBRANCH  11  12
ENDBRANCH  10  11
ENDBRANCH   2   5
BRANCH   1  18
ATOM     18  C   LIG    1       -1.607   1.859  -0.043  0.00  0.00    +0.060 C 
BRANCH  18  19
ATOM     19  C   LIG    1       -2.632   0.725   0.015  0.00  0.00    +0.140 C 
BRANCH  19  26
ATOM     20  C   LIG    1       -4.308   1.517   2.586  0.00  0.00    +0.160 C 
ATOM     21  C   LIG    1       -4.764   1.655   1.156  0.00  0.00    +0.090 A 
ATOM     22  N   LIG    1       -5.919   2.126   0.761  0.00  0.00    -0.290 NA
ATOM     23  N   LIG    1       -5.955   2.083  -0.638  0.00  0.00    -0.320 N 
ATOM     24  C   LIG    1       -4.778   1.575  -1.069  0.00  0.00    +0.090 A 
ATOM     25  C   LIG    1       -4.379   1.349  -2.504  0.00  0.00    +0.150 C 
ATOM     26  C   LIG    1       -4.023   1.305   0.022  0.00  0.00    -0.230 A 
BRANCH  23  27
ATOM     27  C   LIG    1       -7.022   2.494  -1.449  0.00  0.00    +0.150 A 
ATOM     28  C   LIG    1       -7.785   3.597  -1.089  0.00  0.00    +0.020 A 
ATOM     29  C   LIG    1       -8.832   4.003  -1.893  0.00  0.00    +0.030 A 
ATOM     30  C   LIG    1       -9.127   3.307  -3.050  0.00  0.00    +0.010 A 
ATOM     31  C   LIG    1       -8.372   2.205  -3.409  0.00  0.00    +0.030 A 
ATOM     32  C   LIG    1       -7.321   1.797  -2.612  0.00  0.00    +0.000 A 
ENDBRANCH  23  27
ENDBRANCH  19  26
ENDBRANCH  18  19
ENDBRANCH   1  18
TORSDOF 7
