REMARK  Name = ZINCqH00000371Xi.0
REMARK                            x       y       z     vdW  Elec       q    Type
REMARK                         _______ _______ _______ _____ _____    ______ ____
ROOT
ATOM      1  C   LIG    1        2.144   0.594  -0.015  0.00  0.00    -0.230 A 
ATOM      2  C   LIG    1        1.278  -0.460  -0.013  0.00  0.00    +0.280 A 
ATOM      3  N   LIG    1        0.002  -0.004   0.002  0.00  0.00    -0.460 N 
ATOM      4  C   LIG    1       -0.017   1.375   0.010  0.00  0.00    +0.090 A 
ATOM      5  C   LIG    1       -1.043   2.313   0.029  0.00  0.00    -0.010 A 
ATOM      6  C   LIG    1       -0.745   3.659   0.030  0.00  0.00    +0.030 A 
ATOM      7  C   LIG    1        0.573   4.091   0.019  0.00  0.00    -0.020 A 
ATOM      8  C   LIG    1        1.604   3.177   0.004  0.00  0.00    +0.070 A 
ATOM      9  C   LIG    1        1.317   1.815  -0.001  0.00  0.00    -0.060 A 
ENDROOT
BRANCH   1  12
ATOM     10  N   LIG    1        4.230  -0.671  -0.042  0.00  0.00    -0.710 N 
ATOM     11  H   LIG    1        3.707  -1.488  -0.041  0.00  0.00    +0.400 HD
ATOM     12  C   LIG    1        3.611   0.526  -0.029  0.00  0.00    +0.590 C 
ATOM     13  O   LIG    1        4.268   1.550  -0.029  0.00  0.00    -0.540 OA
BRANCH  10  15
ATOM     14  C   LIG    1        6.262  -0.051   1.187  0.00  0.00    +0.040 C 
ATOM     15  C   LIG    1        5.694  -0.740  -0.056  0.00  0.00    +0.190 C 
ATOM     16  C   LIG    1        6.240  -0.067  -1.327  0.00  0.00    +0.030 C 
ATOM     17  C   LIG    1        7.014  -1.153  -2.102  0.00  0.00    +0.010 C 
ATOM     18  C   LIG    1        6.397  -2.485  -1.608  0.00  0.00    -0.010 C 
ATOM     19  C   LIG    1        6.154  -2.211  -0.103  0.00  0.00    +0.180 C 
BRANCH  19  20
ATOM     20  O   LIG    1        5.131  -3.071   0.403  0.00  0.00    -0.560 OA
ATOM     21  H   LIG    1        5.367  -4.009   0.397  0.00  0.00    +0.380 HD
ENDBRANCH  19  20
ENDBRANCH  10  15
ENDBRANCH   1  12
BRANCH   3  22
ATOM     22  C   LIG    1       -1.190  -0.856   0.009  0.00  0.00    +0.350 C 
BRANCH  22  23
ATOM     23  C   LIG    1       -1.684  -1.040  -1.403  0.00  0.00    -0.120 A 
ATOM     24  C   LIG    1       -2.607  -0.158  -1.932  0.00  0.00    +0.020 A 
ATOM     25  C   LIG    1       -3.057  -0.324  -3.229  0.00  0.00    +0.010 A 
ATOM     26  C   LIG    1       -2.591  -1.378  -3.993  0.00  0.00    +0.010 A 
ATOM     27  C   LIG    1       -1.671  -2.263  -3.461  0.00  0.00    +0.010 A 
ATOM     28  C   LIG    1       -1.218  -2.094  -2.167  0.00  0.00    +0.020 A 
ENDBRANCH  22  23
ENDBRANCH   3  22
TORSDOF 5
