REMARK  Name = ZINCtV00001bB3Ct.1
REMARK                            x       y       z     vdW  Elec       q    Type
REMARK                         _______ _______ _______ _____ _____    ______ ____
ROOT
ATOM      1  C   LIG    1       -5.793   9.178   1.207  0.00  0.00    +0.160 A 
ATOM      2  C   LIG    1       -6.980   9.817   0.906  0.00  0.00    +0.050 A 
ATOM      3  C   LIG    1       -7.670  10.510   1.906  0.00  0.00    +0.090 A 
ATOM      4  C   LIG    1       -7.163  10.550   3.211  0.00  0.00    +0.030 A 
ATOM      5  C   LIG    1       -5.996   9.915   3.516  0.00  0.00    +0.070 A 
ATOM      6  C   LIG    1       -5.293   9.218   2.523  0.00  0.00    -0.090 A 
ENDROOT
BRANCH   1   7
ATOM      7  O   LIG    1       -5.116   8.509   0.241  0.00  0.00    -0.460 OA
ATOM      8  H   LIG    1       -5.369   7.580   0.154  0.00  0.00    +0.400 HD
ENDBRANCH   1   7
BRANCH   3   9
ATOM      9  N   LIG    1       -8.840  11.147   1.609  0.00  0.00    -0.220 NA
ATOM     10  N   LIG    1       -9.478  11.786   2.531  0.00  0.00    -0.190 NA
BRANCH  10  11
ATOM     11  C   LIG    1      -10.648  12.424   2.234  0.00  0.00    +0.040 A 
ATOM     12  C   LIG    1      -11.156  12.392   0.932  0.00  0.00    +0.050 A 
ATOM     13  C   LIG    1      -12.340  13.035   0.641  0.00  0.00    +0.000 A 
ATOM     14  C   LIG    1      -13.022  13.719   1.633  0.00  0.00    +0.050 A 
ATOM     15  C   LIG    1      -12.524  13.760   2.923  0.00  0.00    +0.010 A 
ATOM     16  C   LIG    1      -11.343  13.117   3.231  0.00  0.00    +0.090 A 
ENDBRANCH  10  11
ENDBRANCH   3   9
BRANCH   6  17
ATOM     17  C   LIG    1       -4.039   8.538   2.852  0.00  0.00    +0.340 C 
ATOM     18  N   LIG    1       -3.382   7.885   1.921  0.00  0.00    -0.340 NA
BRANCH  18  19
ATOM     19  N   LIG    1       -2.277   7.286   2.211  0.00  0.00    -0.290 NA
ATOM     20  C   LIG    1       -1.622   6.635   1.282  0.00  0.00    +0.240 C 
ATOM     21  C   LIG    1       -0.315   5.882   1.460  0.00  0.00    +0.120 C 
ATOM     22  C   LIG    1       -0.070   5.347   0.031  0.00  0.00    +0.140 C 
ATOM     23  N   LIG    1       -1.228   5.855  -0.719  0.00  0.00    -0.090 NA
ATOM     24  N   LIG    1       -1.980   6.508  -0.006  0.00  0.00    -0.170 NA
BRANCH  22  25
ATOM     25  C   LIG    1       -0.050   3.840   0.023  0.00  0.00    -0.070 A 
ATOM     26  C   LIG    1        1.156   3.165   0.008  0.00  0.00    +0.030 A 
ATOM     27  C   LIG    1        1.175   1.783   0.000  0.00  0.00    +0.010 A 
ATOM     28  C   LIG    1       -0.013   1.076   0.008  0.00  0.00    +0.020 A 
ATOM     29  C   LIG    1       -1.219   1.751   0.017  0.00  0.00    +0.020 A 
ATOM     30  C   LIG    1       -1.238   3.133   0.030  0.00  0.00    +0.020 A 
ENDBRANCH  22  25
ENDBRANCH  18  19
ENDBRANCH   6  17
TORSDOF 6
