REMARK  Name = ZINCvU00000004zK.0
REMARK                            x       y       z     vdW  Elec       q    Type
REMARK                         _______ _______ _______ _____ _____    ______ ____
ROOT
ATOM      1  N   LIG    1       -1.191   1.870   0.018  0.00  0.00    -0.630 N 
ATOM      2  H   LIG    1       -1.204   2.840   0.023  0.00  0.00    +0.420 HD
ATOM      3  C   LIG    1       -0.014   1.212   0.009  0.00  0.00    +0.580 C 
ATOM      4  O   LIG    1        0.002  -0.004   0.002  0.00  0.00    -0.450 OA
ENDROOT
BRANCH   1  10
ATOM      5  C   LIG    1       -6.390  -1.442   0.024  0.00  0.00    +0.150 A 
ATOM      6  C   LIG    1       -5.386  -2.404   0.014  0.00  0.00    -0.040 A 
ATOM      7  C   LIG    1       -4.065  -2.033   0.010  0.00  0.00    +0.120 A 
ATOM      8  C   LIG    1       -3.704  -0.669   0.016  0.00  0.00    +0.070 A 
ATOM      9  N   LIG    1       -2.471  -0.123   0.007  0.00  0.00    -0.450 NA
ATOM     10  C   LIG    1       -2.381   1.161   0.020  0.00  0.00    +0.330 A 
ATOM     11  S   LIG    1       -3.981   1.888   0.031  0.00  0.00    +0.080 S 
ATOM     12  C   LIG    1       -4.722   0.289   0.026  0.00  0.00    -0.140 A 
ATOM     13  C   LIG    1       -6.059  -0.101   0.030  0.00  0.00    +0.030 A 
BRANCH   5  14
ATOM     14  O   LIG    1       -7.696  -1.821   0.027  0.00  0.00    -0.310 OA
BRANCH  14  16
ATOM     15  C   LIG    1       -9.477  -3.455   0.025  0.00  0.00    +0.070 C 
ATOM     16  C   LIG    1       -7.964  -3.225   0.020  0.00  0.00    +0.190 C 
ENDBRANCH  14  16
ENDBRANCH   5  14
ENDBRANCH   1  10
BRANCH   3  17
ATOM     17  C   LIG    1        1.252   1.966   0.001  0.00  0.00    -0.220 A 
ATOM     18  C   LIG    1        2.525   1.431  -0.014  0.00  0.00    +0.060 A 
ATOM     19  N   LIG    1        3.393   2.458  -0.017  0.00  0.00    -0.270 N 
ATOM     20  N   LIG    1        2.664   3.654  -0.004  0.00  0.00    -0.250 NA
ATOM     21  C   LIG    1        1.390   3.373   0.001  0.00  0.00    +0.300 A 
BRANCH  19  22
ATOM     22  C   LIG    1        4.790   2.351  -0.032  0.00  0.00    +0.110 A 
ATOM     23  C   LIG    1        5.415   1.315   0.650  0.00  0.00    +0.020 A 
ATOM     24  C   LIG    1        6.792   1.208   0.629  0.00  0.00    +0.040 A 
ATOM     25  C   LIG    1        7.548   2.138  -0.061  0.00  0.00    -0.070 A 
ATOM     26  C   LIG    1        6.929   3.174  -0.736  0.00  0.00    +0.030 A 
ATOM     27  C   LIG    1        9.051   2.022  -0.077  0.00  0.00    +0.100 C 
ATOM     28  C   LIG    1        5.552   3.283  -0.723  0.00  0.00    +0.060 A 
ENDBRANCH  19  22
BRANCH  18  29
ATOM     29  C   LIG    1        2.876  -0.035  -0.025  0.00  0.00    +0.530 C 
ATOM     30  F   LIG    1        4.090  -0.218  -0.697  0.00  0.00    -0.170 F 
ATOM     31  F   LIG    1        1.869  -0.752  -0.678  0.00  0.00    -0.130 F 
ATOM     32  F   LIG    1        2.998  -0.495   1.291  0.00  0.00    -0.160 F 
ENDBRANCH  18  29
ENDBRANCH   3  17
TORSDOF 6
