REMARK  Name = ZINCqH00000003oc.0
REMARK                            x       y       z     vdW  Elec       q    Type
REMARK                         _______ _______ _______ _____ _____    ______ ____
ROOT
ATOM      1  C   LIG    1        5.472  -1.880   0.604  0.00  0.00    +0.470 C 
ATOM      2  N   LIG    1        6.413  -0.885   0.097  0.00  0.00    -0.750 N 
ATOM      3  H   LIG    1        7.332  -1.139  -0.080  0.00  0.00    +0.410 HD
ATOM      4  C   LIG    1        6.016   0.391  -0.128  0.00  0.00    +0.600 C 
ATOM      5  C   LIG    1        4.609   0.628  -0.041  0.00  0.00    -0.310 A 
ATOM      6  C   LIG    1        3.713  -0.409   0.039  0.00  0.00    +0.170 A 
ATOM      7  C   LIG    1        2.332   0.033   0.145  0.00  0.00    -0.130 A 
ATOM      8  C   LIG    1        1.157  -0.745   0.258  0.00  0.00    +0.030 A 
ATOM      9  C   LIG    1       -0.057  -0.103   0.343  0.00  0.00    -0.040 A 
ATOM     10  C   LIG    1       -0.099   1.283   0.314  0.00  0.00    +0.180 A 
ATOM     11  N   LIG    1        1.001   1.992   0.209  0.00  0.00    -0.470 NA
ATOM     12  C   LIG    1       -1.429   1.987   0.399  0.00  0.00    +0.140 C 
ATOM     13  C   LIG    1        1.232  -2.250   0.284  0.00  0.00    +0.120 C 
ATOM     14  C   LIG    1        2.208   1.426   0.126  0.00  0.00    +0.070 A 
ATOM     15  S   LIG    1        3.795   2.173  -0.014  0.00  0.00    +0.260 S 
ATOM     16  O   LIG    1        6.807   1.279  -0.388  0.00  0.00    -0.520 OA
ATOM     17  N   LIG    1        4.143  -1.743   0.003  0.00  0.00    -0.590 N 
ATOM     18  H   LIG    1        4.134  -2.100  -0.941  0.00  0.00    +0.370 HD
ENDROOT
BRANCH   1  24
ATOM     19  C   LIG    1        5.672  -4.327   1.114  0.00  0.00    +0.170 A 
ATOM     20  C   LIG    1        6.165  -5.592   0.831  0.00  0.00    -0.070 A 
ATOM     21  C   LIG    1        6.989  -5.782  -0.262  0.00  0.00    +0.070 A 
ATOM     22  C   LIG    1        7.321  -4.713  -1.073  0.00  0.00    -0.020 A 
ATOM     23  C   LIG    1        6.826  -3.452  -0.796  0.00  0.00    +0.060 A 
ATOM     24  C   LIG    1        6.006  -3.256   0.299  0.00  0.00    -0.150 A 
BRANCH  19  25
ATOM     25  O   LIG    1        4.862  -4.138   2.189  0.00  0.00    -0.300 OA
BRANCH  25  26
ATOM     26  C   LIG    1        4.559  -5.286   2.984  0.00  0.00    +0.350 C 
BRANCH  26  28
ATOM     27  C   LIG    1        2.973  -4.583   4.981  0.00  0.00    +0.080 C 
ATOM     28  C   LIG    1        3.677  -4.895   4.095  0.00  0.00    -0.210 C 
ENDBRANCH  26  28
ENDBRANCH  25  26
ENDBRANCH  19  25
ENDBRANCH   1  24
TORSDOF 4
