REMARK  Name = ZINCrH000004mu5G.0
REMARK                            x       y       z     vdW  Elec       q    Type
REMARK                         _______ _______ _______ _____ _____    ______ ____
ROOT
ATOM      1  C   LIG    1        0.109  -0.178  -0.074  0.00  0.00    +0.260 C 
ENDROOT
BRANCH   1   3
ATOM      2  C   LIG    1       -1.682  -1.279  -1.305  0.00  0.00    +0.570 C 
ATOM      3  N   LIG    1       -1.000  -1.131  -0.152  0.00  0.00    -0.710 N 
ATOM      4  H   LIG    1       -1.244  -1.656   0.626  0.00  0.00    +0.410 HD
ATOM      5  O   LIG    1       -1.377  -0.621  -2.281  0.00  0.00    -0.530 OA
BRANCH   2   9
ATOM      6  C   LIG    1       -4.899  -4.042  -1.530  0.00  0.00    +0.160 A 
ATOM      7  C   LIG    1       -4.551  -3.291  -2.647  0.00  0.00    -0.020 A 
ATOM      8  C   LIG    1       -3.509  -2.393  -2.578  0.00  0.00    +0.130 A 
ATOM      9  C   LIG    1       -2.800  -2.239  -1.383  0.00  0.00    -0.180 A 
ATOM     10  C   LIG    1       -3.150  -3.000  -0.265  0.00  0.00    +0.090 A 
ATOM     11  C   LIG    1       -4.197  -3.891  -0.341  0.00  0.00    -0.080 A 
BRANCH   6  13
ATOM     12  C   LIG    1       -6.232  -5.664  -0.418  0.00  0.00    +0.240 C 
ATOM     13  O   LIG    1       -5.927  -4.925  -1.603  0.00  0.00    -0.310 OA
ENDBRANCH   6  13
ENDBRANCH   2   9
ENDBRANCH   1   3
BRANCH   1  14
ATOM     14  C   LIG    1        1.061  -0.602   1.014  0.00  0.00    +0.520 C 
ATOM     15  N   LIG    1        2.254   0.011   1.143  0.00  0.00    -0.660 N 
ATOM     16  H   LIG    1        2.529   0.678   0.495  0.00  0.00    +0.420 HD
ATOM     17  O   LIG    1        0.753  -1.496   1.774  0.00  0.00    -0.510 OA
BRANCH  15  18
ATOM     18  C   LIG    1        3.097  -0.315   2.214  0.00  0.00    +0.120 A 
ATOM     19  C   LIG    1        2.556  -0.650   3.447  0.00  0.00    +0.070 A 
ATOM     20  C   LIG    1        3.387  -0.976   4.501  0.00  0.00    -0.040 A 
ATOM     21  C   LIG    1        4.763  -0.960   4.330  0.00  0.00    +0.130 A 
ATOM     22  C   LIG    1        5.306  -0.621   3.098  0.00  0.00    -0.050 A 
ATOM     23 CL   LIG    1        7.029  -0.601   2.885  0.00  0.00    -0.050 Cl
ATOM     24  C   LIG    1        4.475  -0.299   2.042  0.00  0.00    +0.040 A 
BRANCH  21  25
ATOM     25  O   LIG    1        5.581  -1.276   5.370  0.00  0.00    -0.300 OA
ATOM     26  C   LIG    1        4.954  -1.615   6.608  0.00  0.00    +0.240 C 
ENDBRANCH  21  25
ENDBRANCH  15  18
ENDBRANCH   1  14
BRANCH   1  27
ATOM     27  C   LIG    1       -0.437   1.216   0.241  0.00  0.00    -0.020 C 
ATOM     28  C   LIG    1       -1.499   1.594  -0.793  0.00  0.00    +0.030 C 
ATOM     29  C   LIG    1        0.705   2.234   0.195  0.00  0.00    +0.030 C 
ENDBRANCH   1  27
TORSDOF 7
