REMARK  Name = ZINCpk00000eaaTk.0
REMARK                            x       y       z     vdW  Elec       q    Type
REMARK                         _______ _______ _______ _____ _____    ______ ____
ROOT
ATOM      1  N   LIG    1        3.587   1.788   1.033  0.00  0.00    -1.110 NA
ATOM      2  H   LIG    1        3.922   2.209   0.226  0.00  0.00    +0.430 HD
ENDROOT
BRANCH   1   3
ATOM      3  S   LIG    1        4.578   1.610   2.347  0.00  0.00    +2.720 S 
ATOM      4  O   LIG    1        3.845   2.082   3.469  0.00  0.00    -0.930 OA
ATOM      5  O   LIG    1        5.843   2.134   1.969  0.00  0.00    -0.940 OA
BRANCH   3   6
ATOM      6  C   LIG    1        4.809  -0.119   2.595  0.00  0.00    -0.500 A 
ATOM      7  C   LIG    1        4.044  -0.924   3.368  0.00  0.00    -0.070 A 
ATOM      8  C   LIG    1        4.565  -2.219   3.289  0.00  0.00    +0.220 A 
ATOM      9  N   LIG    1        5.612  -2.192   2.504  0.00  0.00    -0.240 NA
ATOM     10  N   LIG    1        5.786  -0.877   2.054  0.00  0.00    -0.310 N 
ATOM     11  C   LIG    1        6.842  -0.407   1.153  0.00  0.00    +0.370 C 
BRANCH   7  12
ATOM     12  C   LIG    1        2.840  -0.500   4.169  0.00  0.00    +0.010 C 
ATOM     13  C   LIG    1        2.236  -1.524   5.133  0.00  0.00    +0.040 C 
ATOM     14  C   LIG    1        1.502  -1.165   3.839  0.00  0.00    +0.030 C 
ENDBRANCH   7  12
ENDBRANCH   3   6
ENDBRANCH   1   3
BRANCH   1  15
ATOM     15  C   LIG    1        2.203   1.310   1.088  0.00  0.00    +0.310 C 
BRANCH  15  16
ATOM     16  C   LIG    1        1.408   1.912  -0.072  0.00  0.00    +0.270 C 
ATOM     17  F   LIG    1        1.423   3.307   0.027  0.00  0.00    -0.180 F 
ATOM     18  F   LIG    1        1.987   1.524  -1.285  0.00  0.00    -0.190 F 
BRANCH  16  19
ATOM     19  C   LIG    1       -0.037   1.412  -0.014  0.00  0.00    +0.090 C 
ATOM     20  C   LIG    1       -0.722   1.969   1.238  0.00  0.00    +0.040 C 
ATOM     21  C   LIG    1       -2.189   1.526   1.245  0.00  0.00    +0.230 C 
ATOM     22  O   LIG    1       -2.828   1.978   0.050  0.00  0.00    -0.380 OA
ATOM     23  C   LIG    1       -2.259   1.452  -1.151  0.00  0.00    +0.230 C 
ATOM     24  C   LIG    1       -0.796   1.892  -1.255  0.00  0.00    -0.010 C 
BRANCH  19  26
ATOM     25  C   LIG    1        0.459  -0.638  -1.152  0.00  0.00    +0.210 C 
ATOM     26  O   LIG    1       -0.048  -0.016   0.031  0.00  0.00    -0.350 OA
ENDBRANCH  19  26
ENDBRANCH  16  19
ENDBRANCH  15  16
ENDBRANCH   1  15
TORSDOF 7
