REMARK  Name = ZINCrH00000No4xl.0
REMARK                            x       y       z     vdW  Elec       q    Type
REMARK                         _______ _______ _______ _____ _____    ______ ____
ROOT
ATOM      1  C   LIG    1        1.963   5.490  -0.669  0.00  0.00    -0.200 A 
ATOM      2  C   LIG    1        3.155   6.107  -0.405  0.00  0.00    +0.290 A 
ATOM      3  N   LIG    1        3.896   5.277   0.358  0.00  0.00    -0.310 N 
ATOM      4  N   LIG    1        3.177   4.102   0.602  0.00  0.00    -0.270 NA
ATOM      5  C   LIG    1        2.006   4.188   0.006  0.00  0.00    +0.200 A 
ENDROOT
BRANCH   3   6
ATOM      6  C   LIG    1        5.185   5.549   0.831  0.00  0.00    +0.150 A 
ATOM      7  C   LIG    1        5.802   6.752   0.517  0.00  0.00    -0.010 A 
ATOM      8  C   LIG    1        7.072   7.020   0.989  0.00  0.00    +0.040 A 
ATOM      9  C   LIG    1        7.733   6.086   1.766  0.00  0.00    +0.000 A 
ATOM     10  C   LIG    1        7.124   4.884   2.076  0.00  0.00    +0.040 A 
ATOM     11  C   LIG    1        5.852   4.613   1.611  0.00  0.00    +0.020 A 
ENDBRANCH   3   6
BRANCH   5  12
ATOM     12  C   LIG    1        0.941   3.166   0.010  0.00  0.00    -0.170 A 
ATOM     13  C   LIG    1        1.141   1.832   0.001  0.00  0.00    +0.030 A 
ATOM     14  C   LIG    1       -0.013   1.076   0.008  0.00  0.00    -0.030 A 
ATOM     15  C   LIG    1       -1.149   1.778   0.017  0.00  0.00    -0.070 A 
ATOM     16  S   LIG    1       -0.786   3.498   0.027  0.00  0.00    +0.290 S 
ENDBRANCH   5  12
BRANCH   1  18
ATOM     17  N   LIG    1       -0.230   5.330  -1.636  0.00  0.00    -0.230 NA
ATOM     18  C   LIG    1        0.851   6.030  -1.470  0.00  0.00    +0.290 C 
BRANCH  17  21
ATOM     19  O   LIG    1       -2.504   4.016  -2.062  0.00  0.00    -0.480 OA
ATOM     20  C   LIG    1       -2.409   5.117  -2.570  0.00  0.00    +0.580 C 
ATOM     21  N   LIG    1       -1.287   5.843  -2.398  0.00  0.00    -0.580 N 
ATOM     22  H   LIG    1       -1.212   6.722  -2.803  0.00  0.00    +0.380 HD
BRANCH  20  23
ATOM     23  C   LIG    1       -3.527   5.660  -3.376  0.00  0.00    -0.080 A 
ATOM     24  C   LIG    1       -3.441   6.926  -3.963  0.00  0.00    -0.010 A 
ATOM     25  C   LIG    1       -4.505   7.391  -4.710  0.00  0.00    +0.260 A 
ATOM     26  N   LIG    1       -5.593   6.663  -4.865  0.00  0.00    -0.470 NA
ATOM     27  C   LIG    1       -5.717   5.467  -4.325  0.00  0.00    +0.270 A 
ATOM     28  C   LIG    1       -4.700   4.922  -3.566  0.00  0.00    +0.040 A 
ENDBRANCH  20  23
ENDBRANCH  17  21
ENDBRANCH   1  18
TORSDOF 5
