REMARK  Name = ZINCqH0000004IjQ.0
REMARK                            x       y       z     vdW  Elec       q    Type
REMARK                         _______ _______ _______ _____ _____    ______ ____
ROOT
ATOM      1  C   LIG    1       -6.200  -3.018  -1.057  0.00  0.00    +0.510 C 
ATOM      2  N   LIG    1       -5.786  -1.766  -1.335  0.00  0.00    -0.670 N 
ATOM      3  H   LIG    1       -6.401  -1.127  -1.729  0.00  0.00    +0.420 HD
ATOM      4  O   LIG    1       -5.458  -3.789  -0.487  0.00  0.00    -0.490 OA
ENDROOT
BRANCH   2   5
ATOM      5  C   LIG    1       -4.472  -1.388  -1.058  0.00  0.00    +0.170 A 
ATOM      6  C   LIG    1       -3.442  -2.314  -1.186  0.00  0.00    +0.010 A 
ATOM      7  C   LIG    1       -2.144  -1.945  -0.912  0.00  0.00    +0.100 A 
ATOM      8  C   LIG    1       -1.863  -0.638  -0.505  0.00  0.00    -0.150 A 
ATOM      9  C   LIG    1       -2.901   0.288  -0.372  0.00  0.00    +0.070 A 
ATOM     10  C   LIG    1       -4.195  -0.086  -0.652  0.00  0.00    -0.020 A 
BRANCH   8  11
ATOM     11  C   LIG    1       -0.473  -0.238  -0.210  0.00  0.00    +0.560 C 
ATOM     12  N   LIG    1       -0.034   0.986  -0.564  0.00  0.00    -0.610 N 
ATOM     13  O   LIG    1        0.277  -1.014   0.351  0.00  0.00    -0.530 OA
BRANCH  12  14
ATOM     14  C   LIG    1       -0.914   1.893  -1.305  0.00  0.00    +0.260 C 
ATOM     15  C   LIG    1       -1.457   2.965  -0.357  0.00  0.00    +0.020 C 
ENDBRANCH  12  14
BRANCH  12  16
ATOM     16  C   LIG    1        1.324   1.408  -0.212  0.00  0.00    +0.270 C 
ATOM     17  C   LIG    1        2.286   1.019  -1.337  0.00  0.00    +0.020 C 
ENDBRANCH  12  16
ENDBRANCH   8  11
ENDBRANCH   2   5
BRANCH   1  18
ATOM     18  C   LIG    1       -7.586  -3.458  -1.453  0.00  0.00    +0.240 C 
BRANCH  18  19
ATOM     19  O   LIG    1       -7.787  -4.815  -1.052  0.00  0.00    -0.290 OA
BRANCH  19  24
ATOM     20  C   LIG    1      -10.486  -7.245  -1.267  0.00  0.00    -0.040 A 
ATOM     21  C   LIG    1      -11.452  -6.499  -1.916  0.00  0.00    -0.030 A 
ATOM     22  C   LIG    1      -11.192  -5.190  -2.277  0.00  0.00    +0.050 A 
ATOM     23  C   LIG    1       -9.968  -4.622  -1.984  0.00  0.00    -0.090 A 
ATOM     24  C   LIG    1       -8.995  -5.370  -1.337  0.00  0.00    +0.130 A 
ATOM     25  C   LIG    1       -9.258  -6.683  -0.976  0.00  0.00    -0.010 A 
BRANCH  20  27
ATOM     26  C   LIG    1      -11.378  -8.702   0.530  0.00  0.00    +0.030 C 
ATOM     27  C   LIG    1      -10.774  -8.671  -0.875  0.00  0.00    +0.070 C 
ENDBRANCH  20  27
ENDBRANCH  19  24
ENDBRANCH  18  19
ENDBRANCH   1  18
TORSDOF 8
