REMARK  Name = ZINCpk000005bL8n.0
REMARK                            x       y       z     vdW  Elec       q    Type
REMARK                         _______ _______ _______ _____ _____    ______ ____
ROOT
ATOM      1  C   LIG    1       -1.597   1.401  -0.175  0.00  0.00    +0.290 C 
ATOM      2  N   LIG    1       -1.054   0.046  -0.052  0.00  0.00    -0.610 N 
ATOM      3  C   LIG    1       -0.901  -0.510   1.166  0.00  0.00    +0.590 C 
ATOM      4  O   LIG    1       -0.464  -1.641   1.268  0.00  0.00    -0.510 OA
ENDROOT
BRANCH   2   5
ATOM      5  C   LIG    1       -0.677  -0.704  -1.252  0.00  0.00    +0.250 C 
ATOM      6  C   LIG    1       -1.876  -0.798  -2.225  0.00  0.00    +0.060 C 
ATOM      7  C   LIG    1       -1.607   0.360  -3.219  0.00  0.00    +0.190 C 
ATOM      8  N   LIG    1       -0.130   0.335  -3.378  0.00  0.00    -0.470 N 
ATOM      9  C   LIG    1        0.415   0.051  -2.033  0.00  0.00    +0.180 C 
BRANCH   8  10
ATOM     10  C   LIG    1        0.341   1.554  -3.859  0.00  0.00    +0.060 A 
ATOM     11  C   LIG    1        0.241   2.706  -3.080  0.00  0.00    +0.030 A 
ATOM     12  C   LIG    1        0.726   3.893  -3.596  0.00  0.00    +0.040 A 
ATOM     13  C   LIG    1        1.286   3.901  -4.875  0.00  0.00    +0.190 A 
ATOM     14  N   LIG    1        1.359   2.783  -5.590  0.00  0.00    -0.440 NA
ATOM     15  C   LIG    1        0.912   1.637  -5.128  0.00  0.00    +0.320 A 
BRANCH  13  16
ATOM     16  C   LIG    1        1.787   5.126  -5.421  0.00  0.00    +0.260 C 
ATOM     17  N   LIG    1        2.184   6.098  -5.855  0.00  0.00    -0.380 NA
ENDBRANCH  13  16
ENDBRANCH   8  10
ENDBRANCH   2   5
BRANCH   3  18
ATOM     18  C   LIG    1       -1.264   0.249   2.373  0.00  0.00    -0.230 A 
ATOM     19  C   LIG    1       -1.317  -0.263   3.639  0.00  0.00    +0.100 A 
ATOM     20  C   LIG    1       -1.677   0.636   4.605  0.00  0.00    +0.090 A 
ATOM     21  C   LIG    1       -1.932   1.897   4.147  0.00  0.00    -0.260 A 
ATOM     22  S   LIG    1       -1.700   1.952   2.405  0.00  0.00    +0.200 S 
BRANCH  21  23
ATOM     23  C   LIG    1       -2.340   3.037   4.984  0.00  0.00    +0.590 C 
ATOM     24  O   LIG    1       -2.472   2.893   6.184  0.00  0.00    -0.520 OA
ATOM     25  N   LIG    1       -2.566   4.240   4.420  0.00  0.00    -0.850 N 
ATOM     26  H   LIG    1       -2.835   4.992   4.972  0.00  0.00    +0.410 HD
ATOM     27  H   LIG    1       -2.461   4.355   3.463  0.00  0.00    +0.400 HD
ENDBRANCH  21  23
ENDBRANCH   3  18
TORSDOF 5
