REMARK  Name = ZINCrH000004uOEG.0
REMARK                            x       y       z     vdW  Elec       q    Type
REMARK                         _______ _______ _______ _____ _____    ______ ____
ROOT
ATOM      1  O   LIG    1        3.710  -1.898  -0.043  0.00  0.00    -0.540 OA
ATOM      2  C   LIG    1        3.693  -0.682  -0.036  0.00  0.00    +0.560 C 
ATOM      3  N   LIG    1        4.851   0.008  -0.044  0.00  0.00    -0.700 N 
ATOM      4  H   LIG    1        4.837   0.978  -0.039  0.00  0.00    +0.400 HD
ENDROOT
BRANCH   2   5
ATOM      5  C   LIG    1        2.403   0.038  -0.021  0.00  0.00    -0.140 A 
ATOM      6  C   LIG    1        1.203  -0.677  -0.013  0.00  0.00    +0.090 A 
ATOM      7  C   LIG    1        0.002  -0.004   0.002  0.00  0.00    +0.010 A 
ATOM      8  C   LIG    1       -0.017   1.391   0.010  0.00  0.00    -0.020 A 
ATOM      9  C   LIG    1        1.181   2.106   0.002  0.00  0.00    +0.010 A 
ATOM     10  C   LIG    1        2.383   1.435  -0.013  0.00  0.00    +0.050 A 
BRANCH   8  11
ATOM     11  C   LIG    1       -1.311   2.114   0.020  0.00  0.00    -0.060 A 
ATOM     12  C   LIG    1       -2.510   1.403   0.016  0.00  0.00    +0.020 A 
ATOM     13  C   LIG    1       -3.712   2.082   0.032  0.00  0.00    +0.010 A 
ATOM     14  C   LIG    1       -3.728   3.465   0.039  0.00  0.00    +0.010 A 
ATOM     15  C   LIG    1       -2.541   4.176   0.037  0.00  0.00    +0.010 A 
ATOM     16  C   LIG    1       -1.334   3.508   0.027  0.00  0.00    +0.020 A 
ENDBRANCH   8  11
ENDBRANCH   2   5
BRANCH   3  17
ATOM     17  C   LIG    1        6.129  -0.707  -0.059  0.00  0.00    +0.240 C 
ATOM     18  C   LIG    1        6.527  -1.072   1.372  0.00  0.00    +0.010 C 
ATOM     19  C   LIG    1        6.666   0.204   2.205  0.00  0.00    +0.010 C 
ATOM     20  C   LIG    1        7.743   1.099   1.589  0.00  0.00    +0.010 C 
ATOM     21  C   LIG    1        7.346   1.465   0.158  0.00  0.00    +0.030 C 
ATOM     22  C   LIG    1        7.207   0.189  -0.675  0.00  0.00    +0.140 C 
BRANCH  22  23
ATOM     23  N   LIG    1        6.825   0.540  -2.049  0.00  0.00    -0.530 NA
ATOM     24  C   LIG    1        6.598  -0.667  -2.858  0.00  0.00    +0.140 C 
ATOM     25  C   LIG    1        6.146  -0.256  -4.261  0.00  0.00    +0.230 C 
ATOM     26  O   LIG    1        7.129   0.606  -4.840  0.00  0.00    -0.380 OA
ATOM     27  C   LIG    1        7.374   1.792  -4.079  0.00  0.00    +0.220 C 
ATOM     28  C   LIG    1        7.839   1.402  -2.674  0.00  0.00    +0.140 C 
ENDBRANCH  22  23
ENDBRANCH   3  17
TORSDOF 4
