REMARK  Name = ZINCqH0000008187.0
REMARK                            x       y       z     vdW  Elec       q    Type
REMARK                         _______ _______ _______ _____ _____    ______ ____
ROOT
ATOM      1  C   LIG    1        1.280   1.980   0.001  0.00  0.00    +0.270 C 
ENDROOT
BRANCH   1   2
ATOM      2  C   LIG    1       -0.014   1.208   0.009  0.00  0.00    +0.510 C 
ATOM      3  N   LIG    1       -1.191   1.866   0.018  0.00  0.00    -0.630 N 
ATOM      4  H   LIG    1       -1.204   2.836   0.023  0.00  0.00    +0.430 HD
ATOM      5  O   LIG    1        0.002  -0.004   0.002  0.00  0.00    -0.460 OA
BRANCH   3   6
ATOM      6  C   LIG    1       -2.381   1.157   0.020  0.00  0.00    +0.330 A 
ATOM      7  N   LIG    1       -2.471  -0.127   0.007  0.00  0.00    -0.460 NA
ATOM      8  C   LIG    1       -3.704  -0.673   0.015  0.00  0.00    +0.110 A 
ATOM      9  C   LIG    1       -4.066  -2.036   0.009  0.00  0.00    +0.070 A 
ATOM     10  C   LIG    1       -5.387  -2.405   0.013  0.00  0.00    +0.040 A 
ATOM     11  C   LIG    1       -6.388  -1.444   0.023  0.00  0.00    +0.040 A 
ATOM     12  C   LIG    1       -6.058  -0.107   0.029  0.00  0.00    +0.060 A 
ATOM     13  C   LIG    1       -4.722   0.285   0.025  0.00  0.00    -0.180 A 
ATOM     14  S   LIG    1       -3.982   1.884   0.031  0.00  0.00    +0.070 S 
ENDBRANCH   3   6
ENDBRANCH   1   2
BRANCH   1  15
ATOM     15  N   LIG    1        2.407   1.043  -0.015  0.00  0.00    -0.710 N 
ATOM     16  H   LIG    1        2.289   0.149  -0.374  0.00  0.00    +0.410 HD
ATOM     17  C   LIG    1        3.606   1.423   0.469  0.00  0.00    +0.570 C 
ATOM     18  O   LIG    1        3.753   2.542   0.918  0.00  0.00    -0.530 OA
BRANCH  17  19
ATOM     19  C   LIG    1        4.742   0.477   0.453  0.00  0.00    -0.140 A 
ATOM     20  C   LIG    1        4.575  -0.811  -0.058  0.00  0.00    +0.050 A 
ATOM     21  C   LIG    1        5.641  -1.687  -0.073  0.00  0.00    +0.000 A 
ATOM     22  C   LIG    1        6.871  -1.294   0.424  0.00  0.00    +0.040 A 
ATOM     23  C   LIG    1        7.042  -0.020   0.936  0.00  0.00    +0.000 A 
ATOM     24  C   LIG    1        5.986   0.868   0.953  0.00  0.00    +0.080 A 
ENDBRANCH  17  19
ENDBRANCH   1  15
BRANCH   1  25
ATOM     25  C   LIG    1        1.337   2.867  -1.245  0.00  0.00    +0.070 C 
BRANCH  25  26
ATOM     26  C   LIG    1        2.592   3.741  -1.191  0.00  0.00    +0.100 C 
BRANCH  26  28
ATOM     27  C   LIG    1        4.189   5.739  -2.424  0.00  0.00    +0.140 C 
ATOM     28  S   LIG    1        2.660   4.793  -2.667  0.00  0.00    -0.270 S 
ENDBRANCH  26  28
ENDBRANCH  25  26
ENDBRANCH   1  25
TORSDOF 7
