REMARK  Name = ZINCpk00000KfL9e.0
REMARK                            x       y       z     vdW  Elec       q    Type
REMARK                         _______ _______ _______ _____ _____    ______ ____
ROOT
ATOM      1  C   LIG    1       -1.428  -0.113   2.971  0.00  0.00    +0.010 A 
ATOM      2  C   LIG    1       -0.823   0.841   2.235  0.00  0.00    -0.020 A 
ATOM      3  C   LIG    1        0.001   1.585   3.102  0.00  0.00    -0.070 A 
ATOM      4  C   LIG    1       -0.137   1.061   4.337  0.00  0.00    +0.140 A 
ATOM      5  N   LIG    1       -1.008   0.015   4.262  0.00  0.00    -0.440 N 
ENDROOT
BRANCH   1   6
ATOM      6  C   LIG    1       -2.401  -1.143   2.457  0.00  0.00    +0.260 C 
BRANCH   6  12
ATOM      7  C   LIG    1       -5.093  -2.265  -1.508  0.00  0.00    +0.070 C 
ATOM      8  C   LIG    1       -4.338  -1.155  -0.774  0.00  0.00    +0.180 C 
ATOM      9  O   LIG    1       -5.246  -0.104  -0.434  0.00  0.00    -0.370 OA
ATOM     10  C   LIG    1       -4.638   0.972   0.286  0.00  0.00    +0.230 C 
ATOM     11  C   LIG    1       -4.021   0.429   1.577  0.00  0.00    +0.160 C 
ATOM     12  N   LIG    1       -3.059  -0.633   1.247  0.00  0.00    -0.500 NA
ATOM     13  C   LIG    1       -3.718  -1.720   0.507  0.00  0.00    +0.110 C 
BRANCH  13  14
ATOM     14  C   LIG    1       -2.702  -2.775   0.153  0.00  0.00    +0.520 C 
ATOM     15  O   LIG    1       -1.541  -2.466  -0.018  0.00  0.00    -0.510 OA
ATOM     16  N   LIG    1       -3.083  -4.061   0.025  0.00  0.00    -0.860 N 
ATOM     17  H   LIG    1       -2.418  -4.751  -0.127  0.00  0.00    +0.410 HD
ATOM     18  H   LIG    1       -4.022  -4.297   0.086  0.00  0.00    +0.400 HD
ENDBRANCH  13  14
ENDBRANCH   6  12
ENDBRANCH   1   6
BRANCH   5  19
ATOM     19  C   LIG    1       -1.428  -0.829   5.384  0.00  0.00    +0.340 C 
BRANCH  19  20
ATOM     20  C   LIG    1       -0.589  -2.080   5.413  0.00  0.00    -0.070 A 
ATOM     21  C   LIG    1       -1.046  -3.234   4.811  0.00  0.00    +0.030 A 
ATOM     22  C   LIG    1       -0.277  -4.384   4.837  0.00  0.00    +0.040 A 
ATOM     23  C   LIG    1        0.955  -4.385   5.466  0.00  0.00    +0.030 A 
ATOM     24  C   LIG    1        1.425  -3.239   6.072  0.00  0.00    +0.070 A 
ATOM     25  C   LIG    1        0.657  -2.073   6.045  0.00  0.00    -0.010 A 
BRANCH  25  26
ATOM     26  C   LIG    1        1.141  -0.877   6.666  0.00  0.00    +0.250 C 
ATOM     27  N   LIG    1        1.526   0.071   7.160  0.00  0.00    -0.400 NA
ENDBRANCH  25  26
ENDBRANCH  19  20
ENDBRANCH   5  19
TORSDOF 6
