REMARK  Name = ZINCrH00000No4vr.1
REMARK                            x       y       z     vdW  Elec       q    Type
REMARK                         _______ _______ _______ _____ _____    ______ ____
ROOT
ATOM      1  C   LIG    1       -1.451   4.242  -2.023  0.00  0.00    +0.050 A 
ATOM      2  C   LIG    1       -0.887   5.139  -2.870  0.00  0.00    +0.130 A 
ATOM      3  N   LIG    1       -1.848   5.496  -3.776  0.00  0.00    -0.370 N 
ATOM      4  C   LIG    1       -1.848   6.351  -4.841  0.00  0.00    +0.190 A 
ATOM      5  C   LIG    1       -2.961   6.533  -5.592  0.00  0.00    -0.090 A 
ATOM      6  C   LIG    1       -2.881   7.500  -6.746  0.00  0.00    +0.090 C 
ATOM      7  C   LIG    1       -4.032   7.263  -7.722  0.00  0.00    +0.020 C 
ATOM      8  C   LIG    1       -5.346   7.257  -6.934  0.00  0.00    +0.020 C 
ATOM      9  C   LIG    1       -5.399   5.985  -6.089  0.00  0.00    +0.080 C 
ATOM     10  C   LIG    1       -4.136   5.835  -5.283  0.00  0.00    -0.060 A 
ATOM     11  C   LIG    1       -4.153   4.980  -4.220  0.00  0.00    +0.070 A 
ATOM     12  C   LIG    1       -2.990   4.802  -3.446  0.00  0.00    +0.220 A 
ATOM     13  N   LIG    1       -2.725   4.054  -2.387  0.00  0.00    -0.470 NA
ENDROOT
BRANCH   1  20
ATOM     14  C   LIG    1       -0.461   5.298   2.717  0.00  0.00    +0.090 C 
ATOM     15  C   LIG    1       -0.442   3.793   2.647  0.00  0.00    +0.510 C 
ATOM     16  N   LIG    1       -0.885   3.164   1.540  0.00  0.00    -0.610 N 
ATOM     17  C   LIG    1       -0.773   1.705   1.414  0.00  0.00    +0.270 C 
ATOM     18  C   LIG    1       -0.052   1.378   0.102  0.00  0.00    +0.020 C 
ATOM     19  C   LIG    1       -0.782   2.056  -1.060  0.00  0.00    +0.030 C 
ATOM     20  C   LIG    1       -0.761   3.573  -0.862  0.00  0.00    +0.080 C 
ATOM     21  C   LIG    1       -1.490   3.925   0.439  0.00  0.00    +0.280 C 
ATOM     22  O   LIG    1       -0.028   3.148   3.586  0.00  0.00    -0.550 OA
ENDBRANCH   1  20
BRANCH   2  23
ATOM     23  N   LIG    1        0.431   5.609  -2.827  0.00  0.00    -0.580 N 
ATOM     24  H   LIG    1        0.669   5.936  -1.903  0.00  0.00    +0.360 HD
BRANCH  23  25
ATOM     25  C   LIG    1        0.649   6.660  -3.830  0.00  0.00    +0.210 C 
BRANCH  25  26
ATOM     26  C   LIG    1        2.054   7.241  -3.663  0.00  0.00    -0.040 C 
ATOM     27  C   LIG    1        2.167   8.714  -3.268  0.00  0.00    +0.010 C 
ATOM     28  C   LIG    1        2.518   8.274  -4.692  0.00  0.00    +0.030 C 
ENDBRANCH  25  26
ENDBRANCH  23  25
ENDBRANCH   2  23
TORSDOF 4
