REMARK  Name = ZINCqH0000008sE7.0
REMARK                            x       y       z     vdW  Elec       q    Type
REMARK                         _______ _______ _______ _____ _____    ______ ____
ROOT
ATOM      1  C   LIG    1       -3.636   5.875  -0.543  0.00  0.00    -0.110 A 
ATOM      2  C   LIG    1       -4.812   5.165  -0.391  0.00  0.00    +0.030 A 
ATOM      3  C   LIG    1       -5.990   5.655  -0.919  0.00  0.00    +0.030 A 
ATOM      4  C   LIG    1       -5.991   6.858  -1.613  0.00  0.00    +0.150 A 
ATOM      5  C   LIG    1       -4.807   7.567  -1.768  0.00  0.00    -0.010 A 
ATOM      6  C   LIG    1       -3.633   7.074  -1.233  0.00  0.00    +0.050 A 
ENDROOT
BRANCH   4   7
ATOM      7  N   LIG    1       -7.181   7.355  -2.153  0.00  0.00    -0.670 N 
ATOM      8  H   LIG    1       -7.165   7.859  -2.981  0.00  0.00    +0.410 HD
ATOM      9  C   LIG    1       -8.351   7.133  -1.522  0.00  0.00    +0.560 C 
ATOM     10  O   LIG    1       -8.363   6.585  -0.437  0.00  0.00    -0.500 OA
BRANCH   9  11
ATOM     11  C   LIG    1       -9.624   7.556  -2.152  0.00  0.00    -0.090 A 
ATOM     12  C   LIG    1       -9.632   8.193  -3.397  0.00  0.00    +0.000 A 
ATOM     13  C   LIG    1      -10.842   8.567  -3.949  0.00  0.00    +0.270 A 
ATOM     14  N   LIG    1      -11.975   8.340  -3.314  0.00  0.00    -0.470 NA
ATOM     15  C   LIG    1      -12.011   7.747  -2.138  0.00  0.00    +0.270 A 
ATOM     16  C   LIG    1      -10.849   7.336  -1.515  0.00  0.00    +0.040 A 
ENDBRANCH   9  11
ENDBRANCH   4   7
BRANCH   1  18
ATOM     17  C   LIG    1       -2.301   5.658   1.535  0.00  0.00    +0.040 C 
ATOM     18  C   LIG    1       -2.353   5.340   0.040  0.00  0.00    +0.310 C 
BRANCH  18  19
ATOM     19  N   LIG    1       -2.297   3.889  -0.154  0.00  0.00    -0.710 N 
ATOM     20  H   LIG    1       -3.117   3.381  -0.253  0.00  0.00    +0.410 HD
BRANCH  19  21
ATOM     21  C   LIG    1       -1.074   3.243  -0.195  0.00  0.00    +0.450 A 
ATOM     22  N   LIG    1        0.043   3.940  -0.059  0.00  0.00    -0.540 NA
ATOM     23  C   LIG    1        1.230   3.364  -0.092  0.00  0.00    +0.350 A 
ATOM     24  C   LIG    1        1.359   1.999  -0.271  0.00  0.00    -0.100 A 
ATOM     25  C   LIG    1        0.224   1.220  -0.419  0.00  0.00    +0.160 A 
ATOM     26  C   LIG    1       -1.024   1.851  -0.386  0.00  0.00    -0.160 A 
BRANCH  26  27
ATOM     27  C   LIG    1       -2.229   1.093  -0.540  0.00  0.00    +0.260 C 
ATOM     28  N   LIG    1       -3.185   0.491  -0.662  0.00  0.00    -0.420 NA
ENDBRANCH  26  27
ENDBRANCH  19  21
ENDBRANCH  18  19
ENDBRANCH   1  18
TORSDOF 6
