REMARK  Name = ZINCpk000000mYbL.0
REMARK                            x       y       z     vdW  Elec       q    Type
REMARK                         _______ _______ _______ _____ _____    ______ ____
ROOT
ATOM      1  C   LIG    1        5.295   3.644  -0.003  0.00  0.00    +0.150 A 
ATOM      2  C   LIG    1        5.489   4.878  -0.609  0.00  0.00    +0.000 A 
ATOM      3  C   LIG    1        4.460   5.472  -1.327  0.00  0.00    +0.150 A 
ATOM      4  C   LIG    1        3.234   4.835  -1.441  0.00  0.00    +0.080 A 
ATOM      5  C   LIG    1        3.035   3.595  -0.833  0.00  0.00    -0.090 A 
ATOM      6  C   LIG    1        4.070   3.003  -0.108  0.00  0.00    +0.080 A 
ENDROOT
BRANCH   1   9
ATOM      7  C   LIG    1        7.669   1.076   1.391  0.00  0.00    +0.110 C 
ATOM      8  C   LIG    1        6.489   1.709   0.700  0.00  0.00    +0.510 C 
ATOM      9  N   LIG    1        6.336   3.048   0.718  0.00  0.00    -0.670 N 
ATOM     10  H   LIG    1        6.948   3.599   1.232  0.00  0.00    +0.410 HD
ATOM     11  O   LIG    1        5.676   1.014   0.127  0.00  0.00    -0.510 OA
ENDBRANCH   1   9
BRANCH   3  12
ATOM     12  N   LIG    1        4.661   6.716  -1.936  0.00  0.00    -0.670 N 
ATOM     13  H   LIG    1        5.534   6.948  -2.291  0.00  0.00    +0.410 HD
ATOM     14  C   LIG    1        3.641   7.593  -2.030  0.00  0.00    +0.510 C 
ATOM     15  O   LIG    1        2.576   7.342  -1.506  0.00  0.00    -0.520 OA
ATOM     16  C   LIG    1        3.824   8.883  -2.786  0.00  0.00    +0.110 C 
ENDBRANCH   3  12
BRANCH   5  17
ATOM     17  C   LIG    1        1.730   2.913  -0.951  0.00  0.00    +0.520 C 
ATOM     18  O   LIG    1        0.828   3.432  -1.579  0.00  0.00    -0.500 OA
BRANCH  17  19
ATOM     19  O   LIG    1        1.539   1.716  -0.364  0.00  0.00    -0.320 OA
BRANCH  19  20
ATOM     20  C   LIG    1        0.232   1.104  -0.522  0.00  0.00    +0.180 C 
ATOM     21  C   LIG    1       -0.681   1.550   0.622  0.00  0.00    +0.070 C 
BRANCH  20  22
ATOM     22  C   LIG    1        0.373  -0.396  -0.496  0.00  0.00    +0.520 C 
ATOM     23  N   LIG    1       -0.701  -1.177  -0.727  0.00  0.00    -0.700 N 
ATOM     24  H   LIG    1       -1.564  -0.774  -0.909  0.00  0.00    +0.400 HD
ATOM     25  O   LIG    1        1.452  -0.900  -0.268  0.00  0.00    -0.510 OA
BRANCH  23  26
ATOM     26  C   LIG    1       -0.564  -2.636  -0.702  0.00  0.00    +0.220 C 
ATOM     27  C   LIG    1       -1.257  -3.429  -1.812  0.00  0.00    +0.010 C 
ATOM     28  C   LIG    1       -1.815  -3.458  -0.387  0.00  0.00    +0.020 C 
ENDBRANCH  23  26
ENDBRANCH  20  22
ENDBRANCH  19  20
ENDBRANCH  17  19
ENDBRANCH   5  17
TORSDOF 7
