REMARK  Name = ZINCrD000000BsKA.0
REMARK                            x       y       z     vdW  Elec       q    Type
REMARK                         _______ _______ _______ _____ _____    ______ ____
ROOT
ATOM      1  C   LIG    1       -5.086   4.824   8.344  0.00  0.00    +0.150 A 
ATOM      2  C   LIG    1       -3.726   5.003   8.560  0.00  0.00    +0.000 A 
ATOM      3  C   LIG    1       -2.830   4.790   7.531  0.00  0.00    +0.040 A 
ATOM      4  C   LIG    1       -3.289   4.396   6.281  0.00  0.00    +0.150 A 
ATOM      5  C   LIG    1       -4.649   4.223   6.064  0.00  0.00    +0.000 A 
ATOM      6  C   LIG    1       -5.545   4.431   7.094  0.00  0.00    +0.040 A 
ENDROOT
BRANCH   1   9
ATOM      7  O   LIG    1       -7.350   3.452   8.631  0.00  0.00    -0.570 OA
ATOM      8  C   LIG    1       -7.099   4.275   9.491  0.00  0.00    +0.700 C 
ATOM      9  N   LIG    1       -5.995   5.041   9.388  0.00  0.00    -0.680 N 
ATOM     10  H   LIG    1       -5.830   5.743  10.037  0.00  0.00    +0.410 HD
ATOM     11  N   LIG    1       -7.926   4.421  10.545  0.00  0.00    -0.740 N 
ATOM     12  H   LIG    1       -7.726   5.078  11.230  0.00  0.00    +0.400 HD
BRANCH  11  13
ATOM     13  C   LIG    1       -9.126   3.588  10.656  0.00  0.00    +0.340 C 
BRANCH  13  14
ATOM     14  C   LIG    1       -9.871   3.946  11.916  0.00  0.00    -0.110 A 
ATOM     15  C   LIG    1       -9.591   3.285  13.097  0.00  0.00    +0.020 A 
ATOM     16  C   LIG    1      -10.271   3.618  14.254  0.00  0.00    +0.010 A 
ATOM     17  C   LIG    1      -11.239   4.604  14.227  0.00  0.00    +0.010 A 
ATOM     18  C   LIG    1      -11.524   5.261  13.044  0.00  0.00    +0.000 A 
ATOM     19  C   LIG    1      -10.840   4.933  11.889  0.00  0.00    +0.020 A 
ENDBRANCH  13  14
ENDBRANCH  11  13
ENDBRANCH   1   9
BRANCH   4  20
ATOM     20  N   LIG    1       -2.380   4.180   5.237  0.00  0.00    -0.690 N 
ATOM     21  H   LIG    1       -2.625   4.405   4.326  0.00  0.00    +0.410 HD
ATOM     22  C   LIG    1       -1.164   3.660   5.499  0.00  0.00    +0.700 C 
ATOM     23  N   LIG    1       -0.325   3.365   4.487  0.00  0.00    -0.740 N 
ATOM     24  H   LIG    1       -0.596   3.527   3.570  0.00  0.00    +0.400 HD
ATOM     25  O   LIG    1       -0.825   3.457   6.649  0.00  0.00    -0.570 OA
BRANCH  23  26
ATOM     26  C   LIG    1        0.996   2.800   4.771  0.00  0.00    +0.310 C 
BRANCH  26  27
ATOM     27  C   LIG    1        1.742   2.560   3.457  0.00  0.00    +0.140 C 
ATOM     28  C   LIG    1        3.093   1.846   3.719  0.00  0.00    +0.020 C 
ATOM     29  C   LIG    1        3.925   2.262   2.481  0.00  0.00    +0.000 C 
ATOM     30  C   LIG    1        3.220   3.530   1.961  0.00  0.00    +0.200 C 
ATOM     31  O   LIG    1        2.132   3.816   2.856  0.00  0.00    -0.370 OA
ENDBRANCH  26  27
ENDBRANCH  23  26
ENDBRANCH   4  20
TORSDOF 6
