REMARK  Name = ZINCrH000004tKbi.0
REMARK                            x       y       z     vdW  Elec       q    Type
REMARK                         _______ _______ _______ _____ _____    ______ ____
ROOT
ATOM      1  O   LIG    1       -0.207   7.552   1.097  0.00  0.00    -0.510 OA
ATOM      2  C   LIG    1        0.415   7.695   2.128  0.00  0.00    +0.520 C 
ATOM      3  N   LIG    1        0.688   6.628   2.905  0.00  0.00    -0.670 N 
ATOM      4  H   LIG    1        1.114   6.751   3.767  0.00  0.00    +0.420 HD
ENDROOT
BRANCH   3   5
ATOM      5  C   LIG    1        0.355   5.339   2.466  0.00  0.00    +0.170 A 
ATOM      6  C   LIG    1        0.239   5.077   1.107  0.00  0.00    +0.050 A 
ATOM      7  C   LIG    1       -0.090   3.802   0.680  0.00  0.00    +0.100 A 
ATOM      8  C   LIG    1       -0.304   2.791   1.606  0.00  0.00    +0.060 A 
ATOM      9  O   LIG    1       -0.631   1.538   1.171  0.00  0.00    -0.310 OA
ATOM     10  C   LIG    1        0.399   0.829   0.480  0.00  0.00    +0.230 C 
ATOM     11  C   LIG    1        0.421   1.211  -0.992  0.00  0.00    -0.010 C 
ATOM     12  C   LIG    1        0.791   2.670  -1.205  0.00  0.00    +0.230 C 
ATOM     13  C   LIG    1       -0.188   3.051   2.961  0.00  0.00    +0.070 A 
ATOM     14  O   LIG    1       -0.207   3.532  -0.653  0.00  0.00    -0.310 OA
ATOM     15  C   LIG    1        0.141   4.325   3.391  0.00  0.00    -0.060 A 
ATOM     16 CL   LIG    1        0.286   4.655   5.089  0.00  0.00    -0.050 Cl
ENDBRANCH   3   5
BRANCH   2  17
ATOM     17  C   LIG    1        0.884   9.067   2.542  0.00  0.00    +0.080 C 
BRANCH  17  18
ATOM     18  C   LIG    1        0.447  10.092   1.494  0.00  0.00    +0.230 C 
BRANCH  18  19
ATOM     19  C   LIG    1        0.915  11.464   1.907  0.00  0.00    +0.190 A 
ATOM     20  N   LIG    1        2.061  12.018   1.601  0.00  0.00    -0.460 NA
ATOM     21  C   LIG    1        2.040  13.241   2.183  0.00  0.00    +0.250 A 
ATOM     22  N   LIG    1        0.894  13.350   2.809  0.00  0.00    -0.360 NA
ATOM     23  O   LIG    1        0.240  12.339   2.659  0.00  0.00    +0.090 OA
BRANCH  21  24
ATOM     24  C   LIG    1        3.109  14.258   2.127  0.00  0.00    +0.040 A 
ATOM     25  C   LIG    1        3.079  15.481   2.720  0.00  0.00    +0.020 A 
ATOM     26  C   LIG    1        4.298  16.114   2.407  0.00  0.00    -0.060 A 
ATOM     27  C   LIG    1        5.005  15.255   1.646  0.00  0.00    +0.210 A 
ATOM     28  O   LIG    1        4.287  14.133   1.483  0.00  0.00    -0.150 OA
ENDBRANCH  21  24
ENDBRANCH  18  19
ENDBRANCH  17  18
ENDBRANCH   2  17
TORSDOF 5
