REMARK  Name = ZINCrH000004pQR2.0
REMARK                            x       y       z     vdW  Elec       q    Type
REMARK                         _______ _______ _______ _____ _____    ______ ____
ROOT
ATOM      1  C   LIG    1       -2.844  -0.029  -1.940  0.00  0.00    -0.690 A 
ATOM      2  C   LIG    1       -3.026  -1.246  -1.308  0.00  0.00    +0.140 A 
ATOM      3  C   LIG    1       -4.296  -1.663  -0.962  0.00  0.00    +0.000 A 
ATOM      4  C   LIG    1       -5.393  -0.864  -1.261  0.00  0.00    +0.200 A 
ATOM      5  C   LIG    1       -5.207   0.354  -1.901  0.00  0.00    -0.030 A 
ATOM      6  C   LIG    1       -3.933   0.768  -2.238  0.00  0.00    +0.140 A 
ENDROOT
BRANCH   4   7
ATOM      7  N   LIG    1       -6.681  -1.287  -0.918  0.00  0.00    -0.670 N 
ATOM      8  H   LIG    1       -7.434  -1.053  -1.483  0.00  0.00    +0.420 HD
ATOM      9  C   LIG    1       -6.876  -2.019   0.197  0.00  0.00    +0.560 C 
ATOM     10  O   LIG    1       -5.950  -2.230   0.955  0.00  0.00    -0.500 OA
BRANCH   9  11
ATOM     11  C   LIG    1       -8.217  -2.564   0.497  0.00  0.00    -0.110 A 
ATOM     12  C   LIG    1       -9.284  -2.318  -0.368  0.00  0.00    +0.030 A 
ATOM     13  C   LIG    1      -10.532  -2.833  -0.085  0.00  0.00    +0.050 A 
ATOM     14  C   LIG    1      -10.731  -3.584   1.059  0.00  0.00    +0.030 A 
ATOM     15  C   LIG    1       -9.678  -3.828   1.927  0.00  0.00    +0.100 A 
ATOM     16  F   LIG    1       -9.879  -4.563   3.043  0.00  0.00    -0.130 F 
ATOM     17  C   LIG    1       -8.422  -3.322   1.651  0.00  0.00    +0.060 A 
ENDBRANCH   9  11
ENDBRANCH   4   7
BRANCH   1  18
ATOM     18  S   LIG    1       -1.220   0.503  -2.372  0.00  0.00    +2.690 S 
ATOM     19  O   LIG    1       -0.425  -0.671  -2.465  0.00  0.00    -0.950 OA
ATOM     20  O   LIG    1       -1.372   1.426  -3.441  0.00  0.00    -0.950 OA
BRANCH  18  26
ATOM     21  C   LIG    1        0.316   0.467   2.467  0.00  0.00    +0.030 C 
ATOM     22  C   LIG    1       -0.529   1.045   1.331  0.00  0.00    -0.030 C 
ATOM     23  C   LIG    1       -0.610   2.567   1.473  0.00  0.00    +0.030 C 
ATOM     24  C   LIG    1       -1.479   3.143   0.353  0.00  0.00    -0.040 C 
ATOM     25  C   LIG    1       -0.841   2.818  -1.002  0.00  0.00    +0.290 C 
ATOM     26  N   LIG    1       -0.630   1.367  -1.088  0.00  0.00    -1.000 NA
ATOM     27  C   LIG    1       -1.583   4.661   0.517  0.00  0.00    +0.030 C 
ATOM     28  C   LIG    1        0.116   0.696  -0.015  0.00  0.00    +0.290 C 
ENDBRANCH  18  26
ENDBRANCH   1  18
TORSDOF 4
