REMARK  Name = ZINCpe00000gMxCe.0
REMARK                            x       y       z     vdW  Elec       q    Type
REMARK                         _______ _______ _______ _____ _____    ______ ____
ROOT
ATOM      1  O   LIG    1       -4.698  -1.487  -2.988  0.00  0.00    -0.330 OA
ENDROOT
BRANCH   1   2
ATOM      2  C   LIG    1       -3.541  -1.048  -2.469  0.00  0.00    +0.450 C 
ATOM      3  O   LIG    1       -3.179   0.087  -2.672  0.00  0.00    -0.490 OA
BRANCH   2   4
ATOM      4  C   LIG    1       -2.692  -1.970  -1.632  0.00  0.00    +0.420 C 
BRANCH   4   5
ATOM      5  N   LIG    1       -1.491  -1.259  -1.187  0.00  0.00    -0.570 N 
ATOM      6  C   LIG    1       -0.340  -1.228  -1.868  0.00  0.00    +0.710 C 
ATOM      7  N   LIG    1        0.612  -0.507  -1.241  0.00  0.00    -0.720 N 
ATOM      8  H   LIG    1        1.519  -0.349  -1.547  0.00  0.00    +0.440 HD
ATOM      9  C   LIG    1        0.002  -0.004   0.002  0.00  0.00    +0.120 C 
ATOM     10  C   LIG    1        0.752  -0.537   1.224  0.00  0.00    +0.090 C 
ATOM     11  C   LIG    1       -0.019   1.526   0.010  0.00  0.00    +0.090 C 
ATOM     12  O   LIG    1       -0.169  -1.789  -2.933  0.00  0.00    -0.540 OA
ATOM     13  C   LIG    1       -1.409  -0.556  -0.040  0.00  0.00    +0.540 C 
ATOM     14  O   LIG    1       -2.282  -0.399   0.786  0.00  0.00    -0.450 OA
ENDBRANCH   4   5
ENDBRANCH   2   4
ENDBRANCH   1   2
BRANCH   1  15
ATOM     15  C   LIG    1       -5.463  -0.544  -3.784  0.00  0.00    +0.240 C 
BRANCH  15  16
ATOM     16  C   LIG    1       -6.721  -1.210  -4.279  0.00  0.00    +0.400 C 
ATOM     17  O   LIG    1       -6.950  -2.365  -3.990  0.00  0.00    -0.420 OA
BRANCH  16  21
ATOM     18  C   LIG    1       -9.464   0.956  -6.683  0.00  0.00    +0.140 A 
ATOM     19  C   LIG    1       -9.727  -0.368  -6.353  0.00  0.00    -0.050 A 
ATOM     20  C   LIG    1       -8.839  -1.075  -5.573  0.00  0.00    +0.130 A 
ATOM     21  C   LIG    1       -7.670  -0.459  -5.112  0.00  0.00    -0.180 A 
ATOM     22  C   LIG    1       -7.411   0.877  -5.441  0.00  0.00    +0.080 A 
ATOM     23  C   LIG    1       -8.303   1.575  -6.227  0.00  0.00    +0.060 A 
ATOM     24  F   LIG    1       -8.053   2.862  -6.550  0.00  0.00    -0.120 F 
BRANCH  18  26
ATOM     25  C   LIG    1      -11.513   0.953  -7.886  0.00  0.00    +0.250 C 
ATOM     26  O   LIG    1      -10.342   1.648  -7.452  0.00  0.00    -0.300 OA
ENDBRANCH  18  26
ENDBRANCH  16  21
ENDBRANCH  15  16
ENDBRANCH   1  15
TORSDOF 7
