REMARK  Name = ZINCrH000004nN53.0
REMARK                            x       y       z     vdW  Elec       q    Type
REMARK                         _______ _______ _______ _____ _____    ______ ____
ROOT
ATOM      1  C   LIG    1       -4.806   4.487   0.980  0.00  0.00    +0.130 A 
ATOM      2  C   LIG    1       -5.982   4.116   0.442  0.00  0.00    -0.110 A 
ATOM      3  S   LIG    1       -7.217   5.252   0.980  0.00  0.00    +0.220 S 
ATOM      4  C   LIG    1       -6.003   6.138   1.899  0.00  0.00    +0.270 A 
ATOM      5  N   LIG    1       -4.849   5.562   1.754  0.00  0.00    -0.490 NA
ENDROOT
BRANCH   1   9
ATOM      6  C   LIG    1       -1.201   2.347   0.260  0.00  0.00    +0.140 A 
ATOM      7  C   LIG    1       -2.388   1.923  -0.326  0.00  0.00    +0.010 A 
ATOM      8  C   LIG    1       -3.559   2.612  -0.089  0.00  0.00    +0.050 A 
ATOM      9  C   LIG    1       -3.549   3.741   0.729  0.00  0.00    -0.030 A 
ATOM     10  C   LIG    1       -2.356   4.167   1.311  0.00  0.00    +0.070 A 
ATOM     11  C   LIG    1       -1.189   3.472   1.076  0.00  0.00    +0.000 A 
BRANCH   6  12
ATOM     12  N   LIG    1       -0.017   1.645   0.023  0.00  0.00    -1.060 N 
ATOM     13  H   LIG    1        0.796   2.126  -0.199  0.00  0.00    +0.430 HD
BRANCH  12  15
ATOM     14  C   LIG    1       -0.485  -0.371   1.825  0.00  0.00    -0.280 C 
ATOM     15  S   LIG    1       -0.002  -0.009   0.114  0.00  0.00    +2.610 S 
ATOM     16  O   LIG    1        1.357  -0.360  -0.105  0.00  0.00    -0.950 OA
ATOM     17  O   LIG    1       -1.020  -0.418  -0.789  0.00  0.00    -0.950 OA
ENDBRANCH  12  15
ENDBRANCH   6  12
ENDBRANCH   1   9
BRANCH   4  18
ATOM     18  N   LIG    1       -6.244   7.271   2.663  0.00  0.00    -0.620 N 
ATOM     19  H   LIG    1       -5.515   7.699   3.139  0.00  0.00    +0.430 HD
ATOM     20  C   LIG    1       -7.490   7.778   2.743  0.00  0.00    +0.570 C 
ATOM     21  O   LIG    1       -8.403   7.242   2.145  0.00  0.00    -0.490 OA
BRANCH  20  22
ATOM     22  C   LIG    1       -7.747   8.985   3.556  0.00  0.00    -0.080 A 
ATOM     23  C   LIG    1       -6.701   9.599   4.248  0.00  0.00    +0.020 A 
ATOM     24  C   LIG    1       -6.946  10.730   5.003  0.00  0.00    +0.130 A 
ATOM     25  C   LIG    1       -8.228  11.249   5.083  0.00  0.00    +0.000 A 
ATOM     26  C   LIG    1       -9.271  10.640   4.403  0.00  0.00    +0.130 A 
ATOM     27  F   LIG    1      -10.519  11.151   4.486  0.00  0.00    -0.120 F 
ATOM     28  F   LIG    1       -5.934  11.329   5.668  0.00  0.00    -0.120 F 
ATOM     29  C   LIG    1       -9.037   9.511   3.641  0.00  0.00    +0.060 A 
ENDBRANCH  20  22
ENDBRANCH   4  18
TORSDOF 5
