REMARK  Name = ZINCrD000006fiN2.0
REMARK                            x       y       z     vdW  Elec       q    Type
REMARK                         _______ _______ _______ _____ _____    ______ ____
ROOT
ATOM      1  C   LIG    1       -1.088   0.712  -0.051  0.00  0.00    +0.560 C 
ATOM      2  N   LIG    1        0.122   0.120  -0.105  0.00  0.00    -0.730 N 
ATOM      3  H   LIG    1        0.195  -0.814  -0.354  0.00  0.00    +0.400 HD
ATOM      4  O   LIG    1       -1.179   1.883   0.261  0.00  0.00    -0.540 OA
ENDROOT
BRANCH   1   8
ATOM      5  C   LIG    1       -4.583  -1.519  -0.970  0.00  0.00    +0.170 A 
ATOM      6  C   LIG    1       -4.689  -0.178  -0.613  0.00  0.00    +0.010 A 
ATOM      7  C   LIG    1       -3.558   0.548  -0.315  0.00  0.00    +0.100 A 
ATOM      8  C   LIG    1       -2.302  -0.064  -0.371  0.00  0.00    -0.150 A 
ATOM      9  C   LIG    1       -2.199  -1.409  -0.735  0.00  0.00    +0.060 A 
ATOM     10  C   LIG    1       -3.334  -2.130  -1.027  0.00  0.00    -0.020 A 
BRANCH   5  12
ATOM     11  C   LIG    1       -6.769  -1.651  -1.886  0.00  0.00    +0.540 C 
ATOM     12  N   LIG    1       -5.730  -2.250  -1.272  0.00  0.00    -0.670 N 
ATOM     13  H   LIG    1       -5.780  -3.191  -1.041  0.00  0.00    +0.410 HD
ATOM     14  O   LIG    1       -6.677  -0.494  -2.249  0.00  0.00    -0.520 OA
BRANCH  11  16
ATOM     15  C   LIG    1       -9.042  -1.805  -2.723  0.00  0.00    +0.160 C 
ATOM     16  C   LIG    1       -8.016  -2.396  -2.117  0.00  0.00    -0.090 C 
ENDBRANCH  11  16
ENDBRANCH   5  12
ENDBRANCH   1   8
BRANCH   2  17
ATOM     17  C   LIG    1        1.329   0.891   0.206  0.00  0.00    +0.270 C 
BRANCH  17  18
ATOM     18  C   LIG    1        2.540  -0.043   0.229  0.00  0.00    +0.050 C 
BRANCH  18  19
ATOM     19  C   LIG    1        3.801   0.772   0.349  0.00  0.00    -0.070 A 
ATOM     20  C   LIG    1        3.842   1.860   1.201  0.00  0.00    +0.000 A 
ATOM     21  C   LIG    1        5.001   2.605   1.314  0.00  0.00    +0.000 A 
ATOM     22  C   LIG    1        6.116   2.267   0.570  0.00  0.00    +0.000 A 
ATOM     23  C   LIG    1        6.073   1.182  -0.285  0.00  0.00    +0.000 A 
ATOM     24  C   LIG    1        4.916   0.434  -0.396  0.00  0.00    +0.020 A 
ENDBRANCH  18  19
BRANCH  18  25
ATOM     25  C   LIG    1        2.429  -0.992   1.425  0.00  0.00    -0.050 C 
ATOM     26  C   LIG    1        1.213  -1.903   1.242  0.00  0.00    +0.030 C 
ATOM     27  C   LIG    1        2.267  -0.176   2.709  0.00  0.00    +0.040 C 
BRANCH  25  28
ATOM     28  C   LIG    1        3.696  -1.845   1.518  0.00  0.00    +0.180 C 
BRANCH  28  29
ATOM     29  O   LIG    1        3.908  -2.520   0.277  0.00  0.00    -0.570 OA
ATOM     30  H   LIG    1        4.696  -3.081   0.264  0.00  0.00    +0.380 HD
ENDBRANCH  28  29
ENDBRANCH  25  28
ENDBRANCH  18  25
ENDBRANCH  17  18
ENDBRANCH   2  17
TORSDOF 9
