REMARK  Name = ZINCrH000004k0Dx.0
REMARK                            x       y       z     vdW  Elec       q    Type
REMARK                         _______ _______ _______ _____ _____    ______ ____
ROOT
ATOM      1  C   LIG    1       -0.075   5.865  -1.449  0.00  0.00    +0.260 C 
ENDROOT
BRANCH   1   4
ATOM      2  C   LIG    1        2.150   7.343  -0.496  0.00  0.00    +0.290 C 
ATOM      3  N   LIG    1        0.942   8.057  -0.916  0.00  0.00    -0.610 N 
ATOM      4  C   LIG    1       -0.110   7.371  -1.408  0.00  0.00    +0.520 C 
ATOM      5  O   LIG    1       -1.083   7.966  -1.818  0.00  0.00    -0.530 OA
BRANCH   3   6
ATOM      6  C   LIG    1        0.876   9.516  -0.802  0.00  0.00    +0.390 C 
BRANCH   6   7
ATOM      7  C   LIG    1        0.322   9.889   0.549  0.00  0.00    -0.210 A 
ATOM      8  C   LIG    1        1.050  10.093   1.649  0.00  0.00    +0.020 A 
ATOM      9  C   LIG    1        0.321  10.428   2.776  0.00  0.00    +0.000 A 
ATOM     10  C   LIG    1       -0.999  10.496   2.593  0.00  0.00    -0.050 A 
ATOM     11  S   LIG    1       -1.381  10.130   0.916  0.00  0.00    +0.130 S 
ENDBRANCH   6   7
ENDBRANCH   3   6
ENDBRANCH   1   4
BRANCH   1  12
ATOM     12  N   LIG    1       -1.157   5.375  -2.305  0.00  0.00    -0.710 N 
ATOM     13  H   LIG    1       -1.950   5.916  -2.444  0.00  0.00    +0.410 HD
ATOM     14  C   LIG    1       -1.052   4.170  -2.902  0.00  0.00    +0.560 C 
ATOM     15  O   LIG    1       -0.059   3.491  -2.728  0.00  0.00    -0.510 OA
BRANCH  14  16
ATOM     16  C   LIG    1       -2.144   3.675  -3.766  0.00  0.00    -0.130 A 
ATOM     17  C   LIG    1       -3.289   4.450  -3.962  0.00  0.00    +0.040 A 
ATOM     18  C   LIG    1       -4.303   3.984  -4.774  0.00  0.00    +0.000 A 
ATOM     19  C   LIG    1       -4.191   2.747  -5.384  0.00  0.00    +0.040 A 
ATOM     20  C   LIG    1       -3.062   1.972  -5.190  0.00  0.00    +0.000 A 
ATOM     21  C   LIG    1       -2.038   2.429  -4.385  0.00  0.00    +0.080 A 
ENDBRANCH  14  16
ENDBRANCH   1  12
BRANCH   1  22
ATOM     22  C   LIG    1       -0.254   5.312  -0.034  0.00  0.00    +0.080 C 
BRANCH  22  23
ATOM     23  C   LIG    1       -0.078   3.816  -0.053  0.00  0.00    -0.070 A 
ATOM     24  C   LIG    1        1.174   3.264   0.139  0.00  0.00    +0.000 A 
ATOM     25  C   LIG    1        1.335   1.891   0.121  0.00  0.00    +0.010 A 
ATOM     26  C   LIG    1        0.243   1.070  -0.089  0.00  0.00    +0.000 A 
ATOM     27  C   LIG    1       -1.008   1.622  -0.287  0.00  0.00    +0.010 A 
ATOM     28  C   LIG    1       -1.170   2.994  -0.263  0.00  0.00    +0.010 A 
ENDBRANCH  22  23
ENDBRANCH   1  22
TORSDOF 7
