REMARK  Name = ZINCwl0000000r2J.0
REMARK                            x       y       z     vdW  Elec       q    Type
REMARK                         _______ _______ _______ _____ _____    ______ ____
ROOT
ATOM      1  C   LIG    1       -0.113   7.473  -1.593  0.00  0.00    +0.720 C 
ENDROOT
BRANCH   1   2
ATOM      2  N   LIG    1       -0.116   8.340  -0.620  0.00  0.00    -0.660 NA
ATOM      3  H   LIG    1       -0.032   8.039   0.298  0.00  0.00    +0.440 HD
BRANCH   2   4
ATOM      4  C   LIG    1       -0.244   9.770  -0.913  0.00  0.00    +0.290 C 
BRANCH   4   5
ATOM      5  C   LIG    1       -0.343  10.552   0.398  0.00  0.00    +0.040 C 
BRANCH   5   6
ATOM      6  C   LIG    1       -0.477  12.045   0.092  0.00  0.00    +0.190 C 
BRANCH   6   7
ATOM      7  O   LIG    1       -0.569  12.776   1.317  0.00  0.00    -0.390 OA
BRANCH   7   9
ATOM      8  C   LIG    1       -0.788  14.865   2.511  0.00  0.00    +0.060 C 
ATOM      9  C   LIG    1       -0.698  14.188   1.142  0.00  0.00    +0.160 C 
ENDBRANCH   7   9
ENDBRANCH   6   7
ENDBRANCH   5   6
ENDBRANCH   4   5
ENDBRANCH   2   4
ENDBRANCH   1   2
BRANCH   1  10
ATOM     10  N   LIG    1       -0.101   6.127  -1.314  0.00  0.00    -0.690 NA
ATOM     11  H   LIG    1       -0.100   5.481  -2.039  0.00  0.00    +0.430 HD
BRANCH  10  12
ATOM     12  C   LIG    1       -0.091   5.667   0.076  0.00  0.00    +0.350 C 
BRANCH  12  13
ATOM     13  C   LIG    1       -0.079   4.160   0.107  0.00  0.00    -0.180 A 
ATOM     14  C   LIG    1        1.125   3.480   0.116  0.00  0.00    +0.080 A 
ATOM     15  C   LIG    1        1.138   2.099   0.144  0.00  0.00    -0.010 A 
ATOM     16  C   LIG    1       -0.057   1.394   0.165  0.00  0.00    +0.160 A 
ATOM     17  C   LIG    1       -1.263   2.079   0.151  0.00  0.00    -0.070 A 
ATOM     18  C   LIG    1       -1.272   3.461   0.128  0.00  0.00    +0.080 A 
BRANCH  16  19
ATOM     19  O   LIG    1       -0.046   0.036   0.193  0.00  0.00    -0.310 OA
ATOM     20  C   LIG    1       -1.314  -0.623   0.212  0.00  0.00    +0.250 C 
ENDBRANCH  16  19
ENDBRANCH  12  13
ENDBRANCH  10  12
ENDBRANCH   1  10
BRANCH   1  21
ATOM     21  N   LIG    1       -0.123   7.905  -2.898  0.00  0.00    -0.690 NA
ATOM     22  H   LIG    1       -0.207   8.851  -3.096  0.00  0.00    +0.430 HD
BRANCH  21  23
ATOM     23  C   LIG    1       -0.007   6.936  -3.991  0.00  0.00    +0.320 C 
BRANCH  23  24
ATOM     24  C   LIG    1        0.081   7.680  -5.325  0.00  0.00    -0.370 C 
BRANCH  24  25
ATOM     25  S   LIG    1        0.225   6.480  -6.678  0.00  0.00    +2.610 S 
ATOM     26  O   LIG    1       -0.984   5.748  -6.826  0.00  0.00    -0.930 OA
ATOM     27  O   LIG    1        1.481   5.818  -6.626  0.00  0.00    -0.930 OA
BRANCH  25  28
ATOM     28  N   LIG    1        0.310   7.409  -8.047  0.00  0.00    -0.990 NA
ATOM     29  C   LIG    1       -0.907   7.793  -8.778  0.00  0.00    +0.280 C 
ATOM     30  C   LIG    1       -0.870   9.313  -9.005  0.00  0.00    +0.190 C 
ATOM     31  O   LIG    1        0.374   9.666  -9.615  0.00  0.00    -0.360 OA
ATOM     32  C   LIG    1        1.521   9.381  -8.810  0.00  0.00    +0.130 C 
ATOM     33  C   LIG    1        2.783   9.855  -9.533  0.00  0.00    +0.070 C 
ATOM     34  C   LIG    1       -1.007  10.038  -7.665  0.00  0.00    +0.000 C 
ATOM     35  C   LIG    1        1.606   7.869  -8.570  0.00  0.00    +0.280 C 
ENDBRANCH  25  28
ENDBRANCH  24  25
ENDBRANCH  23  24
ENDBRANCH  21  23
ENDBRANCH   1  21
TORSDOF 15
