REMARK  Name = ZINCpk00000FaHI2.0
REMARK                            x       y       z     vdW  Elec       q    Type
REMARK                         _______ _______ _______ _____ _____    ______ ____
ROOT
ATOM      1  C   LIG    1        1.969  -4.141  -0.038  0.00  0.00    +0.080 A 
ATOM      2  C   LIG    1        2.365  -2.843  -0.041  0.00  0.00    +0.090 A 
ATOM      3  N   LIG    1        1.237  -2.081  -0.020  0.00  0.00    -0.210 N 
ATOM      4  N   LIG    1        0.196  -2.834  -0.015  0.00  0.00    -0.230 NA
ATOM      5  C   LIG    1        0.552  -4.105  -0.025  0.00  0.00    -0.010 A 
ENDROOT
BRANCH   3   6
ATOM      6  C   LIG    1        1.215  -0.680  -0.013  0.00  0.00    +0.130 A 
ATOM      7  C   LIG    1        0.002  -0.004   0.002  0.00  0.00    +0.030 A 
ATOM      8  C   LIG    1       -0.017   1.377   0.010  0.00  0.00    +0.040 A 
ATOM      9  C   LIG    1        1.171   2.086   0.002  0.00  0.00    +0.010 A 
ATOM     10  C   LIG    1        2.380   1.415  -0.013  0.00  0.00    +0.040 A 
ATOM     11  C   LIG    1        2.405   0.035  -0.021  0.00  0.00    +0.000 A 
ENDBRANCH   3   6
BRANCH   5  12
ATOM     12  C   LIG    1       -0.355  -5.268  -0.022  0.00  0.00    +0.600 C 
ATOM     13  N   LIG    1       -1.690  -5.082  -0.008  0.00  0.00    -0.720 N 
ATOM     14  H   LIG    1       -2.054  -4.183  -0.000  0.00  0.00    +0.410 HD
ATOM     15  O   LIG    1        0.102  -6.395  -0.032  0.00  0.00    -0.510 OA
BRANCH  13  16
ATOM     16  C   LIG    1       -2.590  -6.238  -0.005  0.00  0.00    +0.310 C 
BRANCH  16  17
ATOM     17  C   LIG    1       -4.019  -5.761   0.011  0.00  0.00    -0.060 C 
ATOM     18  C   LIG    1       -4.856  -6.166  -0.913  0.00  0.00    +0.040 C 
ENDBRANCH  16  17
ENDBRANCH  13  16
ENDBRANCH   5  12
BRANCH   1  19
ATOM     19  O   LIG    1        2.765  -5.245  -0.052  0.00  0.00    -0.240 OA
BRANCH  19  20
ATOM     20  C   LIG    1        4.177  -5.027  -0.064  0.00  0.00    +0.220 C 
BRANCH  20  23
ATOM     21  N   LIG    1        6.237  -6.395  -0.091  0.00  0.00    -0.730 N 
ATOM     22  H   LIG    1        6.748  -5.571  -0.091  0.00  0.00    +0.400 HD
ATOM     23  C   LIG    1        4.890  -6.354  -0.078  0.00  0.00    +0.510 C 
ATOM     24  O   LIG    1        4.252  -7.386  -0.077  0.00  0.00    -0.500 OA
BRANCH  21  25
ATOM     25  C   LIG    1        6.931  -7.686  -0.104  0.00  0.00    +0.300 C 
BRANCH  25  27
ATOM     26  C   LIG    1        9.175  -8.004   0.802  0.00  0.00    +0.050 C 
ATOM     27  C   LIG    1        8.420  -7.456  -0.117  0.00  0.00    -0.060 C 
ENDBRANCH  25  27
ENDBRANCH  21  25
ENDBRANCH  20  23
ENDBRANCH  19  20
ENDBRANCH   1  19
TORSDOF 9
