REMARK  Name = ZINC650000002Ci4.0
REMARK                            x       y       z     vdW  Elec       q    Type
REMARK                         _______ _______ _______ _____ _____    ______ ____
ROOT
ATOM      1  C   LIG    1       -0.108   2.647  -1.532  0.00  0.00    +0.510 C 
ATOM      2  C   LIG    1        1.375   2.492  -1.231  0.00  0.00    +0.150 C 
ATOM      3  C   LIG    1        1.361   1.553  -0.003  0.00  0.00    +0.260 C 
ATOM      4  N   LIG    1       -0.012   1.005   0.008  0.00  0.00    -0.430 NA
ATOM      5  H   LIG    1        0.002  -0.004   0.002  0.00  0.00    +0.380 HD
ATOM      6  N   LIG    1       -0.692   1.491  -1.071  0.00  0.00    -0.520 NA
ATOM      7  H   LIG    1       -1.478   1.077  -1.460  0.00  0.00    +0.450 HD
ENDROOT
BRANCH   1   8
ATOM      8  N   LIG    1       -0.694   3.651  -2.099  0.00  0.00    -0.700 NA
ATOM      9  H   LIG    1       -1.654   3.636  -2.239  0.00  0.00    +0.440 HD
ATOM     10  H   LIG    1       -0.174   4.418  -2.384  0.00  0.00    +0.460 HD
ENDBRANCH   1   8
TORSDOF 1
