REMARK  Name = ZINCqH0000002CDM.0
REMARK                            x       y       z     vdW  Elec       q    Type
REMARK                         _______ _______ _______ _____ _____    ______ ____
ROOT
ATOM      1  N   LIG    1        2.220   1.483   0.905  0.00  0.00    -0.600 N 
ATOM      2  C   LIG    1        2.208   0.152   1.121  0.00  0.00    +0.580 C 
ATOM      3  C   LIG    1        1.107  -0.660   0.573  0.00  0.00    -0.200 A 
ATOM      4  C   LIG    1        1.146  -2.053   0.602  0.00  0.00    +0.150 A 
ATOM      5  C   LIG    1        0.105  -2.774   0.057  0.00  0.00    -0.020 A 
ATOM      6  C   LIG    1       -0.978  -2.124  -0.517  0.00  0.00    +0.030 A 
ATOM      7  C   LIG    1       -1.032  -0.742  -0.546  0.00  0.00    -0.030 A 
ATOM      8 CL   LIG    1       -2.274  -3.052  -1.204  0.00  0.00    -0.050 Cl
ATOM      9  C   LIG    1        0.002  -0.004   0.002  0.00  0.00    +0.250 A 
ATOM     10  N   LIG    1       -0.017   1.387   0.010  0.00  0.00    -0.720 N 
ATOM     11  H   LIG    1       -0.858   1.870   0.016  0.00  0.00    +0.420 HD
ATOM     12  O   LIG    1        3.097  -0.374   1.762  0.00  0.00    -0.510 OA
ATOM     13  C   LIG    1        1.258   2.108   0.001  0.00  0.00    +0.430 C 
ATOM     14  C   LIG    1        1.033   3.551   0.407  0.00  0.00    +0.520 C 
ATOM     15  N   LIG    1        1.421   4.319  -0.632  0.00  0.00    -0.550 N 
ATOM     16  C   LIG    1        1.877   3.562  -1.696  0.00  0.00    +0.150 A 
ATOM     17  C   LIG    1        2.358   3.979  -2.938  0.00  0.00    +0.010 A 
ATOM     18  C   LIG    1        2.752   2.992  -3.829  0.00  0.00    +0.060 A 
ATOM     19  C   LIG    1        2.676   1.651  -3.514  0.00  0.00    -0.110 A 
ATOM     20  C   LIG    1        2.200   1.223  -2.279  0.00  0.00    +0.100 A 
ATOM     21  C   LIG    1        3.118   0.629  -4.529  0.00  0.00    +0.090 C 
ATOM     22  C   LIG    1        1.365   5.783  -0.632  0.00  0.00    +0.320 C 
ATOM     23  O   LIG    1        0.589   3.941   1.466  0.00  0.00    -0.460 OA
ATOM     24  C   LIG    1        1.808   2.198  -1.388  0.00  0.00    -0.170 A 
ENDROOT
BRANCH   1  25
ATOM     25  C   LIG    1        3.215   2.315   1.586  0.00  0.00    +0.280 C 
BRANCH  25  27
ATOM     26  C   LIG    1        5.512   3.286   1.433  0.00  0.00    +0.020 C 
ATOM     27  C   LIG    1        4.473   2.417   0.721  0.00  0.00    -0.010 C 
ENDBRANCH  25  27
ENDBRANCH   1  25
TORSDOF 2
