REMARK  Name = ZINCvU00000006Qt.0
REMARK                            x       y       z     vdW  Elec       q    Type
REMARK                         _______ _______ _______ _____ _____    ______ ____
ROOT
ATOM      1  C   LIG    1        6.046   2.282  -0.029  0.00  0.00    +0.250 C 
ENDROOT
BRANCH   1   2
ATOM      2  C   LIG    1        6.444   2.575  -1.453  0.00  0.00    -0.130 A 
ATOM      3  C   LIG    1        6.233   1.628  -2.438  0.00  0.00    +0.040 A 
ATOM      4  C   LIG    1        6.595   1.898  -3.744  0.00  0.00    +0.010 A 
ATOM      5  C   LIG    1        7.177   3.111  -4.064  0.00  0.00    +0.030 A 
ATOM      6  C   LIG    1        7.393   4.055  -3.078  0.00  0.00    +0.020 A 
ATOM      7  C   LIG    1        7.027   3.787  -1.772  0.00  0.00    +0.030 A 
ENDBRANCH   1   2
BRANCH   1   8
ATOM      8  C   LIG    1        7.152   1.523   0.657  0.00  0.00    +0.530 C 
ATOM      9  N   LIG    1        8.348   2.110   0.858  0.00  0.00    -0.670 N 
ATOM     10  H   LIG    1        8.524   2.990   0.492  0.00  0.00    +0.420 HD
ATOM     11  O   LIG    1        6.966   0.383   1.028  0.00  0.00    -0.480 OA
BRANCH   9  12
ATOM     12  C   LIG    1        9.337   1.449   1.596  0.00  0.00    +0.210 A 
ATOM     13  C   LIG    1        8.980   0.485   2.530  0.00  0.00    +0.050 A 
ATOM     14  C   LIG    1        9.958  -0.166   3.256  0.00  0.00    +0.100 A 
ATOM     15  C   LIG    1       11.292   0.140   3.054  0.00  0.00    -0.060 A 
ATOM     16  C   LIG    1       11.650   1.100   2.123  0.00  0.00    +0.120 A 
ATOM     17 CL   LIG    1       12.518  -0.680   3.968  0.00  0.00    -0.050 Cl
ATOM     18  C   LIG    1       10.677   1.751   1.391  0.00  0.00    -0.210 A 
BRANCH  18  19
ATOM     19  C   LIG    1       11.068   2.792   0.373  0.00  0.00    +0.510 C 
ATOM     20  F   LIG    1       10.494   4.020   0.718  0.00  0.00    -0.180 F 
ATOM     21  F   LIG    1       10.613   2.402  -0.891  0.00  0.00    -0.170 F 
ATOM     22  F   LIG    1       12.461   2.919   0.348  0.00  0.00    -0.170 F 
ENDBRANCH  18  19
ENDBRANCH   9  12
ENDBRANCH   1   8
BRANCH   1  23
ATOM     23  O   LIG    1        4.833   1.484  -0.021  0.00  0.00    -0.320 OA
BRANCH  23  25
ATOM     24  O   LIG    1        3.655   3.365   0.018  0.00  0.00    -0.480 OA
ATOM     25  C   LIG    1        3.662   2.150   0.004  0.00  0.00    +0.510 C 
BRANCH  25  26
ATOM     26  C   LIG    1        2.390   1.405   0.014  0.00  0.00    -0.160 A 
ATOM     27  C   LIG    1        2.394   0.008  -0.002  0.00  0.00    +0.100 A 
ATOM     28  C   LIG    1        1.201  -0.682   0.008  0.00  0.00    +0.000 A 
ATOM     29  C   LIG    1       -0.003   0.002   0.034  0.00  0.00    +0.080 A 
ATOM     30  C   LIG    1       -0.021   1.383   0.050  0.00  0.00    -0.020 A 
ATOM     31  C   LIG    1        1.169   2.094   0.040  0.00  0.00    +0.180 A 
BRANCH  31  32
ATOM     32  O   LIG    1        1.153   3.451   0.056  0.00  0.00    -0.480 OA
ATOM     33  H   LIG    1        1.161   3.834   0.944  0.00  0.00    +0.400 HD
ENDBRANCH  31  32
ENDBRANCH  25  26
ENDBRANCH  23  25
ENDBRANCH   1  23
TORSDOF 8
