REMARK  Name = ZINCpk000000mRDc.0
REMARK                            x       y       z     vdW  Elec       q    Type
REMARK                         _______ _______ _______ _____ _____    ______ ____
ROOT
ATOM      1  C   LIG    1       -0.911  -0.659  -7.688  0.00  0.00    +0.110 C 
ATOM      2  C   LIG    1       -0.922   0.608  -6.871  0.00  0.00    +0.510 C 
ATOM      3  N   LIG    1       -1.897   1.520  -7.055  0.00  0.00    -0.560 N 
ATOM      4  C   LIG    1       -2.895   1.343  -8.118  0.00  0.00    +0.280 C 
ATOM      5  C   LIG    1       -3.065   2.690  -8.832  0.00  0.00    +0.030 C 
ATOM      6  C   LIG    1       -3.615   3.711  -7.837  0.00  0.00    +0.090 C 
ATOM      7  C   LIG    1       -2.782   3.727  -6.582  0.00  0.00    -0.060 A 
ATOM      8  C   LIG    1       -2.833   4.838  -5.758  0.00  0.00    +0.020 A 
ATOM      9  C   LIG    1       -2.087   4.879  -4.596  0.00  0.00    +0.100 A 
ATOM     10  C   LIG    1       -1.284   3.808  -4.248  0.00  0.00    -0.660 A 
ATOM     11  C   LIG    1       -1.222   2.699  -5.068  0.00  0.00    +0.140 A 
ATOM     12  C   LIG    1       -1.975   2.654  -6.235  0.00  0.00    +0.140 A 
ATOM     13  O   LIG    1       -0.053   0.806  -6.048  0.00  0.00    -0.500 OA
ENDROOT
BRANCH  10  14
ATOM     14  S   LIG    1       -0.336   3.862  -2.764  0.00  0.00    +2.680 S 
ATOM     15  O   LIG    1        0.610   2.805  -2.853  0.00  0.00    -0.940 OA
ATOM     16  O   LIG    1        0.033   5.221  -2.572  0.00  0.00    -0.950 OA
BRANCH  14  17
ATOM     17  N   LIG    1       -1.354   3.474  -1.517  0.00  0.00    -1.000 NA
ATOM     18  C   LIG    1       -1.955   4.540  -0.714  0.00  0.00    +0.310 C 
ATOM     19  C   LIG    1       -1.433   4.454   0.724  0.00  0.00    +0.110 C 
ATOM     20  S   LIG    1       -1.820   2.809   1.393  0.00  0.00    -0.250 S 
ATOM     21  C   LIG    1       -1.087   1.704   0.151  0.00  0.00    +0.110 C 
ATOM     22  C   LIG    1       -1.644   2.068  -1.229  0.00  0.00    +0.250 C 
BRANCH  22  23
ATOM     23  C   LIG    1       -0.989   1.185  -2.293  0.00  0.00    +0.040 C 
BRANCH  23  24
ATOM     24  C   LIG    1       -1.471  -0.258  -2.126  0.00  0.00    +0.180 C 
BRANCH  24  25
ATOM     25  O   LIG    1       -0.961  -1.058  -3.194  0.00  0.00    -0.560 OA
ATOM     26  H   LIG    1       -1.287  -1.968  -3.194  0.00  0.00    +0.380 HD
ENDBRANCH  24  25
ENDBRANCH  23  24
ENDBRANCH  22  23
ENDBRANCH  14  17
ENDBRANCH  10  14
TORSDOF 5
