REMARK  Name = ZINCrD00000l8D78.0
REMARK                            x       y       z     vdW  Elec       q    Type
REMARK                         _______ _______ _______ _____ _____    ______ ____
ROOT
ATOM      1  O   LIG    1        0.773   3.730   2.116  0.00  0.00    -0.500 OA
ATOM      2  C   LIG    1        0.382   3.135   1.123  0.00  0.00    +0.520 A 
ATOM      3  C   LIG    1       -0.829   2.430   1.155  0.00  0.00    -0.140 A 
ATOM      4  C   LIG    1       -1.251   1.769   0.015  0.00  0.00    +0.220 A 
ATOM      5  C   LIG    1       -0.451   1.810  -1.146  0.00  0.00    +0.280 A 
ATOM      6  N   LIG    1        0.673   2.473  -1.150  0.00  0.00    -0.200 NA
ATOM      7 CL   LIG    1       -1.789   2.392   2.601  0.00  0.00    -0.000 Cl
ATOM      8  N   LIG    1        1.113   3.151  -0.009  0.00  0.00    -0.360 N 
ENDROOT
BRANCH   4   9
ATOM      9  N   LIG    1       -2.447   1.069   0.015  0.00  0.00    -0.650 N 
ATOM     10  C   LIG    1       -3.728   1.763   0.218  0.00  0.00    +0.300 C 
ATOM     11  C   LIG    1       -4.683   1.352  -0.914  0.00  0.00    +0.190 C 
ATOM     12  N   LIG    1       -4.772  -0.113  -0.965  0.00  0.00    -0.480 N 
ATOM     13  C   LIG    1       -3.472  -0.715  -1.292  0.00  0.00    +0.180 C 
ATOM     14  C   LIG    1       -2.468  -0.388  -0.182  0.00  0.00    +0.310 C 
BRANCH  12  15
ATOM     15  C   LIG    1       -5.756  -0.524  -1.870  0.00  0.00    +0.100 A 
ATOM     16  C   LIG    1       -5.430  -1.387  -2.908  0.00  0.00    +0.000 A 
ATOM     17  C   LIG    1       -6.405  -1.795  -3.797  0.00  0.00    +0.010 A 
ATOM     18  C   LIG    1       -7.704  -1.336  -3.660  0.00  0.00    +0.070 A 
ATOM     19  C   LIG    1       -8.030  -0.472  -2.629  0.00  0.00    +0.010 A 
ATOM     20  F   LIG    1       -8.655  -1.733  -4.534  0.00  0.00    -0.140 F 
ATOM     21  C   LIG    1       -7.060  -0.065  -1.734  0.00  0.00    +0.030 A 
ENDBRANCH  12  15
ENDBRANCH   4   9
BRANCH   8  22
ATOM     22  C   LIG    1        2.323   3.854  -0.043  0.00  0.00    +0.140 A 
ATOM     23  C   LIG    1        2.382   5.162   0.421  0.00  0.00    +0.040 A 
ATOM     24  C   LIG    1        3.579   5.850   0.391  0.00  0.00    +0.020 A 
ATOM     25  C   LIG    1        4.715   5.243  -0.112  0.00  0.00    +0.020 A 
ATOM     26  C   LIG    1        4.658   3.943  -0.580  0.00  0.00    +0.020 A 
ATOM     27  C   LIG    1        3.466   3.247  -0.547  0.00  0.00    +0.030 A 
ENDBRANCH   8  22
TORSDOF 3
