REMARK  Name = ZINCvU00000009ZL.0
REMARK                            x       y       z     vdW  Elec       q    Type
REMARK                         _______ _______ _______ _____ _____    ______ ____
ROOT
ATOM      1  N   LIG    1       -1.683   2.958   1.519  0.00  0.00    -0.980 NA
ATOM      2  C   LIG    1       -2.315   2.225   2.559  0.00  0.00    +0.270 C 
ATOM      3  C   LIG    1       -3.872   2.283   2.551  0.00  0.00    +0.020 C 
ATOM      4  C   LIG    1       -4.279   3.734   2.135  0.00  0.00    +0.270 C 
ATOM      5  N   LIG    1       -3.445   4.757   2.663  0.00  0.00    -0.980 NA
ATOM      6  C   LIG    1       -2.351   5.254   1.790  0.00  0.00    +0.290 C 
ATOM      7  C   LIG    1       -1.222   4.332   1.845  0.00  0.00    +0.290 C 
ENDROOT
BRANCH   1   8
ATOM      8  S   LIG    1       -1.474   2.312   0.008  0.00  0.00    +2.690 S 
ATOM      9  O   LIG    1       -2.575   1.441  -0.211  0.00  0.00    -0.940 OA
ATOM     10  O   LIG    1       -1.160   3.398  -0.853  0.00  0.00    -0.930 OA
BRANCH   8  14
ATOM     11  C   LIG    1        0.842  -2.369  -0.184  0.00  0.00    +0.120 C 
ATOM     12  C   LIG    1        0.971  -0.875  -0.030  0.00  0.00    -0.090 A 
ATOM     13  C   LIG    1       -0.156  -0.076  -0.072  0.00  0.00    +0.160 A 
ATOM     14  C   LIG    1       -0.038   1.294   0.070  0.00  0.00    -0.670 A 
ATOM     15  C   LIG    1        1.208   1.866   0.255  0.00  0.00    +0.060 A 
ATOM     16  C   LIG    1        2.336   1.066   0.297  0.00  0.00    +0.040 A 
ATOM     17 CL   LIG    1        1.356   3.586   0.432  0.00  0.00    -0.030 Cl
ATOM     18  C   LIG    1        2.218  -0.305   0.155  0.00  0.00    +0.020 A 
ATOM     19 CL   LIG    1        3.633  -1.309   0.208  0.00  0.00    -0.030 Cl
ENDBRANCH   8  14
ENDBRANCH   1   8
BRANCH   5  20
ATOM     20  S   LIG    1       -3.683   5.367   4.184  0.00  0.00    +2.690 S 
ATOM     21  O   LIG    1       -2.501   6.082   4.518  0.00  0.00    -0.930 OA
ATOM     22  O   LIG    1       -4.194   4.299   4.969  0.00  0.00    -0.940 OA
BRANCH  20  23
ATOM     23  C   LIG    1       -4.972   6.563   4.070  0.00  0.00    -0.670 A 
ATOM     24  C   LIG    1       -6.189   6.327   4.681  0.00  0.00    +0.160 A 
ATOM     25  C   LIG    1       -7.201   7.265   4.593  0.00  0.00    -0.090 A 
ATOM     26  C   LIG    1       -6.995   8.440   3.892  0.00  0.00    +0.020 A 
ATOM     27  C   LIG    1       -5.778   8.677   3.280  0.00  0.00    +0.040 A 
ATOM     28 CL   LIG    1       -8.266   9.618   3.782  0.00  0.00    -0.030 Cl
ATOM     29  C   LIG    1       -8.527   7.007   5.259  0.00  0.00    +0.120 C 
ATOM     30  C   LIG    1       -4.764   7.740   3.373  0.00  0.00    +0.060 A 
ATOM     31 CL   LIG    1       -3.233   8.039   2.611  0.00  0.00    -0.030 Cl
ENDBRANCH  20  23
ENDBRANCH   5  20
TORSDOF 4
