REMARK  Name = ZINCrD000000Bq8l.0
REMARK                            x       y       z     vdW  Elec       q    Type
REMARK                         _______ _______ _______ _____ _____    ______ ____
ROOT
ATOM      1  C   LIG    1       -2.449   1.120   0.016  0.00  0.00    +0.400 C 
ENDROOT
BRANCH   1   6
ATOM      2  O   LIG    1        0.002  -0.004   0.013  0.00  0.00    -0.560 OA
ATOM      3  C   LIG    1       -0.015   1.212   0.011  0.00  0.00    +0.710 C 
ATOM      4  N   LIG    1        1.143   1.901   0.001  0.00  0.00    -0.680 N 
ATOM      5  H   LIG    1        1.131   2.869  -0.068  0.00  0.00    +0.410 HD
ATOM      6  N   LIG    1       -1.191   1.870   0.012  0.00  0.00    -0.740 N 
ATOM      7  H   LIG    1       -1.204   2.840   0.010  0.00  0.00    +0.400 HD
BRANCH   4   8
ATOM      8  C   LIG    1        2.364   1.221   0.092  0.00  0.00    +0.180 A 
ATOM      9  C   LIG    1        2.513  -0.022  -0.508  0.00  0.00    +0.060 A 
ATOM     10  C   LIG    1        3.718  -0.692  -0.417  0.00  0.00    +0.070 A 
ATOM     11  C   LIG    1        4.776  -0.125   0.270  0.00  0.00    -0.050 A 
ATOM     12  C   LIG    1        4.630   1.116   0.869  0.00  0.00    -0.010 A 
ATOM     13 CL   LIG    1        5.960   1.824   1.731  0.00  0.00    -0.040 Cl
ATOM     14 CL   LIG    1        6.289  -0.969   0.383  0.00  0.00    -0.050 Cl
ATOM     15  C   LIG    1        3.429   1.792   0.776  0.00  0.00    +0.020 A 
ENDBRANCH   4   8
ENDBRANCH   1   6
BRANCH   1  16
ATOM     16  C   LIG    1       -3.608   2.084   0.017  0.00  0.00    -0.170 A 
ATOM     17  C   LIG    1       -4.201   2.574  -1.073  0.00  0.00    +0.030 A 
ATOM     18  C   LIG    1       -5.248   3.445  -0.825  0.00  0.00    +0.170 A 
ATOM     19  C   LIG    1       -5.505   3.662   0.466  0.00  0.00    -0.790 A 
ATOM     20  S   LIG    1       -4.389   2.729   1.454  0.00  0.00    +0.240 S 
BRANCH  19  21
ATOM     21  S   LIG    1       -6.773   4.717   1.086  0.00  0.00    +2.710 S 
ATOM     22  O   LIG    1       -7.054   5.655   0.056  0.00  0.00    -0.940 OA
ATOM     23  O   LIG    1       -6.374   5.098   2.395  0.00  0.00    -0.940 OA
BRANCH  21  24
ATOM     24  N   LIG    1       -8.136   3.794   1.262  0.00  0.00    -1.000 NA
ATOM     25  C   LIG    1       -9.106   3.657   0.164  0.00  0.00    +0.270 C 
ATOM     26  C   LIG    1       -9.385   2.160  -0.046  0.00  0.00    +0.220 C 
ATOM     27  O   LIG    1       -9.755   1.573   1.204  0.00  0.00    -0.370 OA
ATOM     28  C   LIG    1       -8.731   1.625   2.201  0.00  0.00    +0.220 C 
ATOM     29  C   LIG    1       -8.416   3.090   2.524  0.00  0.00    +0.270 C 
ENDBRANCH  21  24
ENDBRANCH  19  21
ENDBRANCH   1  16
TORSDOF 5
