REMARK  Name = ZINCpe000000YZHy.0
REMARK                            x       y       z     vdW  Elec       q    Type
REMARK                         _______ _______ _______ _____ _____    ______ ____
ROOT
ATOM      1  C   LIG    1       -5.969  -4.324  -4.457  0.00  0.00    +0.010 C 
ENDROOT
BRANCH   1   2
ATOM      2  C   LIG    1       -4.734  -3.420  -4.464  0.00  0.00    +0.030 C 
BRANCH   2   3
ATOM      3  C   LIG    1       -4.310  -3.126  -3.024  0.00  0.00    +0.010 C 
BRANCH   3   4
ATOM      4  C   LIG    1       -3.076  -2.222  -3.030  0.00  0.00    +0.260 C 
BRANCH   4   7
ATOM      5  O   LIG    1       -0.971  -0.688  -2.336  0.00  0.00    -0.510 OA
ATOM      6  C   LIG    1       -1.598  -1.159  -1.410  0.00  0.00    +0.500 C 
ATOM      7  N   LIG    1       -2.669  -1.941  -1.651  0.00  0.00    -0.720 N 
ATOM      8  H   LIG    1       -3.171  -2.317  -0.911  0.00  0.00    +0.410 HD
BRANCH   6   9
ATOM      9  C   LIG    1       -1.180  -0.870   0.008  0.00  0.00    +0.410 C 
BRANCH   9  10
ATOM     10  N   LIG    1        0.002  -0.004   0.002  0.00  0.00    -0.130 N 
ATOM     11  N   LIG    1       -0.015   1.285   0.009  0.00  0.00    -0.300 NA
ATOM     12  C   LIG    1        1.226   1.705  -0.001  0.00  0.00    +0.390 A 
ATOM     13  N   LIG    1        2.002   0.621  -0.014  0.00  0.00    -0.280 NA
ATOM     14  N   LIG    1        1.224  -0.409  -0.012  0.00  0.00    -0.050 NA
ENDBRANCH   9  10
ENDBRANCH   6   9
ENDBRANCH   4   7
ENDBRANCH   3   4
ENDBRANCH   2   3
ENDBRANCH   1   2
BRANCH   1  15
ATOM     15  C   LIG    1       -6.393  -4.618  -5.898  0.00  0.00    +0.270 C 
BRANCH  15  16
ATOM     16  N   LIG    1       -7.575  -5.484  -5.891  0.00  0.00    -0.710 N 
ATOM     17  H   LIG    1       -7.959  -5.775  -5.050  0.00  0.00    +0.410 HD
ATOM     18  C   LIG    1       -8.129  -5.876  -7.056  0.00  0.00    +0.650 C 
ATOM     19  O   LIG    1       -7.649  -5.511  -8.111  0.00  0.00    -0.570 OA
BRANCH  18  20
ATOM     20  O   LIG    1       -9.215  -6.671  -7.050  0.00  0.00    -0.370 OA
BRANCH  20  21
ATOM     21  C   LIG    1       -9.759  -7.054  -8.341  0.00  0.00    +0.290 C 
BRANCH  21  22
ATOM     22  C   LIG    1      -10.962  -7.938  -8.137  0.00  0.00    -0.100 A 
ATOM     23  C   LIG    1      -10.807  -9.310  -8.061  0.00  0.00    +0.040 A 
ATOM     24  C   LIG    1      -11.911 -10.120  -7.869  0.00  0.00    +0.010 A 
ATOM     25  C   LIG    1      -13.170  -9.560  -7.764  0.00  0.00    +0.020 A 
ATOM     26  C   LIG    1      -13.326  -8.189  -7.846  0.00  0.00    +0.010 A 
ATOM     27  C   LIG    1      -12.222  -7.378  -8.032  0.00  0.00    +0.040 A 
ENDBRANCH  21  22
ENDBRANCH  20  21
ENDBRANCH  18  20
ENDBRANCH  15  16
ENDBRANCH   1  15
TORSDOF 11
