REMARK  Name = ZINCpk00000xHZa5.0
REMARK                            x       y       z     vdW  Elec       q    Type
REMARK                         _______ _______ _______ _____ _____    ______ ____
ROOT
ATOM      1  C   LIG    1       -1.032  10.038  -3.629  0.00  0.00    +0.130 C 
ATOM      2  C   LIG    1       -0.955   8.551  -3.392  0.00  0.00    -0.130 A 
ATOM      3  C   LIG    1       -1.113   7.694  -4.425  0.00  0.00    +0.290 A 
ATOM      4  N   LIG    1       -1.048   6.346  -4.230  0.00  0.00    -0.440 N 
ATOM      5  C   LIG    1       -1.227   5.518  -5.283  0.00  0.00    +0.550 A 
ATOM      6  C   LIG    1       -1.168   4.119  -5.062  0.00  0.00    -0.360 A 
ATOM      7  C   LIG    1       -0.882   3.653  -3.757  0.00  0.00    +0.510 A 
ATOM      8  N   LIG    1       -0.771   2.297  -3.531  0.00  0.00    -0.490 N 
ATOM      9  C   LIG    1       -1.446   1.448  -4.399  0.00  0.00    +0.470 A 
ATOM     10  C   LIG    1       -1.534   1.858  -5.814  0.00  0.00    -0.190 A 
ATOM     11  N   LIG    1       -1.987   0.332  -3.980  0.00  0.00    -0.720 NA
ATOM     12  H   LIG    1       -2.454  -0.245  -4.605  0.00  0.00    +0.360 HD
ATOM     13  N   LIG    1       -0.723   4.523  -2.772  0.00  0.00    -0.530 NA
ATOM     14  C   LIG    1       -1.404   3.211  -6.107  0.00  0.00    +0.260 A 
ATOM     15  O   LIG    1       -1.435   5.964  -6.398  0.00  0.00    -0.500 OA
ATOM     16  C   LIG    1       -0.809   5.837  -2.983  0.00  0.00    +0.440 A 
ATOM     17  C   LIG    1       -0.647   6.715  -1.896  0.00  0.00    +0.040 A 
ATOM     18  C   LIG    1       -0.719   8.060  -2.100  0.00  0.00    +0.150 A 
ENDROOT
BRANCH  10  19
ATOM     19  C   LIG    1       -1.740   0.893  -6.852  0.00  0.00    +0.270 C 
ATOM     20  N   LIG    1       -1.903   0.128  -7.675  0.00  0.00    -0.420 NA
ENDBRANCH  10  19
BRANCH   8  21
ATOM     21  C   LIG    1        0.032   1.773  -2.424  0.00  0.00    +0.330 C 
BRANCH  21  22
ATOM     22  C   LIG    1       -0.844   1.640  -1.177  0.00  0.00    +0.150 C 
ATOM     23  C   LIG    1       -0.013   1.086   0.008  0.00  0.00    +0.010 C 
ATOM     24  C   LIG    1       -0.823   1.628   1.217  0.00  0.00    +0.010 C 
ATOM     25  C   LIG    1       -1.334   2.985   0.686  0.00  0.00    +0.180 C 
ATOM     26  O   LIG    1       -1.297   2.933  -0.745  0.00  0.00    -0.350 OA
ENDBRANCH  21  22
ENDBRANCH   8  21
TORSDOF 3
