REMARK  Name = ZINCpe000000YZOq.0
REMARK                            x       y       z     vdW  Elec       q    Type
REMARK                         _______ _______ _______ _____ _____    ______ ____
ROOT
ATOM      1  O   LIG    1       -1.035   1.912   2.360  0.00  0.00    -0.450 OA
ATOM      2  C   LIG    1       -1.727   2.301   1.444  0.00  0.00    +0.510 C 
ATOM      3  N   LIG    1       -2.883   2.946   1.699  0.00  0.00    -0.690 N 
ATOM      4  H   LIG    1       -3.437   3.257   0.966  0.00  0.00    +0.410 HD
ATOM      5  C   LIG    1       -3.269   3.158   2.973  0.00  0.00    +0.700 C 
ATOM      6  N   LIG    1       -4.425   3.803   3.228  0.00  0.00    -0.730 N 
ATOM      7  H   LIG    1       -4.979   4.114   2.495  0.00  0.00    +0.400 HD
ATOM      8  O   LIG    1       -2.575   2.768   3.891  0.00  0.00    -0.530 OA
ENDROOT
BRANCH   6   9
ATOM      9  C   LIG    1       -4.845   4.033   4.612  0.00  0.00    +0.340 C 
BRANCH   9  10
ATOM     10  C   LIG    1       -6.160   4.768   4.623  0.00  0.00    -0.110 A 
ATOM     11  C   LIG    1       -6.180   6.150   4.636  0.00  0.00    +0.030 A 
ATOM     12  C   LIG    1       -7.387   6.824   4.640  0.00  0.00    +0.010 A 
ATOM     13  C   LIG    1       -8.574   6.115   4.642  0.00  0.00    +0.010 A 
ATOM     14  C   LIG    1       -8.555   4.733   4.634  0.00  0.00    +0.010 A 
ATOM     15  C   LIG    1       -7.348   4.059   4.624  0.00  0.00    +0.020 A 
ENDBRANCH   9  10
ENDBRANCH   6   9
BRANCH   2  16
ATOM     16  C   LIG    1       -1.295   2.064   0.019  0.00  0.00    +0.390 C 
BRANCH  16  17
ATOM     17  N   LIG    1       -0.016   1.350   0.009  0.00  0.00    -0.450 N 
ATOM     18  N   LIG    1        1.183   2.067   0.002  0.00  0.00    +0.090 NA
ATOM     19  N   LIG    1        2.335   1.501  -0.013  0.00  0.00    -0.190 NA
ATOM     20  C   LIG    1        2.472   0.151  -0.021  0.00  0.00    +0.060 A 
ATOM     21  C   LIG    1        3.732  -0.451  -0.036  0.00  0.00    +0.080 A 
ATOM     22  C   LIG    1        3.833  -1.824  -0.045  0.00  0.00    +0.070 A 
ATOM     23  C   LIG    1        2.696  -2.621  -0.039  0.00  0.00    +0.040 A 
ATOM     24  C   LIG    1        1.441  -2.050  -0.023  0.00  0.00    +0.100 A 
ATOM     25  C   LIG    1        1.317  -0.662  -0.014  0.00  0.00    -0.150 A 
ATOM     26  C   LIG    1        0.002  -0.004   0.002  0.00  0.00    +0.540 A 
ATOM     27  O   LIG    1       -1.029  -0.651   0.008  0.00  0.00    -0.500 OA
ENDBRANCH  16  17
ENDBRANCH   2  16
TORSDOF 4
