REMARK  Name = ZINCpk00000xI3GD.0
REMARK                            x       y       z     vdW  Elec       q    Type
REMARK                         _______ _______ _______ _____ _____    ______ ____
ROOT
ATOM      1  C   LIG    1        1.274  -0.455  -0.582  0.00  0.00    +0.390 C 
ATOM      2  C   LIG    1        2.092   0.807  -0.929  0.00  0.00    +0.100 C 
ATOM      3  C   LIG    1        1.474   1.887  -0.002  0.00  0.00    +0.190 C 
ATOM      4  C   LIG    1       -0.018   1.470   0.010  0.00  0.00    +0.270 C 
ATOM      5  N   LIG    1        0.002  -0.004   0.002  0.00  0.00    -1.000 NA
ENDROOT
BRANCH   1  10
ATOM      6  C   LIG    1        1.348  -3.959  -4.159  0.00  0.00    +0.210 C 
ATOM      7  C   LIG    1        1.030  -2.727  -3.351  0.00  0.00    +0.170 A 
ATOM      8  N   LIG    1        0.185  -1.794  -3.672  0.00  0.00    -0.380 NA
ATOM      9  O   LIG    1        0.154  -0.941  -2.810  0.00  0.00    +0.080 OA
ATOM     10  C   LIG    1        1.009  -1.254  -1.832  0.00  0.00    +0.140 A 
ATOM     11  N   LIG    1        1.569  -2.392  -2.165  0.00  0.00    -0.450 NA
ENDBRANCH   1  10
BRANCH   5  12
ATOM     12  S   LIG    1       -1.208  -0.989   0.558  0.00  0.00    +2.620 S 
ATOM     13  O   LIG    1       -1.880  -0.202   1.532  0.00  0.00    -0.940 OA
ATOM     14  O   LIG    1       -0.543  -2.192   0.919  0.00  0.00    -0.930 OA
BRANCH  12  15
ATOM     15  C   LIG    1       -2.272  -1.258  -0.886  0.00  0.00    -0.370 C 
BRANCH  15  16
ATOM     16  C   LIG    1       -3.441  -2.165  -0.496  0.00  0.00    +0.020 C 
ATOM     17  C   LIG    1       -2.910  -3.550  -0.121  0.00  0.00    +0.030 C 
BRANCH  16  18
ATOM     18  C   LIG    1       -4.404  -2.292  -1.678  0.00  0.00    +0.180 C 
BRANCH  18  19
ATOM     19  O   LIG    1       -5.553  -3.041  -1.278  0.00  0.00    -0.380 OA
BRANCH  19  20
ATOM     20  C   LIG    1       -6.521  -3.219  -2.314  0.00  0.00    +0.140 C 
ATOM     21  C   LIG    1       -7.568  -2.087  -2.259  0.00  0.00    +0.000 C 
ATOM     22  C   LIG    1       -8.902  -2.786  -2.624  0.00  0.00    +0.020 C 
ATOM     23  C   LIG    1       -8.771  -4.161  -1.923  0.00  0.00    +0.020 C 
ATOM     24  C   LIG    1       -7.285  -4.537  -2.102  0.00  0.00    +0.030 C 
ENDBRANCH  19  20
ENDBRANCH  18  19
ENDBRANCH  16  18
ENDBRANCH  15  16
ENDBRANCH  12  15
ENDBRANCH   5  12
BRANCH   3  25
ATOM     25  O   LIG    1        2.036   1.818   1.310  0.00  0.00    -0.550 OA
ATOM     26  H   LIG    1        1.613   2.407   1.950  0.00  0.00    +0.390 HD
ENDBRANCH   3  25
TORSDOF 8
