REMARK  Name = ZINCpk00000eapsV.0
REMARK                            x       y       z     vdW  Elec       q    Type
REMARK                         _______ _______ _______ _____ _____    ______ ____
ROOT
ATOM      1  N   LIG    1       -2.924   1.061   1.463  0.00  0.00    -0.530 NA
ATOM      2  C   LIG    1       -2.241   0.112   2.353  0.00  0.00    +0.190 C 
ATOM      3  C   LIG    1       -2.828   0.223   3.762  0.00  0.00    +0.190 C 
ATOM      4  N   LIG    1       -4.271  -0.053   3.711  0.00  0.00    -0.520 NA
ATOM      5  C   LIG    1       -4.955   0.896   2.821  0.00  0.00    +0.190 C 
ATOM      6  C   LIG    1       -4.367   0.785   1.413  0.00  0.00    +0.190 C 
ENDROOT
BRANCH   1   7
ATOM      7  C   LIG    1       -2.337   1.038   0.117  0.00  0.00    +0.240 C 
BRANCH   7  12
ATOM      8  C   LIG    1        1.440   1.168   0.136  0.00  0.00    +0.140 A 
ATOM      9  C   LIG    1        1.667   2.529   0.281  0.00  0.00    -0.060 A 
ATOM     10  C   LIG    1        0.600   3.400   0.376  0.00  0.00    +0.090 A 
ATOM     11  C   LIG    1       -0.695   2.917   0.327  0.00  0.00    -0.110 A 
ATOM     12  C   LIG    1       -0.924   1.561   0.177  0.00  0.00    -0.010 A 
ATOM     13 BR   LIG    1       -2.155   4.112   0.456  0.00  0.00    -0.040 Br
ATOM     14  C   LIG    1        0.140   0.685   0.087  0.00  0.00    +0.000 A 
BRANCH   8  16
ATOM     15  C   LIG    1        3.799   0.876   0.100  0.00  0.00    +0.240 C 
ATOM     16  O   LIG    1        2.489   0.309   0.042  0.00  0.00    -0.310 OA
ENDBRANCH   8  16
ENDBRANCH   7  12
ENDBRANCH   1   7
BRANCH   4  17
ATOM     17  C   LIG    1       -4.859  -0.030   5.057  0.00  0.00    +0.210 C 
BRANCH  17  18
ATOM     18  C   LIG    1       -6.270  -0.556   4.998  0.00  0.00    +0.520 C 
ATOM     19  N   LIG    1       -7.052  -0.512   6.095  0.00  0.00    -0.620 N 
ATOM     20  C   LIG    1       -6.548   0.040   7.362  0.00  0.00    +0.240 C 
ATOM     21  C   LIG    1       -7.568   1.070   7.875  0.00  0.00    +0.220 C 
ATOM     22  O   LIG    1       -8.863   0.468   7.915  0.00  0.00    -0.380 OA
ATOM     23  C   LIG    1       -9.358   0.057   6.638  0.00  0.00    +0.220 C 
ATOM     24  C   LIG    1       -8.432  -1.020   6.062  0.00  0.00    +0.260 C 
ATOM     25  O   LIG    1       -6.701  -1.020   3.964  0.00  0.00    -0.520 OA
ENDBRANCH  17  18
ENDBRANCH   4  17
TORSDOF 5
