REMARK  Name = ZINCrg000000sce4.0
REMARK                            x       y       z     vdW  Elec       q    Type
REMARK                         _______ _______ _______ _____ _____    ______ ____
ROOT
ATOM      1  C   LIG    1       -3.727   4.354   8.546  0.00  0.00    +0.130 C 
ATOM      2  C   LIG    1       -3.644   2.850   8.555  0.00  0.00    +0.040 A 
ATOM      3  C   LIG    1       -4.472   2.117   9.379  0.00  0.00    -0.010 A 
ATOM      4  C   LIG    1       -4.394   0.736   9.393  0.00  0.00    +0.160 A 
ATOM      5  C   LIG    1       -3.488   0.080   8.579  0.00  0.00    -0.690 A 
ATOM      6  C   LIG    1       -2.657   0.801   7.746  0.00  0.00    +0.160 A 
ATOM      7  C   LIG    1       -2.731   2.194   7.726  0.00  0.00    -0.160 A 
ENDROOT
BRANCH   7   8
ATOM      8  C   LIG    1       -1.844   2.973   6.837  0.00  0.00    +0.560 C 
ATOM      9  N   LIG    1       -0.930   2.340   6.074  0.00  0.00    -0.640 N 
ATOM     10  H   LIG    1       -0.855   1.374   6.109  0.00  0.00    +0.410 HD
ATOM     11  O   LIG    1       -1.938   4.184   6.793  0.00  0.00    -0.510 OA
BRANCH   9  12
ATOM     12  C   LIG    1       -0.086   3.081   5.228  0.00  0.00    +0.000 A 
ATOM     13  C   LIG    1        0.873   2.574   4.411  0.00  0.00    +0.200 A 
ATOM     14  N   LIG    1        1.457   3.617   3.768  0.00  0.00    -0.360 N 
ATOM     15  N   LIG    1        0.841   4.795   4.209  0.00  0.00    -0.250 NA
ATOM     16  C   LIG    1       -0.085   4.476   5.077  0.00  0.00    +0.260 A 
BRANCH  14  17
ATOM     17  C   LIG    1        2.544   3.527   2.789  0.00  0.00    +0.370 C 
BRANCH  17  18
ATOM     18  C   LIG    1        2.130   4.215   1.514  0.00  0.00    +0.500 C 
ATOM     19  O   LIG    1        1.035   4.730   1.430  0.00  0.00    -0.510 OA
ATOM     20  N   LIG    1        2.977   4.259   0.466  0.00  0.00    -0.850 N 
ATOM     21  H   LIG    1        2.711   4.702  -0.355  0.00  0.00    +0.410 HD
ATOM     22  H   LIG    1        3.853   3.847   0.533  0.00  0.00    +0.400 HD
ENDBRANCH  17  18
ENDBRANCH  14  17
ENDBRANCH   9  12
ENDBRANCH   7   8
BRANCH   5  23
ATOM     23  S   LIG    1       -3.395  -1.679   8.604  0.00  0.00    +2.700 S 
ATOM     24  O   LIG    1       -3.041  -2.082   7.289  0.00  0.00    -0.960 OA
ATOM     25  O   LIG    1       -4.568  -2.133   9.267  0.00  0.00    -0.950 OA
BRANCH  23  26
ATOM     26  N   LIG    1       -2.120  -2.089   9.578  0.00  0.00    -1.110 NA
ATOM     27  H   LIG    1       -1.323  -2.486   9.193  0.00  0.00    +0.420 HD
BRANCH  26  28
ATOM     28  C   LIG    1       -2.195  -1.851  11.022  0.00  0.00    +0.180 C 
ATOM     29  C   LIG    1       -2.737  -0.443  11.279  0.00  0.00    +0.020 C 
ATOM     30  C   LIG    1       -0.798  -1.978  11.633  0.00  0.00    +0.040 C 
ATOM     31  C   LIG    1       -3.127  -2.881  11.661  0.00  0.00    +0.040 C 
ENDBRANCH  26  28
ENDBRANCH  23  26
ENDBRANCH   5  23
TORSDOF 7
