REMARK  Name = ZINCqH0000004RK7.0
REMARK                            x       y       z     vdW  Elec       q    Type
REMARK                         _______ _______ _______ _____ _____    ______ ____
ROOT
ATOM      1  N   LIG    1       -1.191   1.866   0.018  0.00  0.00    -0.640 N 
ATOM      2  H   LIG    1       -1.204   2.836   0.023  0.00  0.00    +0.420 HD
ATOM      3  C   LIG    1       -0.014   1.208   0.009  0.00  0.00    +0.520 C 
ATOM      4  O   LIG    1        0.002  -0.004   0.002  0.00  0.00    -0.460 OA
ENDROOT
BRANCH   1  13
ATOM      5  N   LIG    1       -3.626   1.717   0.029  0.00  0.00    -0.500 N 
ATOM      6  C   LIG    1       -4.541   0.679   0.027  0.00  0.00    +0.050 A 
ATOM      7  C   LIG    1       -5.927   0.619   0.034  0.00  0.00    +0.010 A 
ATOM      8  C   LIG    1       -6.561  -0.607   0.030  0.00  0.00    +0.030 A 
ATOM      9  C   LIG    1       -5.821  -1.780   0.021  0.00  0.00    +0.010 A 
ATOM     10  C   LIG    1       -4.445  -1.739   0.015  0.00  0.00    +0.060 A 
ATOM     11  C   LIG    1       -3.788  -0.507   0.017  0.00  0.00    +0.060 A 
ATOM     12  N   LIG    1       -2.478  -0.147   0.007  0.00  0.00    -0.470 NA
ATOM     13  C   LIG    1       -2.380   1.158   0.020  0.00  0.00    +0.500 A 
BRANCH   5  15
ATOM     14  C   LIG    1       -4.050   3.655  -1.401  0.00  0.00    +0.040 C 
ATOM     15  C   LIG    1       -3.935   3.149   0.038  0.00  0.00    +0.290 C 
ENDBRANCH   5  15
ENDBRANCH   1  13
BRANCH   3  16
ATOM     16  C   LIG    1        1.280   1.980   0.001  0.00  0.00    +0.090 C 
BRANCH  16  17
ATOM     17  C   LIG    1        2.457   1.001  -0.016  0.00  0.00    +0.230 C 
BRANCH  17  18
ATOM     18  C   LIG    1        3.751   1.772  -0.024  0.00  0.00    +0.190 A 
ATOM     19  N   LIG    1        4.426   2.169   1.025  0.00  0.00    -0.470 NA
ATOM     20  C   LIG    1        5.512   2.814   0.537  0.00  0.00    +0.240 A 
ATOM     21  N   LIG    1        5.426   2.778  -0.770  0.00  0.00    -0.370 NA
ATOM     22  O   LIG    1        4.422   2.185  -1.105  0.00  0.00    +0.090 OA
BRANCH  20  23
ATOM     23  C   LIG    1        6.587   3.446   1.329  0.00  0.00    -0.140 A 
ATOM     24  C   LIG    1        7.659   4.083   0.817  0.00  0.00    +0.060 A 
ATOM     25  C   LIG    1        8.528   4.597   1.756  0.00  0.00    +0.010 A 
ATOM     26  C   LIG    1        8.181   4.376   3.029  0.00  0.00    -0.030 A 
ATOM     27  S   LIG    1        6.671   3.476   3.086  0.00  0.00    +0.190 S 
ENDBRANCH  20  23
ENDBRANCH  17  18
ENDBRANCH  16  17
ENDBRANCH   3  16
TORSDOF 6
