REMARK  Name = ZINCAx0000000iTw.1
REMARK                            x       y       z     vdW  Elec       q    Type
REMARK                         _______ _______ _______ _____ _____    ______ ____
ROOT
ATOM      1  C   LIG    1       -4.860   2.353  -3.928  0.00  0.00    +0.050 C 
ATOM      2  C   LIG    1       -4.021   1.901  -2.760  0.00  0.00    +0.260 C 
ATOM      3  N   LIG    1       -4.525   1.151  -1.838  0.00  0.00    -0.480 NA
ATOM      4  C   LIG    1       -5.796   0.721  -1.892  0.00  0.00    +0.660 C 
ATOM      5  N   LIG    1       -6.511   0.793  -3.029  0.00  0.00    -0.740 N 
ATOM      6  H   LIG    1       -7.447   0.539  -3.029  0.00  0.00    +0.420 HD
ATOM      7  O   LIG    1       -6.311   0.256  -0.893  0.00  0.00    -0.500 OA
ATOM      8  C   LIG    1       -5.878   1.256  -4.268  0.00  0.00    +0.330 C 
ENDROOT
BRANCH   8   9
ATOM      9  C   LIG    1       -5.180   0.102  -4.939  0.00  0.00    -0.130 A 
ATOM     10  C   LIG    1       -4.481  -0.819  -4.181  0.00  0.00    +0.000 A 
ATOM     11  C   LIG    1       -3.845  -1.881  -4.797  0.00  0.00    -0.010 A 
ATOM     12  C   LIG    1       -3.899  -2.016  -6.171  0.00  0.00    +0.020 A 
ATOM     13  C   LIG    1       -4.594  -1.093  -6.930  0.00  0.00    -0.010 A 
ATOM     14  C   LIG    1       -5.234  -0.034  -6.314  0.00  0.00    +0.090 A 
ENDBRANCH   8   9
BRANCH   1  15
ATOM     15  C   LIG    1       -3.971   2.599  -5.119  0.00  0.00    +0.470 C 
ATOM     16  O   LIG    1       -4.138   1.972  -6.138  0.00  0.00    -0.460 OA
BRANCH  15  17
ATOM     17  O   LIG    1       -2.994   3.517  -5.049  0.00  0.00    -0.360 OA
BRANCH  17  19
ATOM     18  C   LIG    1       -1.124   4.779  -5.966  0.00  0.00    +0.060 C 
ATOM     19  C   LIG    1       -2.176   3.702  -6.235  0.00  0.00    +0.220 C 
ENDBRANCH  17  19
ENDBRANCH  15  17
ENDBRANCH   1  15
BRANCH   2  20
ATOM     20  C   LIG    1       -2.581   2.336  -2.663  0.00  0.00    +0.330 C 
BRANCH  20  21
ATOM     21  O   LIG    1       -1.989   1.784  -1.457  0.00  0.00    -0.320 OA
BRANCH  21  22
ATOM     22  C   LIG    1       -0.701   2.079  -1.221  0.00  0.00    +0.480 C 
ATOM     23  O   LIG    1       -0.089   2.775  -1.996  0.00  0.00    -0.490 OA
BRANCH  22  24
ATOM     24  C   LIG    1       -0.019   1.542   0.011  0.00  0.00    +0.040 C 
ATOM     25  C   LIG    1        0.002  -0.004   0.002  0.00  0.00    +0.090 C 
ATOM     26  C   LIG    1        1.344  -0.360   0.603  0.00  0.00    +0.520 C 
ATOM     27  N   LIG    1        2.154   0.712   0.592  0.00  0.00    -0.610 N 
ATOM     28  O   LIG    1        1.645  -1.454   1.030  0.00  0.00    -0.520 OA
ATOM     29  C   LIG    1        1.489   1.878  -0.002  0.00  0.00    +0.300 C 
BRANCH  27  30
ATOM     30  C   LIG    1        3.525   0.718   1.109  0.00  0.00    +0.350 C 
BRANCH  30  31
ATOM     31  C   LIG    1        4.479   0.341   0.005  0.00  0.00    -0.120 A 
ATOM     32  C   LIG    1        4.813  -0.985  -0.198  0.00  0.00    +0.040 A 
ATOM     33  C   LIG    1        5.685  -1.331  -1.213  0.00  0.00    +0.000 A 
ATOM     34  C   LIG    1        6.231  -0.350  -2.020  0.00  0.00    -0.080 A 
ATOM     35  C   LIG    1        5.901   0.977  -1.814  0.00  0.00    +0.000 A 
ATOM     36  C   LIG    1        7.185  -0.726  -3.123  0.00  0.00    +0.090 C 
ATOM     37  C   LIG    1        5.026   1.322  -0.801  0.00  0.00    +0.020 A 
ENDBRANCH  30  31
ENDBRANCH  27  30
ENDBRANCH  22  24
ENDBRANCH  21  22
ENDBRANCH  20  21
ENDBRANCH   2  20
TORSDOF 10
