REMARK  Name = ZINCAx0000000iTw.0
REMARK                            x       y       z     vdW  Elec       q    Type
REMARK                         _______ _______ _______ _____ _____    ______ ____
ROOT
ATOM      1  C   LIG    1        5.401  -1.261   4.822  0.00  0.00    -0.220 C 
ATOM      2  C   LIG    1        4.093  -1.395   4.512  0.00  0.00    +0.210 C 
ATOM      3  N   LIG    1        3.496  -2.623   4.490  0.00  0.00    -0.640 N 
ATOM      4  H   LIG    1        2.555  -2.670   4.258  0.00  0.00    +0.430 HD
ATOM      5  C   LIG    1        4.136  -3.765   4.771  0.00  0.00    +0.710 C 
ATOM      6  N   LIG    1        5.442  -3.792   5.103  0.00  0.00    -0.710 N 
ATOM      7  H   LIG    1        5.886  -4.631   5.303  0.00  0.00    +0.440 HD
ATOM      8  O   LIG    1        3.519  -4.811   4.725  0.00  0.00    -0.560 OA
ATOM      9  C   LIG    1        6.179  -2.518   5.155  0.00  0.00    +0.340 C 
ENDROOT
BRANCH   9  10
ATOM     10  C   LIG    1        6.744  -2.364   6.543  0.00  0.00    -0.120 A 
ATOM     11  C   LIG    1        5.988  -2.731   7.641  0.00  0.00    +0.030 A 
ATOM     12  C   LIG    1        6.508  -2.595   8.915  0.00  0.00    +0.000 A 
ATOM     13  C   LIG    1        7.780  -2.083   9.091  0.00  0.00    +0.010 A 
ATOM     14  C   LIG    1        8.534  -1.711   7.993  0.00  0.00    +0.010 A 
ATOM     15  C   LIG    1        8.016  -1.852   6.719  0.00  0.00    +0.020 A 
ENDBRANCH   9  10
BRANCH   1  16
ATOM     16  C   LIG    1        6.022   0.010   4.840  0.00  0.00    +0.540 C 
ATOM     17  O   LIG    1        6.714   0.362   3.903  0.00  0.00    -0.480 OA
BRANCH  16  18
ATOM     18  O   LIG    1        5.847   0.832   5.896  0.00  0.00    -0.340 OA
BRANCH  18  20
ATOM     19  C   LIG    1        6.190   2.886   7.122  0.00  0.00    +0.070 C 
ATOM     20  C   LIG    1        6.504   2.100   5.847  0.00  0.00    +0.200 C 
ENDBRANCH  18  20
ENDBRANCH  16  18
ENDBRANCH   1  16
BRANCH   2  21
ATOM     21  C   LIG    1        3.281  -0.169   4.180  0.00  0.00    +0.300 C 
BRANCH  21  22
ATOM     22  O   LIG    1        2.852  -0.234   2.795  0.00  0.00    -0.350 OA
BRANCH  22  23
ATOM     23  C   LIG    1        2.113   0.788   2.337  0.00  0.00    +0.470 C 
ATOM     24  O   LIG    1        1.834   1.708   3.070  0.00  0.00    -0.480 OA
BRANCH  23  25
ATOM     25  C   LIG    1        1.631   0.790   0.909  0.00  0.00    +0.040 C 
ATOM     26  C   LIG    1        0.708  -0.420   0.635  0.00  0.00    +0.090 C 
ATOM     27  C   LIG    1       -0.686   0.113   0.882  0.00  0.00    +0.510 C 
ATOM     28  N   LIG    1       -0.672   1.457   0.890  0.00  0.00    -0.610 N 
ATOM     29  O   LIG    1       -1.672  -0.573   1.050  0.00  0.00    -0.520 OA
ATOM     30  C   LIG    1        0.678   1.978   0.648  0.00  0.00    +0.300 C 
BRANCH  28  31
ATOM     31  C   LIG    1       -1.855   2.295   1.106  0.00  0.00    +0.350 C 
BRANCH  31  32
ATOM     32  C   LIG    1       -2.013   2.572   2.579  0.00  0.00    -0.120 A 
ATOM     33  C   LIG    1       -2.764   1.719   3.366  0.00  0.00    +0.030 A 
ATOM     34  C   LIG    1       -2.905   1.971   4.718  0.00  0.00    +0.000 A 
ATOM     35  C   LIG    1       -2.302   3.080   5.281  0.00  0.00    -0.080 A 
ATOM     36  C   LIG    1       -1.554   3.935   4.493  0.00  0.00    +0.000 A 
ATOM     37  C   LIG    1       -2.460   3.357   6.754  0.00  0.00    +0.090 C 
ATOM     38  C   LIG    1       -1.410   3.681   3.142  0.00  0.00    +0.030 A 
ENDBRANCH  31  32
ENDBRANCH  28  31
ENDBRANCH  23  25
ENDBRANCH  22  23
ENDBRANCH  21  22
ENDBRANCH   2  21
TORSDOF 10
