REMARK  Name = ZINCqH0000005gNI.0
REMARK                            x       y       z     vdW  Elec       q    Type
REMARK                         _______ _______ _______ _____ _____    ______ ____
ROOT
ATOM      1  C   LIG    1       -0.018   1.461   0.010  0.00  0.00    +0.290 C 
ATOM      2  N   LIG    1        0.002  -0.004   0.002  0.00  0.00    -0.630 N 
ATOM      3  C   LIG    1        0.022  -0.684   1.165  0.00  0.00    +0.710 C 
ATOM      4  N   LIG    1        0.024  -0.017   2.336  0.00  0.00    -0.740 N 
ATOM      5  H   LIG    1        0.011   0.953   2.342  0.00  0.00    +0.400 HD
ATOM      6  O   LIG    1        0.039  -1.900   1.159  0.00  0.00    -0.580 OA
ENDROOT
BRANCH   4   7
ATOM      7  C   LIG    1        0.046  -0.756   3.601  0.00  0.00    +0.460 C 
BRANCH   7   8
ATOM      8  C   LIG    1        0.044   0.195   4.725  0.00  0.00    -0.180 C 
ATOM      9  C   LIG    1        0.042   0.953   5.621  0.00  0.00    -0.110 C 
BRANCH   9  10
ATOM     10  C   LIG    1        0.040   1.877   6.715  0.00  0.00    +0.010 A 
ATOM     11  C   LIG    1        0.025   3.251   6.471  0.00  0.00    +0.030 A 
ATOM     12  C   LIG    1        0.018   4.137   7.529  0.00  0.00    +0.010 A 
ATOM     13  C   LIG    1        0.037   3.665   8.829  0.00  0.00    +0.020 A 
ATOM     14  C   LIG    1        0.057   2.304   9.078  0.00  0.00    +0.010 A 
ATOM     15  C   LIG    1        0.059   1.408   8.029  0.00  0.00    +0.040 A 
ENDBRANCH   9  10
ENDBRANCH   7   8
ENDBRANCH   4   7
BRANCH   2  16
ATOM     16  C   LIG    1       -0.000  -0.730  -1.271  0.00  0.00    +0.360 C 
BRANCH  16  17
ATOM     17  C   LIG    1        1.420  -0.959  -1.720  0.00  0.00    -0.130 A 
ATOM     18  C   LIG    1        2.048  -0.026  -2.525  0.00  0.00    +0.070 A 
ATOM     19  C   LIG    1        3.352  -0.232  -2.933  0.00  0.00    -0.060 A 
ATOM     20  C   LIG    1        4.026  -1.381  -2.547  0.00  0.00    +0.110 A 
ATOM     21  C   LIG    1        3.391  -2.318  -1.745  0.00  0.00    +0.010 A 
ATOM     22  C   LIG    1        2.090  -2.105  -1.333  0.00  0.00    +0.090 A 
BRANCH  20  23
ATOM     23  O   LIG    1        5.306  -1.588  -2.953  0.00  0.00    -0.310 OA
BRANCH  23  24
ATOM     24  C   LIG    1        5.896  -0.581  -3.777  0.00  0.00    +0.600 C 
ATOM     25  F   LIG    1        5.148  -0.440  -4.951  0.00  0.00    -0.160 F 
ATOM     26  F   LIG    1        7.206  -0.952  -4.101  0.00  0.00    -0.130 F 
ATOM     27  F   LIG    1        5.914   0.636  -3.087  0.00  0.00    -0.170 F 
ENDBRANCH  23  24
ENDBRANCH  20  23
ENDBRANCH  16  17
ENDBRANCH   2  16
TORSDOF 7
