REMARK  Name = ZINCvU00000007M6.0
REMARK                            x       y       z     vdW  Elec       q    Type
REMARK                         _______ _______ _______ _____ _____    ______ ____
ROOT
ATOM      1  C   LIG    1       -0.017   1.506   0.050  0.00  0.00    +0.360 C 
ATOM      2  C   LIG    1        0.003  -0.004   0.039  0.00  0.00    -0.270 A 
ATOM      3  C   LIG    1        1.212  -0.632  -0.015  0.00  0.00    +0.330 A 
ATOM      4  N   LIG    1        0.967  -1.971  -0.015  0.00  0.00    -0.320 N 
ATOM      5  N   LIG    1       -0.421  -2.154   0.041  0.00  0.00    -0.270 NA
ATOM      6  N   LIG    1        2.385   0.110  -0.058  0.00  0.00    -0.640 N 
ATOM      7  H   LIG    1        3.230  -0.365  -0.095  0.00  0.00    +0.420 HD
ATOM      8  C   LIG    1        2.407   1.449  -0.049  0.00  0.00    +0.720 C 
ATOM      9  O   LIG    1        3.482   2.016  -0.089  0.00  0.00    -0.550 OA
ATOM     10  C   LIG    1       -0.994  -0.976   0.072  0.00  0.00    +0.140 A 
ATOM     11  C   LIG    1       -2.477  -0.717   0.135  0.00  0.00    +0.170 C 
ATOM     12  N   LIG    1        1.285   2.192   0.002  0.00  0.00    -0.560 N 
ENDROOT
BRANCH   1  16
ATOM     13  C   LIG    1       -2.040   2.769   3.597  0.00  0.00    +0.130 A 
ATOM     14  C   LIG    1       -2.711   2.754   2.382  0.00  0.00    -0.020 A 
ATOM     15  C   LIG    1       -2.055   2.345   1.237  0.00  0.00    +0.060 A 
ATOM     16  C   LIG    1       -0.731   1.952   1.301  0.00  0.00    -0.130 A 
ATOM     17  C   LIG    1       -0.061   1.961   2.511  0.00  0.00    +0.060 A 
ATOM     18  C   LIG    1       -0.711   2.374   3.658  0.00  0.00    -0.070 A 
BRANCH  13  20
ATOM     19  C   LIG    1       -1.929   3.162   5.939  0.00  0.00    +0.250 C 
ATOM     20  O   LIG    1       -2.683   3.171   4.724  0.00  0.00    -0.320 OA
ENDBRANCH  13  20
ENDBRANCH   1  16
BRANCH   4  21
ATOM     21  C   LIG    1        1.932  -2.986  -0.061  0.00  0.00    +0.150 A 
ATOM     22  C   LIG    1        3.093  -2.809  -0.801  0.00  0.00    -0.010 A 
ATOM     23  C   LIG    1        4.044  -3.810  -0.841  0.00  0.00    +0.050 A 
ATOM     24  C   LIG    1        3.837  -4.991  -0.153  0.00  0.00    +0.010 A 
ATOM     25  C   LIG    1        2.679  -5.173   0.581  0.00  0.00    +0.040 A 
ATOM     26  C   LIG    1        1.726  -4.174   0.628  0.00  0.00    +0.030 A 
ENDBRANCH   4  21
BRANCH  12  27
ATOM     27  C   LIG    1        1.356   3.590   0.009  0.00  0.00    +0.170 A 
ATOM     28  C   LIG    1        0.878   4.316  -1.075  0.00  0.00    +0.020 A 
ATOM     29  C   LIG    1        0.944   5.696  -1.062  0.00  0.00    +0.020 A 
ATOM     30  C   LIG    1        1.496   6.353   0.022  0.00  0.00    +0.020 A 
ATOM     31  C   LIG    1        1.977   5.633   1.100  0.00  0.00    +0.020 A 
ATOM     32  C   LIG    1        1.908   4.253   1.096  0.00  0.00    +0.020 A 
ENDBRANCH  12  27
TORSDOF 4
