REMARK  Name = ZINC9l0000002JX1.0
REMARK                            x       y       z     vdW  Elec       q    Type
REMARK                         _______ _______ _______ _____ _____    ______ ____
ROOT
ATOM      1  C   LIG    1       -1.249   1.912   0.018  0.00  0.00    -0.200 A 
ATOM      2  C   LIG    1       -2.488   1.325   0.021  0.00  0.00    +0.040 A 
ATOM      3  C   LIG    1       -3.517   2.231   0.032  0.00  0.00    -0.030 A 
ATOM      4  C   LIG    1       -3.140   3.521   0.037  0.00  0.00    -0.090 A 
ATOM      5  F   LIG    1       -3.994   4.568   0.049  0.00  0.00    -0.120 F 
ATOM      6  S   LIG    1       -1.440   3.659   0.036  0.00  0.00    +0.210 S 
ENDROOT
BRANCH   1   8
ATOM      7  O   LIG    1        0.002  -0.004   0.002  0.00  0.00    -0.670 OA
ATOM      8  C   LIG    1       -0.015   1.221   0.009  0.00  0.00    +0.540 C 
ATOM      9  O   LIG    1        1.038   1.848   0.002  0.00  0.00    -0.680 OA
ENDBRANCH   1   8
TORSDOF 1
