REMARK  Name = ZINCvU00000007cS.0
REMARK                            x       y       z     vdW  Elec       q    Type
REMARK                         _______ _______ _______ _____ _____    ______ ____
ROOT
ATOM      1  C   LIG    1        1.667   1.548  -7.100  0.00  0.00    +0.100 C 
ATOM      2  C   LIG    1        0.257   1.017  -7.145  0.00  0.00    -0.130 A 
ATOM      3  C   LIG    1       -0.356   0.793  -8.358  0.00  0.00    +0.100 A 
ATOM      4  C   LIG    1       -1.662   0.301  -8.399  0.00  0.00    -0.070 A 
ATOM      5  C   LIG    1       -2.343   0.037  -7.208  0.00  0.00    +0.060 A 
ATOM      6  C   LIG    1       -1.722   0.258  -5.998  0.00  0.00    +0.030 A 
ATOM      7  C   LIG    1       -0.424   0.754  -5.961  0.00  0.00    +0.200 A 
ENDROOT
BRANCH   4   8
ATOM      8  C   LIG    1       -2.322   0.059  -9.698  0.00  0.00    +0.180 A 
ATOM      9  N   LIG    1       -1.783   0.276 -10.851  0.00  0.00    -0.470 NA
ATOM     10  C   LIG    1       -2.510   0.003 -11.948  0.00  0.00    +0.120 A 
ATOM     11  C   LIG    1       -2.149   0.148 -13.306  0.00  0.00    +0.040 A 
ATOM     12  C   LIG    1       -3.038  -0.180 -14.300  0.00  0.00    +0.120 A 
ATOM     13  C   LIG    1       -4.304  -0.660 -13.986  0.00  0.00    +0.010 A 
ATOM     14  C   LIG    1       -4.677  -0.809 -12.669  0.00  0.00    +0.100 A 
ATOM     15  F   LIG    1       -2.679  -0.035 -15.594  0.00  0.00    -0.130 F 
ATOM     16  C   LIG    1       -3.789  -0.481 -11.648  0.00  0.00    -0.190 A 
ATOM     17  S   LIG    1       -3.957  -0.556  -9.895  0.00  0.00    +0.080 S 
ENDBRANCH   4   8
BRANCH   7  18
ATOM     18  N   LIG    1        0.200   0.982  -4.732  0.00  0.00    -0.680 N 
ATOM     19  H   LIG    1        1.168   0.973  -4.671  0.00  0.00    +0.410 HD
ATOM     20  C   LIG    1       -0.543   1.215  -3.632  0.00  0.00    +0.700 C 
ATOM     21  N   LIG    1        0.052   1.323  -2.428  0.00  0.00    -0.730 N 
ATOM     22  H   LIG    1        1.015   1.233  -2.353  0.00  0.00    +0.400 HD
ATOM     23  O   LIG    1       -1.750   1.328  -3.727  0.00  0.00    -0.560 OA
BRANCH  21  24
ATOM     24  C   LIG    1       -0.755   1.576  -1.232  0.00  0.00    +0.340 C 
ATOM     25  C   LIG    1       -0.019   1.055   0.008  0.00  0.00    +0.020 C 
ATOM     26  C   LIG    1       -0.734   1.544   1.270  0.00  0.00    +0.040 C 
ATOM     27  C   LIG    1       -0.524   3.056   1.424  0.00  0.00    +0.110 C 
ATOM     28  C   LIG    1       -0.865   3.719   0.113  0.00  0.00    +0.090 A 
ATOM     29  N   LIG    1       -1.116   5.019  -0.116  0.00  0.00    -0.370 N 
ATOM     30  C   LIG    1       -1.108   6.089   0.885  0.00  0.00    +0.360 C 
ATOM     31  N   LIG    1       -1.389   5.168  -1.484  0.00  0.00    -0.300 NA
ATOM     32  C   LIG    1       -1.300   3.990  -2.052  0.00  0.00    +0.260 A 
ATOM     33  C   LIG    1       -0.970   3.060  -1.069  0.00  0.00    -0.260 A 
ENDBRANCH  21  24
ENDBRANCH   7  18
TORSDOF 3
