REMARK  Name = ZINCrg000000mSyK.0
REMARK                            x       y       z     vdW  Elec       q    Type
REMARK                         _______ _______ _______ _____ _____    ______ ____
ROOT
ATOM      1  C   LIG    1        2.566   5.654   0.106  0.00  0.00    -0.150 A 
ATOM      2  C   LIG    1        1.340   6.316   0.009  0.00  0.00    +0.130 A 
ATOM      3  C   LIG    1        1.308   7.692  -0.078  0.00  0.00    +0.020 A 
ATOM      4  C   LIG    1        2.488   8.416  -0.080  0.00  0.00    +0.080 A 
ATOM      5  C   LIG    1        3.707   7.765   0.011  0.00  0.00    -0.680 A 
ATOM      6 CL   LIG    1        2.439  10.148  -0.197  0.00  0.00    -0.030 Cl
ATOM      7  C   LIG    1        3.752   6.390   0.104  0.00  0.00    +0.220 A 
ENDROOT
BRANCH   1  10
ATOM      8  N   LIG    1        1.460   3.472   0.207  0.00  0.00    -0.720 N 
ATOM      9  H   LIG    1        0.608   3.930   0.144  0.00  0.00    +0.400 HD
ATOM     10  C   LIG    1        2.607   4.180   0.205  0.00  0.00    +0.560 C 
ATOM     11  O   LIG    1        3.676   3.606   0.285  0.00  0.00    -0.520 OA
BRANCH   8  12
ATOM     12  C   LIG    1        1.502   2.011   0.306  0.00  0.00    +0.270 C 
BRANCH  12  13
ATOM     13  C   LIG    1        0.075   1.458   0.286  0.00  0.00    +0.270 C 
BRANCH  13  16
ATOM     14  C   LIG    1       -0.988  -2.213   0.488  0.00  0.00    +0.100 C 
ATOM     15  C   LIG    1       -1.031  -0.711   0.387  0.00  0.00    +0.510 C 
ATOM     16  N   LIG    1        0.116  -0.003   0.385  0.00  0.00    -0.730 N 
ATOM     17  H   LIG    1        0.969  -0.461   0.449  0.00  0.00    +0.410 HD
ATOM     18  O   LIG    1       -2.097  -0.138   0.307  0.00  0.00    -0.540 OA
ENDBRANCH  13  16
ENDBRANCH  12  13
ENDBRANCH   8  12
ENDBRANCH   1  10
BRANCH   5  19
ATOM     19  S   LIG    1        5.203   8.696   0.008  0.00  0.00    +2.690 S 
ATOM     20  O   LIG    1        6.262   7.753   0.110  0.00  0.00    -0.940 OA
ATOM     21  O   LIG    1        5.017   9.758   0.933  0.00  0.00    -0.930 OA
BRANCH  19  22
ATOM     22  N   LIG    1        5.342   9.396  -1.486  0.00  0.00    -0.990 NA
ATOM     23  C   LIG    1        4.904  10.782  -1.717  0.00  0.00    +0.280 C 
ATOM     24  C   LIG    1        6.049  11.537  -2.411  0.00  0.00    +0.140 C 
ATOM     25  O   LIG    1        6.463  10.802  -3.566  0.00  0.00    -0.370 OA
ATOM     26  C   LIG    1        6.992   9.506  -3.276  0.00  0.00    +0.200 C 
ATOM     27  C   LIG    1        8.178   9.640  -2.317  0.00  0.00    +0.020 C 
ATOM     28  C   LIG    1        5.561  12.923  -2.836  0.00  0.00    +0.070 C 
ATOM     29  C   LIG    1        5.901   8.649  -2.624  0.00  0.00    +0.270 C 
ENDBRANCH  19  22
ENDBRANCH   5  19
TORSDOF 6
