REMARK  Name = ZINCtV00001bB3lK.0
REMARK                            x       y       z     vdW  Elec       q    Type
REMARK                         _______ _______ _______ _____ _____    ______ ____
ROOT
ATOM      1  N   LIG    1       -0.721   1.544   1.256  0.00  0.00    -0.560 N 
ATOM      2  C   LIG    1       -1.511   0.672   1.913  0.00  0.00    +0.510 C 
ATOM      3  O   LIG    1       -1.903  -0.331   1.355  0.00  0.00    -0.490 OA
ENDROOT
BRANCH   1  10
ATOM      4  C   LIG    1        2.946   6.895   2.187  0.00  0.00    +0.040 C 
ATOM      5  C   LIG    1        2.525   6.178   3.472  0.00  0.00    -0.060 C 
ATOM      6  C   LIG    1        1.011   6.343   3.721  0.00  0.00    +0.090 C 
ATOM      7  C   LIG    1        0.368   5.142   3.061  0.00  0.00    -0.080 A 
ATOM      8  C   LIG    1       -0.949   4.920   2.691  0.00  0.00    +0.040 A 
ATOM      9  C   LIG    1       -1.312   3.733   2.088  0.00  0.00    +0.010 A 
ATOM     10  C   LIG    1       -0.357   2.752   1.861  0.00  0.00    +0.120 A 
ATOM     11  C   LIG    1        0.962   2.975   2.232  0.00  0.00    +0.030 A 
ATOM     12  C   LIG    1        1.323   4.168   2.831  0.00  0.00    -0.080 A 
ATOM     13  C   LIG    1        3.331   6.687   4.669  0.00  0.00    +0.040 C 
ATOM     14  C   LIG    1        2.672   4.650   3.322  0.00  0.00    +0.090 C 
ENDBRANCH   1  10
BRANCH   2  15
ATOM     15  C   LIG    1       -1.908   0.943   3.341  0.00  0.00    +0.180 C 
ATOM     16 CL   LIG    1       -2.826  -0.467   3.988  0.00  0.00    -0.130 Cl
ENDBRANCH   2  15
BRANCH   1  17
ATOM     17  C   LIG    1       -0.244   1.228  -0.093  0.00  0.00    +0.430 C 
BRANCH  17  18
ATOM     18  C   LIG    1       -1.230   1.743  -1.109  0.00  0.00    -0.030 A 
ATOM     19  C   LIG    1       -1.209   2.967  -1.673  0.00  0.00    -0.030 A 
ATOM     20  C   LIG    1       -2.302   3.031  -2.560  0.00  0.00    -0.040 A 
ATOM     21  C   LIG    1       -2.937   1.831  -2.487  0.00  0.00    +0.030 A 
ATOM     22  O   LIG    1       -2.272   1.058  -1.606  0.00  0.00    -0.150 OA
BRANCH  21  23
ATOM     23  C   LIG    1       -4.143   1.440  -3.246  0.00  0.00    -0.000 A 
ATOM     24  C   LIG    1       -4.697   0.170  -3.076  0.00  0.00    +0.040 A 
ATOM     25  C   LIG    1       -5.823  -0.189  -3.788  0.00  0.00    +0.040 A 
ATOM     26  C   LIG    1       -6.405   0.706  -4.667  0.00  0.00    +0.040 A 
ATOM     27  C   LIG    1       -5.861   1.968  -4.840  0.00  0.00    -0.030 A 
ATOM     28 CL   LIG    1       -6.599   3.085  -5.945  0.00  0.00    -0.060 Cl
ATOM     29  C   LIG    1       -4.737   2.341  -4.131  0.00  0.00    +0.050 A 
ENDBRANCH  21  23
ENDBRANCH  17  18
ENDBRANCH   1  17
TORSDOF 5
