REMARK  Name = ZINCrH000004ktqz.0
REMARK                            x       y       z     vdW  Elec       q    Type
REMARK                         _______ _______ _______ _____ _____    ______ ____
ROOT
ATOM      1  N   LIG    1       -2.423   1.050   0.014  0.00  0.00    -0.670 N 
ATOM      2  H   LIG    1       -2.494   0.084   0.066  0.00  0.00    +0.410 HD
ATOM      3  C   LIG    1       -3.536   1.803  -0.085  0.00  0.00    +0.560 C 
ATOM      4  O   LIG    1       -3.453   3.016  -0.068  0.00  0.00    -0.510 OA
ENDROOT
BRANCH   3   5
ATOM      5  C   LIG    1       -4.858   1.154  -0.214  0.00  0.00    -0.120 A 
ATOM      6  C   LIG    1       -5.998   1.933  -0.315  0.00  0.00    +0.160 A 
ATOM      7  C   LIG    1       -7.252   1.311  -0.437  0.00  0.00    +0.070 A 
ATOM      8  N   LIG    1       -8.372   2.035  -0.537  0.00  0.00    -0.420 NA
ATOM      9  C   LIG    1       -9.532   1.429  -0.650  0.00  0.00    +0.110 A 
ATOM     10  C   LIG    1       -9.608   0.035  -0.667  0.00  0.00    +0.120 A 
ATOM     11  N   LIG    1       -8.522  -0.698  -0.571  0.00  0.00    -0.430 NA
ATOM     12  C   LIG    1      -10.951  -0.637  -0.798  0.00  0.00    +0.160 C 
ATOM     13  C   LIG    1      -10.793   2.247  -0.761  0.00  0.00    +0.160 C 
ATOM     14  C   LIG    1       -7.329  -0.105  -0.455  0.00  0.00    +0.100 A 
ATOM     15  C   LIG    1       -6.151  -0.867  -0.350  0.00  0.00    +0.070 A 
ATOM     16  C   LIG    1       -4.948  -0.249  -0.238  0.00  0.00    +0.060 A 
ENDBRANCH   3   5
BRANCH   1  20
ATOM     17  C   LIG    1        1.328   2.868   0.098  0.00  0.00    +0.140 A 
ATOM     18  C   LIG    1        0.242   3.488   0.702  0.00  0.00    +0.030 A 
ATOM     19  C   LIG    1       -1.001   2.888   0.671  0.00  0.00    +0.040 A 
ATOM     20  C   LIG    1       -1.164   1.661   0.040  0.00  0.00    +0.150 A 
ATOM     21  C   LIG    1       -0.079   1.044  -0.569  0.00  0.00    +0.000 A 
ATOM     22  C   LIG    1        1.164   1.645  -0.537  0.00  0.00    +0.050 A 
BRANCH  17  24
ATOM     23  C   LIG    1        3.602   2.895   0.801  0.00  0.00    +0.650 C 
ATOM     24  N   LIG    1        2.589   3.478   0.130  0.00  0.00    -0.550 N 
ATOM     25  C   LIG    1        2.807   4.748  -0.567  0.00  0.00    +0.300 C 
ATOM     26  O   LIG    1        3.448   1.799   1.302  0.00  0.00    -0.560 OA
BRANCH  23  28
ATOM     27  C   LIG    1        5.831   2.841   1.654  0.00  0.00    +0.280 C 
ATOM     28  O   LIG    1        4.785   3.528   0.917  0.00  0.00    -0.370 OA
ENDBRANCH  23  28
ENDBRANCH  17  24
ENDBRANCH   1  20
TORSDOF 4
