REMARK  Name = ZINCkj000005iH0Q.0
REMARK                            x       y       z     vdW  Elec       q    Type
REMARK                         _______ _______ _______ _____ _____    ______ ____
ROOT
ATOM      1  N   LIG    1       -2.121  -0.063   1.222  0.00  0.00    -0.510 N 
ATOM      2  H   LIG    1       -2.136   0.946   1.227  0.00  0.00    +0.440 HD
ATOM      3  H   LIG    1       -1.632  -0.396   2.039  0.00  0.00    +0.420 HD
ENDROOT
BRANCH   1   4
ATOM      4  C   LIG    1       -3.498  -0.573   1.232  0.00  0.00    +0.330 C 
BRANCH   4   8
ATOM      5  C   LIG    1       -5.504   0.809   4.747  0.00  0.00    +0.140 A 
ATOM      6  C   LIG    1       -5.543   1.560   3.584  0.00  0.00    -0.030 A 
ATOM      7  C   LIG    1       -4.893   1.110   2.449  0.00  0.00    +0.060 A 
ATOM      8  C   LIG    1       -4.204  -0.088   2.472  0.00  0.00    -0.170 A 
ATOM      9  C   LIG    1       -4.166  -0.845   3.628  0.00  0.00    -0.010 A 
ATOM     10  C   LIG    1       -4.810  -0.398   4.771  0.00  0.00    +0.110 A 
BRANCH   5  12
ATOM     11  C   LIG    1       -6.833   2.496   5.768  0.00  0.00    +0.250 C 
ATOM     12  O   LIG    1       -6.141   1.250   5.865  0.00  0.00    -0.300 OA
ENDBRANCH   5  12
BRANCH  10  13
ATOM     13  O   LIG    1       -4.769  -1.138   5.910  0.00  0.00    -0.300 OA
ATOM     14  C   LIG    1       -4.038  -2.365   5.860  0.00  0.00    +0.250 C 
ENDBRANCH  10  13
ENDBRANCH   4   8
ENDBRANCH   1   4
BRANCH   1  15
ATOM     15  C   LIG    1       -1.433  -0.535   0.013  0.00  0.00    +0.300 C 
BRANCH  15  16
ATOM     16  C   LIG    1        0.002  -0.004   0.002  0.00  0.00    +0.110 C 
ATOM     17  C   LIG    1        0.747  -0.513   1.240  0.00  0.00    -0.020 C 
ATOM     18  C   LIG    1        2.203  -0.040   1.178  0.00  0.00    +0.230 C 
ATOM     19  O   LIG    1        2.805  -0.509  -0.030  0.00  0.00    -0.370 OA
ATOM     20  C   LIG    1        2.178  -0.027  -1.220  0.00  0.00    +0.220 C 
ATOM     21  C   LIG    1        0.723  -0.500  -1.256  0.00  0.00    +0.020 C 
BRANCH  16  22
ATOM     22  O   LIG    1       -0.017   1.425   0.010  0.00  0.00    -0.560 OA
ATOM     23  H   LIG    1        0.861   1.830   0.004  0.00  0.00    +0.400 HD
ENDBRANCH  16  22
ENDBRANCH  15  16
ENDBRANCH   1  15
TORSDOF 7
