REMARK  Name = ZINCkj000005j7qf.0
REMARK                            x       y       z     vdW  Elec       q    Type
REMARK                         _______ _______ _______ _____ _____    ______ ____
ROOT
ATOM      1  C   LIG    1       -0.786   1.851   3.517  0.00  0.00    +0.230 C 
ATOM      2  C   LIG    1       -1.044   0.524   4.239  0.00  0.00    +0.010 C 
ATOM      3  C   LIG    1        0.262  -0.270   4.319  0.00  0.00    +0.030 C 
ATOM      4  C   LIG    1        0.761  -0.578   2.906  0.00  0.00    +0.020 C 
ATOM      5  C   LIG    1        1.037   0.731   2.169  0.00  0.00    +0.280 C 
ATOM      6  N   LIG    1       -0.170   1.569   2.214  0.00  0.00    -0.600 N 
ATOM      7  C   LIG    1       -0.705   2.063   1.080  0.00  0.00    +0.530 C 
ATOM      8  O   LIG    1       -1.739   2.696   1.123  0.00  0.00    -0.540 OA
ENDROOT
BRANCH   1  10
ATOM      9  C   LIG    1       -3.109   1.658   2.618  0.00  0.00    +0.090 C 
ATOM     10  C   LIG    1       -2.110   2.588   3.310  0.00  0.00    +0.200 C 
BRANCH  10  11
ATOM     11  N   LIG    1       -2.649   3.003   4.612  0.00  0.00    -0.640 N 
ATOM     12  H   LIG    1       -2.804   2.189   5.187  0.00  0.00    +0.420 HD
ATOM     13  H   LIG    1       -3.522   3.489   4.476  0.00  0.00    +0.440 HD
ATOM     14  H   LIG    1       -1.990   3.617   5.069  0.00  0.00    +0.430 HD
ENDBRANCH  10  11
ENDBRANCH   1  10
BRANCH   7  15
ATOM     15  C   LIG    1       -0.019   1.831  -0.241  0.00  0.00    +0.080 C 
BRANCH  15  16
ATOM     16  C   LIG    1       -0.827   2.492  -1.359  0.00  0.00    +0.200 C 
BRANCH  16  17
ATOM     17  O   LIG    1       -0.176   2.271  -2.612  0.00  0.00    -0.380 OA
BRANCH  17  18
ATOM     18  C   LIG    1       -0.853   2.851  -3.729  0.00  0.00    +0.150 C 
ATOM     19  C   LIG    1       -1.841   1.836  -4.313  0.00  0.00    -0.030 C 
ATOM     20  C   LIG    1       -2.504   2.437  -5.555  0.00  0.00    +0.210 C 
ATOM     21  O   LIG    1       -1.497   2.797  -6.504  0.00  0.00    -0.380 OA
ATOM     22  C   LIG    1       -0.573   3.779  -6.029  0.00  0.00    +0.210 C 
ATOM     23  C   LIG    1        0.168   3.231  -4.806  0.00  0.00    +0.010 C 
ENDBRANCH  17  18
ENDBRANCH  16  17
ENDBRANCH  15  16
ENDBRANCH   7  15
TORSDOF 6
