REMARK  Name = ZINCrH000004mzOl.0
REMARK                            x       y       z     vdW  Elec       q    Type
REMARK                         _______ _______ _______ _____ _____    ______ ____
ROOT
ATOM      1  C   LIG    1       -5.750   2.953  -1.432  0.00  0.00    +0.060 C 
ENDROOT
BRANCH   1   2
ATOM      2  C   LIG    1       -4.689   3.402  -0.460  0.00  0.00    +0.520 C 
ATOM      3  N   LIG    1       -3.441   3.660  -0.897  0.00  0.00    -0.610 N 
ATOM      4  C   LIG    1       -3.115   3.504  -2.316  0.00  0.00    +0.280 C 
ATOM      5  O   LIG    1       -4.960   3.531   0.716  0.00  0.00    -0.540 OA
BRANCH   3   6
ATOM      6  C   LIG    1       -2.410   4.097   0.048  0.00  0.00    +0.300 C 
ATOM      7  C   LIG    1       -1.822   5.455  -0.390  0.00  0.00    +0.030 C 
ATOM      8  C   LIG    1       -0.344   5.329   0.035  0.00  0.00    +0.080 C 
ATOM      9  C   LIG    1       -0.053   3.843   0.024  0.00  0.00    -0.090 A 
ATOM     10  C   LIG    1        1.153   3.165   0.008  0.00  0.00    +0.010 A 
ATOM     11  C   LIG    1        1.174   1.784   0.000  0.00  0.00    +0.020 A 
ATOM     12  C   LIG    1       -0.013   1.076   0.008  0.00  0.00    +0.000 A 
ATOM     13  C   LIG    1       -1.218   1.751   0.017  0.00  0.00    +0.030 A 
ATOM     14  C   LIG    1       -1.241   3.135   0.031  0.00  0.00    -0.110 A 
ENDBRANCH   3   6
ENDBRANCH   1   2
BRANCH   1  15
ATOM     15  C   LIG    1       -7.066   2.730  -0.683  0.00  0.00    +0.110 C 
BRANCH  15  19
ATOM     16  C   LIG    1      -10.079   1.460  -3.445  0.00  0.00    +0.120 A 
ATOM     17  C   LIG    1       -9.959   2.800  -3.110  0.00  0.00    -0.060 A 
ATOM     18  C   LIG    1       -8.985   3.207  -2.217  0.00  0.00    +0.070 A 
ATOM     19  C   LIG    1       -8.126   2.280  -1.655  0.00  0.00    -0.130 A 
ATOM     20  C   LIG    1       -8.236   0.939  -1.990  0.00  0.00    +0.120 A 
ATOM     21  C   LIG    1       -9.218   0.525  -2.882  0.00  0.00    +0.050 A 
BRANCH  16  23
ATOM     22  C   LIG    1      -11.888   2.076  -4.861  0.00  0.00    +0.240 C 
ATOM     23  O   LIG    1      -11.038   1.061  -4.322  0.00  0.00    -0.310 OA
ENDBRANCH  16  23
BRANCH  20  24
ATOM     24  O   LIG    1       -7.388   0.029  -1.441  0.00  0.00    -0.330 OA
ATOM     25  C   LIG    1       -7.794  -0.579  -0.213  0.00  0.00    +0.240 C 
ENDBRANCH  20  24
BRANCH  21  26
ATOM     26  O   LIG    1       -9.332  -0.791  -3.208  0.00  0.00    -0.320 OA
ATOM     27  C   LIG    1       -8.573  -1.250  -4.329  0.00  0.00    +0.220 C 
ENDBRANCH  21  26
ENDBRANCH  15  19
ENDBRANCH   1  15
TORSDOF 7
