REMARK  Name = ZINCrH000004te2d.0
REMARK                            x       y       z     vdW  Elec       q    Type
REMARK                         _______ _______ _______ _____ _____    ______ ____
ROOT
ATOM      1  C   LIG    1        6.423   4.794  -0.073  0.00  0.00    +0.410 C 
ENDROOT
BRANCH   1   4
ATOM      2  C   LIG    1        4.758   1.613  -0.034  0.00  0.00    +0.230 A 
ATOM      3  N   LIG    1        4.696   2.932   0.033  0.00  0.00    -0.460 NA
ATOM      4  C   LIG    1        5.962   3.359  -0.090  0.00  0.00    +0.160 A 
ATOM      5  N   LIG    1        6.719   2.311  -0.230  0.00  0.00    -0.360 NA
ATOM      6  O   LIG    1        6.052   1.298  -0.202  0.00  0.00    +0.100 OA
BRANCH   2  11
ATOM      7  F   LIG    1        0.460  -1.959   0.294  0.00  0.00    -0.120 F 
ATOM      8  C   LIG    1        1.498  -1.098   0.215  0.00  0.00    +0.170 A 
ATOM      9  C   LIG    1        1.272   0.267   0.309  0.00  0.00    -0.010 A 
ATOM     10  C   LIG    1        2.326   1.151   0.229  0.00  0.00    +0.160 A 
ATOM     11  C   LIG    1        3.625   0.671   0.052  0.00  0.00    -0.080 A 
ATOM     12  C   LIG    1        3.849  -0.707  -0.042  0.00  0.00    +0.170 A 
ATOM     13  F   LIG    1        5.103  -1.180  -0.213  0.00  0.00    -0.110 F 
ATOM     14  C   LIG    1        2.784  -1.583   0.040  0.00  0.00    -0.030 A 
ENDBRANCH   2  11
ENDBRANCH   1   4
BRANCH   1  15
ATOM     15  N   LIG    1        6.411   5.326  -1.438  0.00  0.00    -0.740 N 
ATOM     16  H   LIG    1        6.132   4.762  -2.176  0.00  0.00    +0.410 HD
BRANCH  15  17
ATOM     17  C   LIG    1        6.801   6.649  -1.677  0.00  0.00    +0.200 A 
ATOM     18  C   LIG    1        7.195   7.458  -0.622  0.00  0.00    -0.040 A 
ATOM     19  C   LIG    1        7.586   8.763  -0.861  0.00  0.00    +0.030 A 
ATOM     20  C   LIG    1        7.575   9.267  -2.148  0.00  0.00    -0.010 A 
ATOM     21  C   LIG    1        7.178   8.466  -3.204  0.00  0.00    -0.030 A 
ATOM     22  C   LIG    1        6.790   7.157  -2.974  0.00  0.00    +0.060 A 
BRANCH  22  23
ATOM     23  O   LIG    1        6.399   6.370  -4.012  0.00  0.00    -0.310 OA
BRANCH  23  24
ATOM     24  C   LIG    1        6.532   6.915  -5.326  0.00  0.00    +0.150 C 
ATOM     25  C   LIG    1        6.597   5.785  -6.377  0.00  0.00    +0.030 C 
ATOM     26  C   LIG    1        5.363   6.034  -7.273  0.00  0.00    +0.200 C 
ATOM     27  O   LIG    1        5.070   7.439  -7.115  0.00  0.00    -0.370 OA
ATOM     28  C   LIG    1        5.268   7.717  -5.709  0.00  0.00    +0.190 C 
ENDBRANCH  23  24
ENDBRANCH  22  23
ENDBRANCH  15  17
ENDBRANCH   1  15
TORSDOF 6
