REMARK  Name = ZINCnE00000rhnCA.1
REMARK                            x       y       z     vdW  Elec       q    Type
REMARK                         _______ _______ _______ _____ _____    ______ ____
ROOT
ATOM      1  C   LIG    1        5.303  -1.465  -0.057  0.00  0.00    +0.110 C 
ATOM      2  C   LIG    1        4.295  -0.345  -0.041  0.00  0.00    -0.300 A 
ATOM      3  C   LIG    1        4.578   0.970  -0.036  0.00  0.00    +0.120 A 
ATOM      4  N   LIG    1        3.527   1.778  -0.022  0.00  0.00    -0.540 NA
ATOM      5  C   LIG    1        2.356   1.220  -0.014  0.00  0.00    +0.380 A 
ATOM      6  S   LIG    1        2.543  -0.531  -0.017  0.00  0.00    +0.000 S 
ENDROOT
BRANCH   3   7
ATOM      7  C   LIG    1        5.970   1.482  -0.046  0.00  0.00    -0.010 A 
ATOM      8  C   LIG    1        6.971   0.794   0.637  0.00  0.00    +0.050 A 
ATOM      9  C   LIG    1        8.266   1.268   0.622  0.00  0.00    -0.020 A 
ATOM     10  C   LIG    1        8.571   2.437  -0.064  0.00  0.00    +0.140 A 
ATOM     11  N   LIG    1        9.883   2.921  -0.075  0.00  0.00    -0.660 N 
ATOM     12  H   LIG    1       10.617   2.329   0.153  0.00  0.00    +0.410 HD
ATOM     13  C   LIG    1       10.136   4.203  -0.399  0.00  0.00    +0.520 C 
ATOM     14  C   LIG    1        9.014   5.146  -0.741  0.00  0.00    +0.070 C 
ATOM     15  C   LIG    1        7.910   4.394  -1.486  0.00  0.00    +0.090 C 
ATOM     16  O   LIG    1       11.281   4.602  -0.417  0.00  0.00    -0.540 OA
ATOM     17  C   LIG    1        7.573   3.127  -0.743  0.00  0.00    -0.130 A 
ATOM     18  C   LIG    1        6.279   2.654  -0.736  0.00  0.00    +0.090 A 
ENDBRANCH   3   7
BRANCH   5  19
ATOM     19  N   LIG    1        1.143   1.898   0.001  0.00  0.00    -0.640 NA
ATOM     20  C   LIG    1       -0.014   1.209   0.009  0.00  0.00    +0.430 C 
ATOM     21  O   LIG    1        0.002  -0.004   0.002  0.00  0.00    -0.570 OA
BRANCH  20  22
ATOM     22  C   LIG    1       -1.330   1.944   0.019  0.00  0.00    +0.320 C 
ATOM     23 CL   LIG    1       -2.680   0.759   0.167  0.00  0.00    -0.160 Cl
ATOM     24  F   LIG    1       -1.362   2.826   1.104  0.00  0.00    -0.170 F 
ENDBRANCH  20  22
ENDBRANCH   5  19
TORSDOF 3
