REMARK  Name = ZINCkj00000y7DGl.0
REMARK                            x       y       z     vdW  Elec       q    Type
REMARK                         _______ _______ _______ _____ _____    ______ ____
ROOT
ATOM      1  C   LIG    1       -0.018   1.470   0.010  0.00  0.00    +0.580 C 
ATOM      2  N   LIG    1        1.138   2.160   0.003  0.00  0.00    -0.590 N 
ATOM      3  C   LIG    1        2.377   1.396  -0.126  0.00  0.00    +0.280 C 
ATOM      4  C   LIG    1        3.430   2.083   0.753  0.00  0.00    +0.030 C 
ATOM      5  C   LIG    1        3.661   3.483   0.194  0.00  0.00    +0.040 C 
ATOM      6  C   LIG    1        2.400   4.325   0.204  0.00  0.00    -0.030 C 
ATOM      7  C   LIG    1        2.535   5.401   1.317  0.00  0.00    +0.300 C 
ATOM      8  N   LIG    1        1.270   6.211   1.289  0.00  0.00    -0.510 N 
ATOM      9  C   LIG    1        0.865   6.517  -0.044  0.00  0.00    +0.260 C 
ATOM     10  C   LIG    1       -0.227   5.529  -0.401  0.00  0.00    +0.040 C 
ATOM     11  C   LIG    1        0.256   4.251  -0.978  0.00  0.00    +0.040 C 
ATOM     12  H   LIG    1        1.419   7.080   1.799  0.00  0.00    +0.430 HD
ATOM     13  H   LIG    1        0.531   5.707   1.767  0.00  0.00    +0.430 HD
ATOM     14  C   LIG    1        1.107   3.592   0.151  0.00  0.00    +0.220 C 
ATOM     15  O   LIG    1       -1.080   2.063   0.025  0.00  0.00    -0.520 OA
ENDROOT
BRANCH   1  20
ATOM     16  O   LIG    1        0.078  -3.961  -0.126  0.00  0.00    -0.530 OA
ATOM     17  C   LIG    1        0.054  -2.742  -0.082  0.00  0.00    +0.510 A 
ATOM     18  C   LIG    1       -0.162  -2.092   1.148  0.00  0.00    -0.060 A 
ATOM     19  C   LIG    1       -0.182  -0.734   1.193  0.00  0.00    +0.140 A 
ATOM     20  C   LIG    1        0.004  -0.004  -0.006  0.00  0.00    -0.250 A 
ATOM     21  C   LIG    1        0.212  -0.683  -1.189  0.00  0.00    +0.350 A 
ATOM     22  N   LIG    1        0.233  -2.029  -1.208  0.00  0.00    -0.600 N 
ATOM     23  H   LIG    1        0.381  -2.492  -2.048  0.00  0.00    +0.420 HD
ENDBRANCH   1  20
TORSDOF 1
