REMARK  Name = ZINCpk00000ebOnv.0
REMARK                            x       y       z     vdW  Elec       q    Type
REMARK                         _______ _______ _______ _____ _____    ______ ____
ROOT
ATOM      1  N   LIG    1       -1.480   2.810   1.280  0.00  0.00    -0.510 NA
ATOM      2  C   LIG    1       -2.646   3.718   1.231  0.00  0.00    +0.160 C 
ATOM      3  C   LIG    1       -3.550   3.344   2.419  0.00  0.00    +0.150 C 
ATOM      4  C   LIG    1       -2.585   2.657   3.404  0.00  0.00    +0.180 C 
ATOM      5  O   LIG    1       -1.783   3.639   4.062  0.00  0.00    -0.360 OA
ATOM      6  C   LIG    1       -2.521   4.636   4.760  0.00  0.00    +0.210 C 
ATOM      7  C   LIG    1       -3.433   5.386   3.801  0.00  0.00    +0.170 C 
ATOM      8  N   LIG    1       -4.219   4.496   2.970  0.00  0.00    -0.540 NA
ATOM      9  C   LIG    1       -1.659   1.885   2.422  0.00  0.00    +0.210 C 
ENDROOT
BRANCH   1  10
ATOM     10  C   LIG    1       -1.338   2.068   0.020  0.00  0.00    +0.280 C 
BRANCH  10  14
ATOM     11  O   LIG    1        1.308  -1.895  -0.021  0.00  0.00    -0.470 OA
ATOM     12  C   LIG    1        1.251  -0.675  -0.013  0.00  0.00    +0.410 A 
ATOM     13  C   LIG    1        0.002  -0.004   0.002  0.00  0.00    -0.150 A 
ATOM     14  C   LIG    1       -0.016   1.344   0.009  0.00  0.00    +0.160 A 
ATOM     15  O   LIG    1        1.121   2.049   0.002  0.00  0.00    -0.190 OA
ATOM     16  C   LIG    1        2.324   1.459  -0.012  0.00  0.00    +0.190 A 
ATOM     17  C   LIG    1        2.435   0.113  -0.021  0.00  0.00    -0.040 A 
BRANCH  17  18
ATOM     18  O   LIG    1        3.660  -0.480  -0.036  0.00  0.00    -0.450 OA
ATOM     19  H   LIG    1        4.399   0.144  -0.040  0.00  0.00    +0.400 HD
ENDBRANCH  17  18
ENDBRANCH  10  14
ENDBRANCH   1  10
BRANCH   8  20
ATOM     20  C   LIG    1       -4.930   5.243   1.924  0.00  0.00    +0.240 C 
BRANCH  20  21
ATOM     21  C   LIG    1       -5.407   6.559   2.483  0.00  0.00    -0.090 A 
ATOM     22  C   LIG    1       -6.658   6.649   3.065  0.00  0.00    +0.020 A 
ATOM     23  C   LIG    1       -7.094   7.855   3.582  0.00  0.00    +0.000 A 
ATOM     24  C   LIG    1       -6.284   8.973   3.506  0.00  0.00    +0.000 A 
ATOM     25  C   LIG    1       -5.035   8.883   2.919  0.00  0.00    +0.000 A 
ATOM     26  C   LIG    1       -4.598   7.676   2.407  0.00  0.00    +0.010 A 
ENDBRANCH  20  21
ENDBRANCH   8  20
TORSDOF 5
