REMARK  Name = ZINCrD0000074370.1
REMARK                            x       y       z     vdW  Elec       q    Type
REMARK                         _______ _______ _______ _____ _____    ______ ____
ROOT
ATOM      1  C   LIG    1        0.116   2.861   1.565  0.00  0.00    +0.600 C 
ATOM      2  N   LIG    1       -0.604   2.320   0.563  0.00  0.00    -0.600 N 
ATOM      3  C   LIG    1        0.074   1.794  -0.625  0.00  0.00    +0.300 C 
ATOM      4  O   LIG    1       -0.440   3.238   2.579  0.00  0.00    -0.520 OA
ENDROOT
BRANCH   1  11
ATOM      5  C   LIG    1        6.044   3.027   2.449  0.00  0.00    +0.070 C 
ATOM      6  C   LIG    1        4.923   4.069   2.469  0.00  0.00    +0.240 C 
ATOM      7  O   LIG    1        4.583   4.390   3.825  0.00  0.00    -0.360 OA
ATOM      8  C   LIG    1        3.407   5.191   3.968  0.00  0.00    +0.140 C 
ATOM      9  C   LIG    1        2.166   4.355   3.620  0.00  0.00    +0.110 C 
ATOM     10  C   LIG    1        2.447   3.639   2.328  0.00  0.00    -0.140 A 
ATOM     11  C   LIG    1        1.581   2.995   1.434  0.00  0.00    +0.000 A 
ATOM     12  N   LIG    1        2.333   2.525   0.452  0.00  0.00    -0.250 NA
ATOM     13  N   LIG    1        3.571   2.826   0.655  0.00  0.00    -0.360 N 
ATOM     14  H   LIG    1        4.305   2.590   0.067  0.00  0.00    +0.450 HD
ATOM     15  C   LIG    1        3.300   5.685   5.413  0.00  0.00    +0.080 C 
ATOM     16  C   LIG    1        3.694   3.509   1.802  0.00  0.00    -0.020 A 
ENDBRANCH   1  11
BRANCH   2  17
ATOM     17  C   LIG    1       -2.064   2.259   0.660  0.00  0.00    +0.360 C 
BRANCH  17  18
ATOM     18  C   LIG    1       -2.466   1.013   1.407  0.00  0.00    -0.110 A 
ATOM     19  C   LIG    1       -1.501   0.213   1.986  0.00  0.00    +0.040 A 
ATOM     20  C   LIG    1       -1.868  -0.930   2.672  0.00  0.00    -0.020 A 
ATOM     21  C   LIG    1       -3.203  -1.277   2.780  0.00  0.00    +0.020 A 
ATOM     22  C   LIG    1       -4.173  -0.481   2.203  0.00  0.00    -0.040 A 
ATOM     23  C   LIG    1       -3.808   0.671   1.518  0.00  0.00    +0.110 A 
BRANCH  23  24
ATOM     24  N   LIG    1       -4.787   1.480   0.938  0.00  0.00    -0.470 N 
ATOM     25  C   LIG    1       -6.149   0.996   1.279  0.00  0.00    +0.180 C 
ATOM     26  C   LIG    1       -7.040   2.240   1.032  0.00  0.00    +0.040 C 
ATOM     27  C   LIG    1       -6.148   3.405   1.518  0.00  0.00    +0.020 C 
ATOM     28  C   LIG    1       -4.708   2.863   1.458  0.00  0.00    +0.180 C 
ENDBRANCH  23  24
ENDBRANCH  17  18
ENDBRANCH   2  17
TORSDOF 4
