REMARK  Name = ZINCrD0000074370.0
REMARK                            x       y       z     vdW  Elec       q    Type
REMARK                         _______ _______ _______ _____ _____    ______ ____
ROOT
ATOM      1  C   LIG    1        2.604   5.156  -2.069  0.00  0.00    +0.590 C 
ATOM      2  N   LIG    1        2.846   4.064  -1.316  0.00  0.00    -0.590 N 
ATOM      3  C   LIG    1        3.594   2.938  -1.879  0.00  0.00    +0.290 C 
ATOM      4  O   LIG    1        1.908   6.053  -1.633  0.00  0.00    -0.520 OA
ENDROOT
BRANCH   1  11
ATOM      5  C   LIG    1        3.597   5.774  -7.962  0.00  0.00    +0.070 C 
ATOM      6  C   LIG    1        3.441   4.590  -7.006  0.00  0.00    +0.260 C 
ATOM      7  O   LIG    1        2.125   4.032  -7.134  0.00  0.00    -0.370 OA
ATOM      8  C   LIG    1        1.794   3.045  -6.155  0.00  0.00    +0.150 C 
ATOM      9  C   LIG    1        1.578   3.716  -4.789  0.00  0.00    +0.100 C 
ATOM     10  C   LIG    1        2.735   4.649  -4.557  0.00  0.00    -0.150 A 
ATOM     11  C   LIG    1        3.182   5.262  -3.418  0.00  0.00    -0.010 A 
ATOM     12  N   LIG    1        4.274   6.001  -3.794  0.00  0.00    -0.380 N 
ATOM     13  H   LIG    1        4.805   6.553  -3.199  0.00  0.00    +0.450 HD
ATOM     14  N   LIG    1        4.489   5.848  -5.056  0.00  0.00    -0.250 NA
ATOM     15  C   LIG    1        0.512   2.324  -6.576  0.00  0.00    +0.060 C 
ATOM     16  C   LIG    1        3.605   5.056  -5.581  0.00  0.00    +0.000 A 
ENDBRANCH   1  11
BRANCH   2  17
ATOM     17  C   LIG    1        2.362   4.005   0.065  0.00  0.00    +0.360 C 
BRANCH  17  18
ATOM     18  C   LIG    1        1.029   3.302   0.100  0.00  0.00    -0.090 A 
ATOM     19  C   LIG    1       -0.140   4.036   0.071  0.00  0.00    +0.040 A 
ATOM     20  C   LIG    1       -1.364   3.392   0.104  0.00  0.00    +0.000 A 
ATOM     21  C   LIG    1       -1.421   2.012   0.161  0.00  0.00    +0.020 A 
ATOM     22  C   LIG    1       -0.255   1.272   0.195  0.00  0.00    -0.030 A 
ATOM     23  C   LIG    1        0.976   1.915   0.162  0.00  0.00    +0.090 A 
BRANCH  23  24
ATOM     24  N   LIG    1        2.156   1.170   0.191  0.00  0.00    -0.480 N 
ATOM     25  C   LIG    1        2.213   0.309   1.400  0.00  0.00    +0.180 C 
ATOM     26  C   LIG    1        3.250  -0.775   1.015  0.00  0.00    +0.030 C 
ATOM     27  C   LIG    1        2.952  -1.023  -0.481  0.00  0.00    +0.010 C 
ATOM     28  C   LIG    1        2.230   0.249  -0.964  0.00  0.00    +0.170 C 
ENDBRANCH  23  24
ENDBRANCH  17  18
ENDBRANCH   2  17
TORSDOF 4
