REMARK  Name = ZINCrD0000071mqm.0
REMARK                            x       y       z     vdW  Elec       q    Type
REMARK                         _______ _______ _______ _____ _____    ______ ____
ROOT
ATOM      1  C   LIG    1        7.669  -2.845  -1.790  0.00  0.00    +0.270 C 
ENDROOT
BRANCH   1   2
ATOM      2  C   LIG    1        6.298  -2.222  -1.753  0.00  0.00    +0.500 C 
ATOM      3  N   LIG    1        6.166  -0.881  -1.751  0.00  0.00    -0.620 N 
ATOM      4  H   LIG    1        6.954  -0.316  -1.708  0.00  0.00    +0.420 HD
ATOM      5  O   LIG    1        5.312  -2.928  -1.726  0.00  0.00    -0.480 OA
BRANCH   3   6
ATOM      6  C   LIG    1        4.902  -0.306  -1.811  0.00  0.00    +0.240 A 
ATOM      7  N   LIG    1        4.664   0.966  -1.815  0.00  0.00    -0.510 NA
ATOM      8  C   LIG    1        3.393   1.353  -1.871  0.00  0.00    +0.090 A 
ATOM      9  C   LIG    1        2.537   0.336  -1.932  0.00  0.00    -0.270 A 
ATOM     10  C   LIG    1        1.024   0.476  -2.024  0.00  0.00    +0.120 C 
ATOM     11  C   LIG    1        0.539   1.087  -0.704  0.00  0.00    +0.020 C 
ATOM     12  C   LIG    1        0.745   2.584  -0.693  0.00  0.00    +0.000 C 
ATOM     13  C   LIG    1        2.173   3.056  -0.569  0.00  0.00    +0.020 C 
ATOM     14  C   LIG    1        2.958   2.818  -1.861  0.00  0.00    +0.120 C 
ATOM     15  S   LIG    1        3.432  -1.176  -1.891  0.00  0.00    +0.240 S 
ENDBRANCH   3   6
ENDBRANCH   1   2
BRANCH   1  17
ATOM     16  C   LIG    1        7.606  -3.180   0.685  0.00  0.00    +0.030 C 
ATOM     17  C   LIG    1        8.393  -2.562  -0.472  0.00  0.00    -0.010 C 
ATOM     18  C   LIG    1        9.795  -3.173  -0.518  0.00  0.00    +0.040 C 
ENDBRANCH   1  17
BRANCH   1  19
ATOM     19  N   LIG    1        7.544  -4.292  -1.977  0.00  0.00    -1.090 NA
ATOM     20  H   LIG    1        7.369  -4.867  -1.215  0.00  0.00    +0.430 HD
BRANCH  19  21
ATOM     21  S   LIG    1        7.699  -4.948  -3.490  0.00  0.00    +2.690 S 
ATOM     22  O   LIG    1        6.821  -4.218  -4.336  0.00  0.00    -0.940 OA
ATOM     23  O   LIG    1        7.627  -6.357  -3.326  0.00  0.00    -0.950 OA
BRANCH  21  24
ATOM     24  C   LIG    1        9.333  -4.595  -4.046  0.00  0.00    -0.680 A 
ATOM     25  C   LIG    1        9.607  -3.391  -4.667  0.00  0.00    +0.110 A 
ATOM     26  C   LIG    1       10.891  -3.112  -5.099  0.00  0.00    -0.010 A 
ATOM     27  C   LIG    1       11.898  -4.042  -4.919  0.00  0.00    +0.070 A 
ATOM     28  C   LIG    1       11.623  -5.248  -4.303  0.00  0.00    +0.000 A 
ATOM     29  C   LIG    1       10.340  -5.525  -3.866  0.00  0.00    +0.120 A 
ENDBRANCH  21  24
ENDBRANCH  19  21
ENDBRANCH   1  19
TORSDOF 6
