REMARK  Name = ZINCtV000002E25o.0
REMARK                            x       y       z     vdW  Elec       q    Type
REMARK                         _______ _______ _______ _____ _____    ______ ____
ROOT
ATOM      1  N   LIG    1        4.126   5.618  -2.751  0.00  0.00    -0.740 N 
ATOM      2  H   LIG    1        3.461   5.277  -3.370  0.00  0.00    +0.390 HD
ATOM      3  C   LIG    1        3.917   5.529  -1.422  0.00  0.00    +0.710 C 
ATOM      4  N   LIG    1        2.786   4.967  -0.954  0.00  0.00    -0.740 N 
ATOM      5  H   LIG    1        2.122   4.626  -1.572  0.00  0.00    +0.400 HD
ATOM      6  O   LIG    1        4.750   5.957  -0.647  0.00  0.00    -0.580 OA
ENDROOT
BRANCH   1   8
ATOM      7  C   LIG    1        6.430   5.153  -3.425  0.00  0.00    +0.040 C 
ATOM      8  C   LIG    1        5.356   6.229  -3.261  0.00  0.00    +0.310 C 
BRANCH   8   9
ATOM      9  C   LIG    1        5.081   6.873  -4.596  0.00  0.00    -0.110 A 
ATOM     10  C   LIG    1        4.005   6.456  -5.355  0.00  0.00    +0.060 A 
ATOM     11  C   LIG    1        3.748   7.050  -6.577  0.00  0.00    +0.050 A 
ATOM     12  C   LIG    1        4.576   8.053  -7.046  0.00  0.00    -0.070 A 
ATOM     13  C   LIG    1        5.658   8.468  -6.290  0.00  0.00    +0.030 A 
ATOM     14 BR   LIG    1        4.230   8.859  -8.721  0.00  0.00    -0.030 Br
ATOM     15  C   LIG    1        5.911   7.878  -5.064  0.00  0.00    +0.120 A 
ATOM     16  F   LIG    1        6.966   8.283  -4.324  0.00  0.00    -0.120 F 
ENDBRANCH   8   9
ENDBRANCH   1   8
BRANCH   4  17
ATOM     17  C   LIG    1        2.560   4.871   0.491  0.00  0.00    +0.340 C 
BRANCH  17  18
ATOM     18  C   LIG    1        1.232   4.207   0.748  0.00  0.00    -0.120 A 
ATOM     19  C   LIG    1        0.086   4.974   0.853  0.00  0.00    +0.060 A 
ATOM     20  C   LIG    1       -1.133   4.369   1.089  0.00  0.00    -0.020 A 
ATOM     21  C   LIG    1       -1.209   2.988   1.214  0.00  0.00    +0.130 A 
ATOM     22  C   LIG    1       -0.055   2.220   1.114  0.00  0.00    -0.050 A 
ATOM     23 CL   LIG    1       -0.143   0.494   1.277  0.00  0.00    -0.050 Cl
ATOM     24  C   LIG    1        1.161   2.832   0.879  0.00  0.00    +0.070 A 
BRANCH  21  25
ATOM     25  N   LIG    1       -2.442   2.373   1.446  0.00  0.00    -0.490 N 
ATOM     26  C   LIG    1       -3.473   3.366   1.775  0.00  0.00    +0.180 C 
ATOM     27  C   LIG    1       -4.768   2.650   2.163  0.00  0.00    +0.020 C 
ATOM     28  C   LIG    1       -5.231   1.774   0.996  0.00  0.00    +0.010 C 
ATOM     29  C   LIG    1       -4.121   0.780   0.642  0.00  0.00    -0.010 C 
ATOM     30  C   LIG    1       -4.552  -0.059  -0.562  0.00  0.00    +0.020 C 
ATOM     31  C   LIG    1       -2.844   1.551   0.297  0.00  0.00    +0.190 C 
ENDBRANCH  21  25
ENDBRANCH  17  18
ENDBRANCH   4  17
TORSDOF 5
