REMARK  Name = ZINCrD00000l9Uab.0
REMARK                            x       y       z     vdW  Elec       q    Type
REMARK                         _______ _______ _______ _____ _____    ______ ____
ROOT
ATOM      1  C   LIG    1        2.241   0.727  -0.802  0.00  0.00    +0.210 C 
ENDROOT
BRANCH   1   8
ATOM      2  N   LIG    1        6.904  -0.406  -1.086  0.00  0.00    -0.860 N 
ATOM      3  H   LIG    1        7.820  -0.312  -0.780  0.00  0.00    +0.420 HD
ATOM      4  H   LIG    1        6.697  -1.009  -1.817  0.00  0.00    +0.400 HD
ATOM      5  C   LIG    1        5.920   0.299  -0.494  0.00  0.00    +0.700 C 
ATOM      6  N   LIG    1        4.647   0.168  -0.919  0.00  0.00    -0.690 N 
ATOM      7  H   LIG    1        4.440  -0.434  -1.650  0.00  0.00    +0.410 HD
ATOM      8  C   LIG    1        3.663   0.874  -0.327  0.00  0.00    +0.520 C 
ATOM      9  O   LIG    1        3.922   1.627   0.587  0.00  0.00    -0.450 OA
ATOM     10  O   LIG    1        6.180   1.054   0.422  0.00  0.00    -0.530 OA
ENDBRANCH   1   8
BRANCH   1  11
ATOM     11  C   LIG    1        2.152   1.124  -2.253  0.00  0.00    -0.090 A 
ATOM     12  C   LIG    1        2.088   2.460  -2.601  0.00  0.00    +0.060 A 
ATOM     13  C   LIG    1        2.010   2.825  -3.932  0.00  0.00    +0.000 A 
ATOM     14  C   LIG    1        1.988   1.853  -4.915  0.00  0.00    +0.010 A 
ATOM     15  C   LIG    1        2.047   0.516  -4.567  0.00  0.00    +0.000 A 
ATOM     16  C   LIG    1        2.128   0.152  -3.236  0.00  0.00    +0.000 A 
ENDBRANCH   1  11
BRANCH   1  17
ATOM     17  N   LIG    1        1.365   1.594  -0.002  0.00  0.00    -0.660 NA
ATOM     18  H   LIG    1        1.720   1.698   0.937  0.00  0.00    +0.370 HD
BRANCH  17  19
ATOM     19  C   LIG    1       -0.013   1.086   0.008  0.00  0.00    +0.230 C 
BRANCH  19  20
ATOM     20  C   LIG    1       -0.718   1.572   1.248  0.00  0.00    -0.090 A 
ATOM     21  C   LIG    1       -0.511   2.861   1.700  0.00  0.00    +0.030 A 
ATOM     22  C   LIG    1       -1.161   3.309   2.835  0.00  0.00    +0.000 A 
ATOM     23  C   LIG    1       -2.011   2.463   3.523  0.00  0.00    +0.000 A 
ATOM     24  C   LIG    1       -2.215   1.172   3.073  0.00  0.00    +0.000 A 
ATOM     25  C   LIG    1       -1.568   0.726   1.936  0.00  0.00    +0.010 A 
ENDBRANCH  19  20
BRANCH  19  26
ATOM     26  C   LIG    1       -0.742   1.585  -1.213  0.00  0.00    -0.070 A 
ATOM     27  C   LIG    1       -0.551   2.883  -1.649  0.00  0.00    +0.050 A 
ATOM     28  C   LIG    1       -1.216   3.339  -2.772  0.00  0.00    +0.000 A 
ATOM     29  C   LIG    1       -2.079   2.501  -3.452  0.00  0.00    +0.000 A 
ATOM     30  C   LIG    1       -2.273   1.205  -3.013  0.00  0.00    +0.000 A 
ATOM     31  C   LIG    1       -1.605   0.747  -1.893  0.00  0.00    +0.000 A 
ENDBRANCH  19  26
ENDBRANCH  17  19
ENDBRANCH   1  17
TORSDOF 6
