REMARK  Name = ZINCpk00000ebtP1.0
REMARK                            x       y       z     vdW  Elec       q    Type
REMARK                         _______ _______ _______ _____ _____    ______ ____
ROOT
ATOM      1  N   LIG    1       -0.970   1.350   4.846  0.00  0.00    -0.520 NA
ATOM      2  C   LIG    1       -0.939  -0.103   5.061  0.00  0.00    +0.190 C 
ATOM      3  C   LIG    1       -0.065  -0.416   6.279  0.00  0.00    +0.300 C 
ATOM      4  N   LIG    1       -0.554   0.371   7.421  0.00  0.00    -0.610 N 
ATOM      5  C   LIG    1       -0.742   1.819   7.238  0.00  0.00    +0.280 C 
ATOM      6  C   LIG    1       -0.823  -0.217   8.603  0.00  0.00    +0.530 C 
ATOM      7  O   LIG    1       -0.753  -1.423   8.710  0.00  0.00    -0.520 OA
ATOM      8  C   LIG    1       -1.590   2.044   5.982  0.00  0.00    +0.170 C 
ENDROOT
BRANCH   6   9
ATOM      9  C   LIG    1       -1.211   0.623   9.793  0.00  0.00    +0.050 C 
ATOM     10  C   LIG    1       -0.678   0.009  11.102  0.00  0.00    +0.130 C 
ATOM     11  C   LIG    1       -1.687  -0.949  11.686  0.00  0.00    -0.090 A 
ATOM     12  C   LIG    1       -1.438  -1.966  12.608  0.00  0.00    +0.030 A 
ATOM     13  C   LIG    1       -2.455  -2.774  13.067  0.00  0.00    +0.020 A 
ATOM     14  C   LIG    1       -3.751  -2.593  12.622  0.00  0.00    +0.030 A 
ATOM     15  C   LIG    1       -4.018  -1.593  11.708  0.00  0.00    +0.050 A 
ATOM     16  C   LIG    1       -2.993  -0.781  11.244  0.00  0.00    -0.090 A 
ATOM     17  S   LIG    1       -3.019   0.561  10.083  0.00  0.00    -0.100 S 
ENDBRANCH   6   9
BRANCH   1  18
ATOM     18  C   LIG    1       -1.655   1.682   3.589  0.00  0.00    +0.210 C 
BRANCH  18  20
ATOM     19  O   LIG    1        0.186   0.564   2.624  0.00  0.00    -0.520 OA
ATOM     20  C   LIG    1       -0.854   1.156   2.426  0.00  0.00    +0.530 C 
ATOM     21  N   LIG    1       -1.292   1.345   1.166  0.00  0.00    -0.620 N 
ATOM     22  C   LIG    1       -0.613   0.887  -0.055  0.00  0.00    +0.250 C 
ATOM     23  C   LIG    1       -1.490   1.302  -1.255  0.00  0.00    +0.030 C 
ATOM     24  C   LIG    1       -2.894   1.471  -0.617  0.00  0.00    +0.040 C 
ATOM     25  C   LIG    1       -2.535   2.042   0.778  0.00  0.00    +0.250 C 
ENDBRANCH  18  20
ENDBRANCH   1  18
TORSDOF 3
