REMARK  Name = ZINCpe00000H7UFL.0
REMARK                            x       y       z     vdW  Elec       q    Type
REMARK                         _______ _______ _______ _____ _____    ______ ____
ROOT
ATOM      1  C   LIG    1        5.390   3.079  -1.186  0.00  0.00    +0.410 A 
ATOM      2  N   LIG    1        4.106   2.808  -1.231  0.00  0.00    -0.330 NA
ATOM      3  N   LIG    1        3.658   1.487  -1.174  0.00  0.00    -0.270 N 
ATOM      4  C   LIG    1        4.560   0.457  -1.070  0.00  0.00    +0.120 A 
ATOM      5  C   LIG    1        5.936   0.749  -1.021  0.00  0.00    +0.190 A 
ATOM      6  N   LIG    1        3.862  -0.669  -1.037  0.00  0.00    -0.240 NA
ATOM      7  N   LIG    1        2.605  -0.400  -1.107  0.00  0.00    -0.240 NA
ATOM      8  C   LIG    1        2.425   0.905  -1.198  0.00  0.00    +0.250 A 
ATOM      9  C   LIG    1        6.341   2.045  -1.079  0.00  0.00    -0.020 A 
ENDROOT
BRANCH   8  10
ATOM     10  C   LIG    1        1.128   1.605  -1.302  0.00  0.00    -0.040 A 
ATOM     11  C   LIG    1       -0.028   0.894  -1.629  0.00  0.00    +0.110 A 
ATOM     12  C   LIG    1       -1.235   1.553  -1.729  0.00  0.00    -0.010 A 
ATOM     13  C   LIG    1       -1.304   2.918  -1.496  0.00  0.00    +0.120 A 
ATOM     14  C   LIG    1       -0.159   3.629  -1.171  0.00  0.00    -0.010 A 
ATOM     15  F   LIG    1       -2.490   3.558  -1.590  0.00  0.00    -0.130 F 
ATOM     16  C   LIG    1        1.054   2.980  -1.073  0.00  0.00    +0.090 A 
ENDBRANCH   8  10
BRANCH   1  17
ATOM     17  N   LIG    1        5.816   4.401  -1.245  0.00  0.00    -0.680 N 
ATOM     18  H   LIG    1        6.763   4.608  -1.212  0.00  0.00    +0.430 HD
BRANCH  17  27
ATOM     19  O   LIG    1        3.103   5.571  -2.970  0.00  0.00    -0.520 OA
ATOM     20  C   LIG    1        4.300   5.543  -2.772  0.00  0.00    +0.510 C 
ATOM     21  N   LIG    1        5.151   5.567  -3.803  0.00  0.00    -0.720 N 
ATOM     22  H   LIG    1        4.813   5.610  -4.711  0.00  0.00    +0.400 HD
ATOM     23  C   LIG    1        6.603   5.528  -3.560  0.00  0.00    +0.250 C 
ATOM     24  C   LIG    1        7.029   6.862  -2.940  0.00  0.00    +0.220 C 
ATOM     25  O   LIG    1        6.829   6.846  -1.537  0.00  0.00    -0.380 OA
ATOM     26  C   LIG    1        5.503   6.823  -1.034  0.00  0.00    +0.250 C 
ATOM     27  C   LIG    1        4.834   5.483  -1.356  0.00  0.00    +0.230 C 
ENDBRANCH  17  27
ENDBRANCH   1  17
TORSDOF 3
