REMARK  Name = ZINCvU000000076c.0
REMARK                            x       y       z     vdW  Elec       q    Type
REMARK                         _______ _______ _______ _____ _____    ______ ____
ROOT
ATOM      1  C   LIG    1       -3.311   2.477   0.044  0.00  0.00    +0.290 A 
ATOM      2  N   LIG    1       -2.536   3.521   0.027  0.00  0.00    -0.480 NA
ATOM      3  C   LIG    1       -1.237   3.126   0.009  0.00  0.00    +0.050 A 
ATOM      4  C   LIG    1       -0.021   3.813  -0.013  0.00  0.00    +0.070 A 
ATOM      5  C   LIG    1        1.155   3.117  -0.027  0.00  0.00    +0.000 A 
ATOM      6  C   LIG    1        1.155   1.729  -0.020  0.00  0.00    +0.030 A 
ATOM      7  C   LIG    1       -0.033   1.030   0.001  0.00  0.00    +0.010 A 
ATOM      8  C   LIG    1       -1.237   1.721   0.010  0.00  0.00    +0.060 A 
ATOM      9  N   LIG    1       -2.563   1.340   0.038  0.00  0.00    -0.480 N 
ENDROOT
BRANCH   1  12
ATOM     10  N   LIG    1       -6.541   4.035  -0.627  0.00  0.00    -0.550 N 
ATOM     11  C   LIG    1       -5.366   3.316  -1.137  0.00  0.00    +0.300 C 
ATOM     12  C   LIG    1       -4.817   2.519   0.068  0.00  0.00    +0.090 C 
ATOM     13  C   LIG    1       -5.328   3.358   1.262  0.00  0.00    +0.100 C 
ATOM     14  C   LIG    1       -6.542   4.078   0.717  0.00  0.00    +0.520 C 
ATOM     15  O   LIG    1       -7.393   4.615   1.393  0.00  0.00    -0.510 OA
BRANCH  10  19
ATOM     16  C   LIG    1       -9.494   5.722  -3.038  0.00  0.00    +0.110 A 
ATOM     17  C   LIG    1       -8.361   5.168  -3.616  0.00  0.00    +0.020 A 
ATOM     18  C   LIG    1       -7.383   4.609  -2.817  0.00  0.00    +0.010 A 
ATOM     19  C   LIG    1       -7.533   4.602  -1.437  0.00  0.00    +0.130 A 
ATOM     20  C   LIG    1       -8.671   5.151  -0.861  0.00  0.00    +0.050 A 
ATOM     21  C   LIG    1       -9.646   5.715  -1.660  0.00  0.00    -0.050 A 
BRANCH  16  23
ATOM     22  C   LIG    1      -11.598   6.824  -3.164  0.00  0.00    +0.250 C 
ATOM     23  O   LIG    1      -10.458   6.272  -3.825  0.00  0.00    -0.320 OA
ENDBRANCH  16  23
ENDBRANCH  10  19
ENDBRANCH   1  12
BRANCH   9  24
ATOM     24  C   LIG    1       -3.072  -0.034   0.053  0.00  0.00    +0.370 C 
BRANCH  24  25
ATOM     25  C   LIG    1       -3.269  -0.512  -1.363  0.00  0.00    -0.120 A 
ATOM     26  C   LIG    1       -4.483  -0.320  -1.994  0.00  0.00    +0.040 A 
ATOM     27  C   LIG    1       -4.662  -0.753  -3.295  0.00  0.00    +0.030 A 
ATOM     28  C   LIG    1       -3.629  -1.389  -3.960  0.00  0.00    -0.020 A 
ATOM     29  C   LIG    1       -2.416  -1.586  -3.325  0.00  0.00    +0.030 A 
ATOM     30 CL   LIG    1       -3.855  -1.940  -5.591  0.00  0.00    -0.060 Cl
ATOM     31  C   LIG    1       -2.236  -1.147  -2.027  0.00  0.00    +0.050 A 
ENDBRANCH  24  25
ENDBRANCH   9  24
TORSDOF 5
