REMARK  Name = ZINCvU00000006Ow.0
REMARK                            x       y       z     vdW  Elec       q    Type
REMARK                         _______ _______ _______ _____ _____    ______ ____
ROOT
ATOM      1  C   LIG    1        2.080   5.246  -0.536  0.00  0.00    +0.510 C 
ATOM      2  N   LIG    1        2.201   4.126   0.204  0.00  0.00    -0.550 N 
ATOM      3  C   LIG    1        1.050   3.391   0.498  0.00  0.00    +0.160 A 
ATOM      4  C   LIG    1       -0.083   3.611  -0.282  0.00  0.00    -0.050 A 
ATOM      5  C   LIG    1       -1.254   2.927  -0.025  0.00  0.00    +0.060 A 
ATOM      6  C   LIG    1       -1.310   2.010   1.009  0.00  0.00    +0.020 A 
ATOM      7  C   LIG    1       -0.194   1.783   1.790  0.00  0.00    +0.080 A 
ATOM      8  C   LIG    1        0.990   2.466   1.535  0.00  0.00    -0.120 A 
ATOM      9  S   LIG    1        2.400   2.129   2.541  0.00  0.00    -0.090 S 
ATOM     10  C   LIG    1        3.484   3.543   2.188  0.00  0.00    +0.110 C 
ATOM     11  C   LIG    1        3.529   3.733   0.664  0.00  0.00    +0.290 C 
ATOM     12  O   LIG    1        3.071   5.811  -0.948  0.00  0.00    -0.440 OA
ENDROOT
BRANCH  11  13
ATOM     13  C   LIG    1        4.525   4.808   0.314  0.00  0.00    -0.050 A 
ATOM     14  C   LIG    1        4.497   6.019   0.980  0.00  0.00    +0.010 A 
ATOM     15  C   LIG    1        5.413   7.004   0.662  0.00  0.00    +0.010 A 
ATOM     16  C   LIG    1        6.351   6.782  -0.329  0.00  0.00    +0.000 A 
ATOM     17  C   LIG    1        6.376   5.572  -0.998  0.00  0.00    +0.010 A 
ATOM     18  C   LIG    1        5.462   4.586  -0.677  0.00  0.00    +0.010 A 
ENDBRANCH  11  13
BRANCH   1  19
ATOM     19  C   LIG    1        0.713   5.796  -0.853  0.00  0.00    +0.260 C 
BRANCH  19  20
ATOM     20  O   LIG    1        0.795   7.213  -1.013  0.00  0.00    -0.290 OA
BRANCH  20  28
ATOM     21  O   LIG    1       -2.616  13.127  -2.365  0.00  0.00    -0.460 OA
ATOM     22  C   LIG    1       -2.657  11.918  -2.223  0.00  0.00    +0.510 A 
ATOM     23  C   LIG    1       -3.892  11.252  -2.365  0.00  0.00    -0.080 A 
ATOM     24  C   LIG    1       -3.954   9.904  -2.209  0.00  0.00    +0.170 A 
ATOM     25  C   LIG    1       -2.717   9.186  -1.895  0.00  0.00    -0.200 A 
ATOM     26  C   LIG    1       -2.713   7.797  -1.723  0.00  0.00    +0.140 A 
ATOM     27  C   LIG    1       -1.546   7.153  -1.431  0.00  0.00    -0.090 A 
ATOM     28  C   LIG    1       -0.358   7.869  -1.303  0.00  0.00    +0.190 A 
ATOM     29  C   LIG    1       -0.344   9.245  -1.464  0.00  0.00    -0.020 A 
ATOM     30  C   LIG    1       -1.519   9.915  -1.766  0.00  0.00    +0.190 A 
ATOM     31  O   LIG    1       -1.527  11.255  -1.934  0.00  0.00    -0.270 OA
ENDBRANCH  20  28
ENDBRANCH  19  20
ENDBRANCH   1  19
TORSDOF 4
