REMARK  Name = ZINCvU0000000IlR.0
REMARK                            x       y       z     vdW  Elec       q    Type
REMARK                         _______ _______ _______ _____ _____    ______ ____
ROOT
ATOM      1  C   LIG    1       -4.339   5.845   0.104  0.00  0.00    +0.010 C 
ATOM      2  C   LIG    1       -4.933   5.299  -1.197  0.00  0.00    +0.090 C 
ENDROOT
BRANCH   1   8
ATOM      3  N   LIG    1       -7.302   9.406   1.385  0.00  0.00    -0.670 N 
ATOM      4  H   LIG    1       -7.977   8.746   1.609  0.00  0.00    +0.410 HD
ATOM      5  C   LIG    1       -6.124   9.015   0.860  0.00  0.00    +0.700 C 
ATOM      6  N   LIG    1       -5.838   7.703   0.751  0.00  0.00    -0.680 N 
ATOM      7  H   LIG    1       -6.479   7.040   1.050  0.00  0.00    +0.410 HD
ATOM      8  C   LIG    1       -4.660   7.312   0.226  0.00  0.00    +0.540 C 
ATOM      9  O   LIG    1       -3.858   8.141  -0.148  0.00  0.00    -0.440 OA
ATOM     10  O   LIG    1       -5.321   9.846   0.485  0.00  0.00    -0.500 OA
BRANCH   3  15
ATOM     11  C   LIG    1       -8.318  14.915   2.286  0.00  0.00    +0.100 C 
ATOM     12  C   LIG    1       -8.048  13.452   2.047  0.00  0.00    -0.100 A 
ATOM     13  C   LIG    1       -6.746  12.987   2.010  0.00  0.00    +0.030 A 
ATOM     14  C   LIG    1       -6.496  11.646   1.791  0.00  0.00    +0.030 A 
ATOM     15  C   LIG    1       -7.553  10.765   1.607  0.00  0.00    +0.150 A 
ATOM     16  C   LIG    1       -8.859  11.236   1.639  0.00  0.00    -0.110 A 
ATOM     17  C   LIG    1      -10.009  10.284   1.433  0.00  0.00    +0.080 C 
ATOM     18  C   LIG    1       -9.103  12.576   1.863  0.00  0.00    +0.030 A 
ENDBRANCH   3  15
ENDBRANCH   1   8
BRANCH   1  19
ATOM     19  S   LIG    1       -2.543   5.618   0.089  0.00  0.00    +0.090 S 
BRANCH  19  20
ATOM     20  C   LIG    1       -2.456   3.859   0.094  0.00  0.00    +0.190 A 
ATOM     21  N   LIG    1       -3.560   3.121   0.106  0.00  0.00    -0.510 NA
ATOM     22  C   LIG    1       -3.508   1.799   0.110  0.00  0.00    +0.260 A 
ATOM     23  N   LIG    1       -2.380   1.129   0.102  0.00  0.00    -0.460 NA
ATOM     24  C   LIG    1       -1.204   1.775   0.085  0.00  0.00    +0.170 A 
ATOM     25  C   LIG    1        0.018   1.091   0.082  0.00  0.00    +0.060 A 
ATOM     26  C   LIG    1        1.185   1.798   0.068  0.00  0.00    +0.070 A 
ATOM     27  C   LIG    1        1.181   3.189   0.063  0.00  0.00    +0.040 A 
ATOM     28  C   LIG    1        0.007   3.886   0.071  0.00  0.00    +0.060 A 
ATOM     29  C   LIG    1       -1.206   3.191   0.085  0.00  0.00    -0.120 A 
BRANCH  22  30
ATOM     30  C   LIG    1       -4.803   1.028   0.125  0.00  0.00    +0.550 C 
ATOM     31  F   LIG    1       -5.017   0.501   1.402  0.00  0.00    -0.160 F 
ATOM     32  F   LIG    1       -4.734  -0.015  -0.805  0.00  0.00    -0.160 F 
ATOM     33  F   LIG    1       -5.858   1.883  -0.210  0.00  0.00    -0.160 F 
ENDBRANCH  22  30
ENDBRANCH  19  20
ENDBRANCH   1  19
TORSDOF 5
