REMARK  Name = ZINCqH0000034L0W.0
REMARK                            x       y       z     vdW  Elec       q    Type
REMARK                         _______ _______ _______ _____ _____    ______ ____
ROOT
ATOM      1  N   LIG    1        0.706  -3.583  -3.710  0.00  0.00    -1.060 N 
ATOM      2  H   LIG    1        0.976  -2.858  -4.295  0.00  0.00    +0.420 HD
ENDROOT
BRANCH   1   6
ATOM      3  C   LIG    1        3.526  -6.361  -2.401  0.00  0.00    +0.180 A 
ATOM      4  C   LIG    1        3.095  -6.378  -3.721  0.00  0.00    +0.030 A 
ATOM      5  C   LIG    1        2.161  -5.458  -4.154  0.00  0.00    +0.050 A 
ATOM      6  C   LIG    1        1.653  -4.516  -3.271  0.00  0.00    +0.110 A 
ATOM      7  C   LIG    1        2.088  -4.495  -1.952  0.00  0.00    +0.030 A 
ATOM      8  C   LIG    1        3.018  -5.418  -1.517  0.00  0.00    -0.010 A 
BRANCH   3  13
ATOM      9  C   LIG    1        7.290  -9.211  -3.345  0.00  0.00    +0.300 C 
ATOM     10  N   LIG    1        6.253  -8.732  -2.428  0.00  0.00    -0.740 N 
ATOM     11  H   LIG    1        6.160  -9.133  -1.549  0.00  0.00    +0.400 HD
ATOM     12  C   LIG    1        5.428  -7.735  -2.805  0.00  0.00    +0.700 C 
ATOM     13  N   LIG    1        4.474  -7.295  -1.961  0.00  0.00    -0.690 N 
ATOM     14  H   LIG    1        4.444  -7.624  -1.049  0.00  0.00    +0.410 HD
ATOM     15  O   LIG    1        5.544  -7.234  -3.906  0.00  0.00    -0.570 OA
ENDBRANCH   3  13
ENDBRANCH   1   6
BRANCH   1  16
ATOM     16  S   LIG    1       -0.873  -3.719  -3.232  0.00  0.00    +2.690 S 
ATOM     17  O   LIG    1       -1.579  -2.666  -3.875  0.00  0.00    -0.950 OA
ATOM     18  O   LIG    1       -1.220  -5.089  -3.377  0.00  0.00    -0.940 OA
BRANCH  16  19
ATOM     19  C   LIG    1       -0.927  -3.372  -1.505  0.00  0.00    -0.690 A 
ATOM     20  C   LIG    1       -1.030  -2.065  -1.066  0.00  0.00    +0.030 A 
ATOM     21  C   LIG    1       -1.067  -1.792   0.289  0.00  0.00    -0.120 A 
ATOM     22  C   LIG    1       -1.012  -2.827   1.204  0.00  0.00    -0.020 A 
ATOM     23  C   LIG    1       -0.914  -4.134   0.764  0.00  0.00    -0.120 A 
ATOM     24  C   LIG    1       -0.853  -5.262   1.762  0.00  0.00    +0.090 C 
ATOM     25  C   LIG    1       -1.060  -2.530   2.681  0.00  0.00    +0.100 C 
ATOM     26  C   LIG    1       -1.175  -0.368   0.768  0.00  0.00    +0.090 C 
ATOM     27  C   LIG    1       -1.096  -0.938  -2.063  0.00  0.00    +0.100 C 
ATOM     28  C   LIG    1       -0.871  -4.406  -0.590  0.00  0.00    +0.030 A 
ATOM     29  C   LIG    1       -0.764  -5.831  -1.069  0.00  0.00    +0.100 C 
ENDBRANCH  16  19
ENDBRANCH   1  16
TORSDOF 4
