REMARK  Name = ZINCrD000000AluS.0
REMARK                            x       y       z     vdW  Elec       q    Type
REMARK                         _______ _______ _______ _____ _____    ______ ____
ROOT
ATOM      1  O   LIG    1        2.907  11.825  -0.067  0.00  0.00    -0.510 OA
ATOM      2  C   LIG    1        3.909  11.142  -0.080  0.00  0.00    +0.500 C 
ATOM      3  N   LIG    1        3.811   9.801   0.016  0.00  0.00    -0.670 N 
ATOM      4  H   LIG    1        4.613   9.260   0.082  0.00  0.00    +0.410 HD
ENDROOT
BRANCH   3   5
ATOM      5  C   LIG    1        2.553   9.190   0.019  0.00  0.00    +0.190 A 
ATOM      6  C   LIG    1        2.343   8.034   0.760  0.00  0.00    -0.050 A 
ATOM      7  C   LIG    1        1.100   7.431   0.764  0.00  0.00    +0.070 A 
ATOM      8  C   LIG    1        0.061   7.978   0.035  0.00  0.00    -0.090 A 
ATOM      9  C   LIG    1        0.267   9.130  -0.712  0.00  0.00    +0.150 A 
ATOM     10  C   LIG    1        1.512   9.738  -0.718  0.00  0.00    -0.010 A 
BRANCH   9  11
ATOM     11  O   LIG    1       -0.754   9.663  -1.433  0.00  0.00    -0.310 OA
BRANCH  11  12
ATOM     12  C   LIG    1       -2.010   8.984  -1.380  0.00  0.00    +0.290 C 
BRANCH  12  13
ATOM     13  C   LIG    1       -3.014   9.716  -2.234  0.00  0.00    +0.120 A 
ATOM     14  C   LIG    1       -2.631  10.860  -2.908  0.00  0.00    -0.010 A 
ATOM     15  C   LIG    1       -3.562  11.525  -3.691  0.00  0.00    +0.070 A 
ATOM     16  C   LIG    1       -4.848  11.014  -3.766  0.00  0.00    -0.030 A 
ATOM     17  C   LIG    1       -5.159   9.867  -3.059  0.00  0.00    +0.260 A 
ATOM     18  N   LIG    1       -4.247   9.257  -2.328  0.00  0.00    -0.480 NA
ENDBRANCH  12  13
ENDBRANCH  11  12
ENDBRANCH   9  11
ENDBRANCH   3   5
BRANCH   2  19
ATOM     19  C   LIG    1        5.263  11.792  -0.204  0.00  0.00    +0.300 C 
BRANCH  19  20
ATOM     20  N   LIG    1        5.101  13.245  -0.292  0.00  0.00    -0.580 N 
ATOM     21  C   LIG    1        5.117  13.887   1.007  0.00  0.00    +0.270 C 
ATOM     22  C   LIG    1        4.941  15.405   0.893  0.00  0.00    +0.020 C 
ATOM     23  C   LIG    1        6.285  16.039   0.526  0.00  0.00    +0.010 C 
ATOM     24  C   LIG    1        6.826  15.480  -0.774  0.00  0.00    +0.000 C 
ATOM     25  C   LIG    1        5.884  15.937  -1.883  0.00  0.00    +0.030 C 
ATOM     26  C   LIG    1        4.610  15.089  -1.900  0.00  0.00    +0.060 C 
ATOM     27  C   LIG    1        4.978  13.668  -1.537  0.00  0.00    +0.540 C 
ATOM     28  O   LIG    1        5.165  12.874  -2.434  0.00  0.00    -0.550 OA
ENDBRANCH  19  20
ENDBRANCH   2  19
TORSDOF 6
