REMARK  Name = ZINCnE000004TjlA.0
REMARK                            x       y       z     vdW  Elec       q    Type
REMARK                         _______ _______ _______ _____ _____    ______ ____
ROOT
ATOM      1  C   LIG    1       -6.343   1.438   0.025  0.00  0.00    -0.020 C 
ATOM      2  C   LIG    1       -7.249   2.068  -1.035  0.00  0.00    +0.010 C 
ATOM      3  C   LIG    1       -6.947   3.565  -1.143  0.00  0.00    +0.030 C 
ATOM      4  C   LIG    1       -7.240   4.239   0.206  0.00  0.00    +0.140 C 
ATOM      5  N   LIG    1       -6.477   3.543   1.251  0.00  0.00    -0.590 N 
ATOM      6  C   LIG    1       -5.662   4.229   2.077  0.00  0.00    +0.490 C 
ATOM      7  O   LIG    1       -5.487   5.417   1.908  0.00  0.00    -0.440 OA
ATOM      8  C   LIG    1       -6.625   2.087   1.383  0.00  0.00    +0.240 C 
ENDROOT
BRANCH   4   9
ATOM      9  C   LIG    1       -6.821   5.685   0.152  0.00  0.00    +0.520 C 
ATOM     10  O   LIG    1       -7.593   6.558   0.511  0.00  0.00    -0.700 OA
ATOM     11  O   LIG    1       -5.710   5.983  -0.251  0.00  0.00    -0.680 OA
ENDBRANCH   4   9
BRANCH   1  13
ATOM     12  C   LIG    1       -5.634  -0.713   1.079  0.00  0.00    +0.000 C 
ATOM     13  C   LIG    1       -6.622  -0.064   0.108  0.00  0.00    +0.000 C 
ENDBRANCH   1  13
BRANCH   6  14
ATOM     14  C   LIG    1       -4.967   3.518   3.211  0.00  0.00    +0.220 C 
BRANCH  14  15
ATOM     15  O   LIG    1       -4.165   4.452   3.937  0.00  0.00    -0.270 OA
BRANCH  15  16
ATOM     16  C   LIG    1       -3.467   3.970   4.999  0.00  0.00    +0.160 A 
ATOM     17  C   LIG    1       -3.549   2.625   5.331  0.00  0.00    -0.060 A 
ATOM     18  C   LIG    1       -2.842   2.138   6.414  0.00  0.00    +0.100 A 
ATOM     19  C   LIG    1       -2.046   2.987   7.161  0.00  0.00    -0.080 A 
ATOM     20  C   LIG    1       -1.959   4.328   6.829  0.00  0.00    +0.010 A 
ATOM     21 CL   LIG    1       -0.959   5.392   7.768  0.00  0.00    -0.040 Cl
ATOM     22 CL   LIG    1       -1.155   2.370   8.517  0.00  0.00    -0.060 Cl
ATOM     23  C   LIG    1       -2.668   4.821   5.749  0.00  0.00    +0.020 A 
ENDBRANCH  15  16
ENDBRANCH  14  15
ENDBRANCH   6  14
TORSDOF 5
