REMARK  Name = ZINCvU0000000IxR.0
REMARK                            x       y       z     vdW  Elec       q    Type
REMARK                         _______ _______ _______ _____ _____    ______ ____
ROOT
ATOM      1  C   LIG    1       -0.659   4.027   0.014  0.00  0.00    +0.020 C 
ATOM      2  C   LIG    1        0.096   4.236  -1.300  0.00  0.00    +0.090 C 
ENDROOT
BRANCH   1   3
ATOM      3  C   LIG    1       -1.717   5.090   0.160  0.00  0.00    +0.540 C 
ATOM      4  N   LIG    1       -1.380   6.322   0.588  0.00  0.00    -0.660 N 
ATOM      5  H   LIG    1       -0.473   6.503   0.879  0.00  0.00    +0.420 HD
ATOM      6  O   LIG    1       -2.873   4.835  -0.109  0.00  0.00    -0.500 OA
BRANCH   4   7
ATOM      7  C   LIG    1       -2.338   7.339   0.614  0.00  0.00    +0.160 A 
ATOM      8  C   LIG    1       -3.436   7.284  -0.233  0.00  0.00    +0.020 A 
ATOM      9  C   LIG    1       -4.385   8.287  -0.201  0.00  0.00    +0.040 A 
ATOM     10  C   LIG    1       -4.242   9.357   0.664  0.00  0.00    +0.000 A 
ATOM     11  C   LIG    1       -3.152   9.429   1.508  0.00  0.00    +0.040 A 
ATOM     12  C   LIG    1       -2.192   8.421   1.490  0.00  0.00    -0.080 A 
BRANCH  12  13
ATOM     13  C   LIG    1       -1.019   8.492   2.396  0.00  0.00    -0.050 A 
ATOM     14  C   LIG    1       -0.679   7.397   3.188  0.00  0.00    +0.000 A 
ATOM     15  C   LIG    1        0.416   7.468   4.024  0.00  0.00    +0.010 A 
ATOM     16  C   LIG    1        1.169   8.626   4.086  0.00  0.00    +0.000 A 
ATOM     17  C   LIG    1        0.834   9.718   3.306  0.00  0.00    +0.010 A 
ATOM     18  C   LIG    1       -0.257   9.657   2.462  0.00  0.00    +0.030 A 
ENDBRANCH  12  13
ENDBRANCH   4   7
ENDBRANCH   1   3
BRANCH   1  19
ATOM     19  S   LIG    1       -1.440   2.394   0.008  0.00  0.00    +0.090 S 
BRANCH  19  24
ATOM     20  N   LIG    1        0.016   0.002  -0.031  0.00  0.00    -0.410 N 
ATOM     21  C   LIG    1        1.340  -0.346  -0.056  0.00  0.00    +0.390 A 
ATOM     22  N   LIG    1        2.031   0.759  -0.057  0.00  0.00    -0.280 NA
ATOM     23  N   LIG    1        1.243   1.774  -0.035  0.00  0.00    -0.290 NA
ATOM     24  C   LIG    1       -0.006   1.369  -0.018  0.00  0.00    +0.160 A 
BRANCH  20  30
ATOM     25  C   LIG    1       -1.973  -0.881  -1.097  0.00  0.00    +0.150 A 
ATOM     26  C   LIG    1       -3.059  -1.741  -1.084  0.00  0.00    -0.060 A 
ATOM     27  C   LIG    1       -3.268  -2.574  -0.000  0.00  0.00    +0.080 A 
ATOM     28  C   LIG    1       -2.394  -2.554   1.070  0.00  0.00    -0.010 A 
ATOM     29  C   LIG    1       -1.305  -1.702   1.062  0.00  0.00    +0.080 A 
ATOM     30  C   LIG    1       -1.089  -0.864  -0.021  0.00  0.00    +0.060 A 
BRANCH  25  32
ATOM     31  C   LIG    1       -2.717  -0.128  -3.227  0.00  0.00    +0.260 C 
ATOM     32  O   LIG    1       -1.769  -0.057  -2.159  0.00  0.00    -0.300 OA
ENDBRANCH  25  32
ENDBRANCH  20  30
ENDBRANCH  19  24
ENDBRANCH   1  19
TORSDOF 7
