REMARK  Name = ZINCfA0000021lss.0
REMARK                            x       y       z     vdW  Elec       q    Type
REMARK                         _______ _______ _______ _____ _____    ______ ____
ROOT
ATOM      1  C   LIG    1       -0.724   2.012   1.250  0.00  0.00    -0.050 A 
ATOM      2  C   LIG    1       -1.857   2.796   1.139  0.00  0.00    +0.010 A 
ATOM      3  C   LIG    1       -2.506   3.238   2.276  0.00  0.00    +0.000 A 
ATOM      4  C   LIG    1       -2.018   2.904   3.525  0.00  0.00    -0.110 A 
ATOM      5  C   LIG    1       -0.882   2.124   3.637  0.00  0.00    +0.030 A 
ATOM      6  C   LIG    1       -0.235   1.677   2.499  0.00  0.00    +0.020 A 
ENDROOT
BRANCH   4   7
ATOM      7  C   LIG    1       -2.723   3.391   4.765  0.00  0.00    +0.050 C 
ATOM      8  C   LIG    1       -2.786   4.932   4.775  0.00  0.00    +0.070 C 
ATOM      9  C   LIG    1       -4.292   5.272   4.776  0.00  0.00    +0.270 C 
ATOM     10  N   LIG    1       -4.947   4.068   5.349  0.00  0.00    -0.520 N 
ATOM     11  H   LIG    1       -5.917   4.031   5.076  0.00  0.00    +0.430 HD
ATOM     12  H   LIG    1       -4.862   4.065   6.354  0.00  0.00    +0.430 HD
ATOM     13  C   LIG    1       -4.195   2.927   4.762  0.00  0.00    +0.280 C 
ENDBRANCH   4   7
BRANCH   1  15
ATOM     14  C   LIG    1        0.002  -0.004   0.002  0.00  0.00    +0.050 C 
ATOM     15  C   LIG    1       -0.019   1.526   0.010  0.00  0.00    -0.040 C 
ATOM     16  C   LIG    1       -0.759   2.033  -1.229  0.00  0.00    +0.030 C 
ATOM     17  C   LIG    1        1.417   2.055  -0.000  0.00  0.00    +0.050 C 
ENDBRANCH   1  15
TORSDOF 2
