REMARK  Name = ZINCpe000000UNBZ.0
REMARK                            x       y       z     vdW  Elec       q    Type
REMARK                         _______ _______ _______ _____ _____    ______ ____
ROOT
ATOM      1  C   LIG    1       -1.627   5.000   2.518  0.00  0.00    +0.300 C 
ENDROOT
BRANCH   1   2
ATOM      2  C   LIG    1       -1.458   3.479   2.532  0.00  0.00    +0.160 C 
ATOM      3  C   LIG    1       -0.790   3.027   1.231  0.00  0.00    +0.170 C 
ATOM      4  N   LIG    1       -0.700   1.560   1.217  0.00  0.00    -0.520 NA
ATOM      5  C   LIG    1       -2.035   0.955   1.335  0.00  0.00    +0.150 C 
ATOM      6  C   LIG    1       -2.691   1.428   2.635  0.00  0.00    +0.220 C 
ATOM      7  O   LIG    1       -2.741   2.857   2.644  0.00  0.00    -0.380 OA
BRANCH   4   8
ATOM      8  C   LIG    1       -0.013   1.086   0.008  0.00  0.00    +0.270 C 
BRANCH   8   9
ATOM      9  C   LIG    1       -0.742   1.585  -1.213  0.00  0.00    -0.130 A 
ATOM     10  C   LIG    1       -1.750   0.825  -1.775  0.00  0.00    +0.010 A 
ATOM     11  C   LIG    1       -2.422   1.285  -2.892  0.00  0.00    +0.000 A 
ATOM     12  C   LIG    1       -2.078   2.501  -3.453  0.00  0.00    +0.000 A 
ATOM     13  C   LIG    1       -1.066   3.259  -2.894  0.00  0.00    +0.000 A 
ATOM     14  C   LIG    1       -0.398   2.801  -1.774  0.00  0.00    +0.010 A 
ENDBRANCH   8   9
ENDBRANCH   4   8
ENDBRANCH   1   2
BRANCH   1  16
ATOM     15  C   LIG    1       -2.392   6.753   4.028  0.00  0.00    +0.520 C 
ATOM     16  N   LIG    1       -2.160   5.444   3.809  0.00  0.00    -0.720 N 
ATOM     17  H   LIG    1       -2.347   4.795   4.505  0.00  0.00    +0.410 HD
ATOM     18  O   LIG    1       -2.159   7.564   3.157  0.00  0.00    -0.530 OA
BRANCH  15  23
ATOM     19  C   LIG    1       -5.389   8.956   8.376  0.00  0.00    +0.280 C 
ATOM     20  N   LIG    1       -4.616   8.408   7.259  0.00  0.00    -0.610 N 
ATOM     21  C   LIG    1       -3.494   9.190   6.756  0.00  0.00    +0.260 C 
ATOM     22  C   LIG    1       -3.112   8.733   5.347  0.00  0.00    +0.060 C 
ATOM     23  C   LIG    1       -2.941   7.209   5.356  0.00  0.00    +0.000 C 
ATOM     24  C   LIG    1       -4.311   6.570   5.594  0.00  0.00    +0.100 C 
ATOM     25  C   LIG    1       -4.983   7.224   6.767  0.00  0.00    +0.520 C 
ATOM     26  O   LIG    1       -5.908   6.645   7.295  0.00  0.00    -0.550 OA
ENDBRANCH  15  23
ENDBRANCH   1  16
TORSDOF 5
