REMARK  Name = ZINCpk00000eav10.0
REMARK                            x       y       z     vdW  Elec       q    Type
REMARK                         _______ _______ _______ _____ _____    ______ ____
ROOT
ATOM      1  C   LIG    1       -4.017   1.623  -1.608  0.00  0.00    +0.240 C 
ATOM      2  C   LIG    1       -5.449   1.117  -1.827  0.00  0.00    +0.030 C 
ATOM      3  C   LIG    1       -5.483  -0.383  -1.524  0.00  0.00    +0.090 C 
ATOM      4  C   LIG    1       -4.819  -0.653  -0.204  0.00  0.00    +0.520 C 
ATOM      5  N   LIG    1       -4.003   0.212   0.400  0.00  0.00    -0.720 N 
ATOM      6  H   LIG    1       -3.591  -0.059   1.236  0.00  0.00    +0.410 HD
ATOM      7  O   LIG    1       -5.035  -1.714   0.341  0.00  0.00    -0.540 OA
ATOM      8  C   LIG    1       -3.691   1.539  -0.116  0.00  0.00    +0.310 C 
ENDROOT
BRANCH   8   9
ATOM      9  C   LIG    1       -2.225   1.821   0.089  0.00  0.00    +0.060 A 
ATOM     10  C   LIG    1       -1.658   3.044   0.216  0.00  0.00    -0.100 A 
ATOM     11  C   LIG    1       -0.281   2.864   0.384  0.00  0.00    +0.240 A 
ATOM     12  N   LIG    1       -0.031   1.580   0.365  0.00  0.00    -0.280 NA
ATOM     13  N   LIG    1       -1.243   0.901   0.184  0.00  0.00    -0.360 N 
ATOM     14  C   LIG    1       -1.413  -0.552   0.105  0.00  0.00    +0.350 C 
ENDBRANCH   8   9
BRANCH   1  16
ATOM     15  C   LIG    1       -3.656   3.288  -3.350  0.00  0.00    +0.570 C 
ATOM     16  N   LIG    1       -3.914   3.014  -2.056  0.00  0.00    -0.720 N 
ATOM     17  H   LIG    1       -4.030   3.738  -1.421  0.00  0.00    +0.400 HD
ATOM     18  O   LIG    1       -3.510   2.380  -4.146  0.00  0.00    -0.520 OA
BRANCH  15  23
ATOM     19  C   LIG    1       -3.067   6.295  -5.527  0.00  0.00    +0.120 A 
ATOM     20  C   LIG    1       -3.357   7.326  -4.644  0.00  0.00    -0.050 A 
ATOM     21  C   LIG    1       -3.743   7.043  -3.347  0.00  0.00    +0.040 A 
ATOM     22  C   LIG    1       -3.847   5.734  -2.923  0.00  0.00    +0.010 A 
ATOM     23  C   LIG    1       -3.552   4.691  -3.803  0.00  0.00    -0.110 A 
ATOM     24  C   LIG    1       -3.163   4.978  -5.111  0.00  0.00    -0.050 A 
ATOM     25  C   LIG    1       -2.848   3.858  -6.069  0.00  0.00    +0.110 C 
BRANCH  19  27
ATOM     26  C   LIG    1       -2.611   7.960  -7.163  0.00  0.00    +0.250 C 
ATOM     27  O   LIG    1       -2.688   6.579  -6.801  0.00  0.00    -0.310 OA
ENDBRANCH  19  27
ENDBRANCH  15  23
ENDBRANCH   1  16
TORSDOF 4
