REMARK  Name = ZINCpk00000y6yt5.0
REMARK                            x       y       z     vdW  Elec       q    Type
REMARK                         _______ _______ _______ _____ _____    ______ ____
ROOT
ATOM      1  C   LIG    1       -5.237   1.499   7.817  0.00  0.00    +0.310 A 
ATOM      2  N   LIG    1       -4.556   2.184   6.934  0.00  0.00    -0.530 NA
ATOM      3  C   LIG    1       -3.413   1.552   6.654  0.00  0.00    +0.400 A 
ATOM      4  N   LIG    1       -3.358   0.446   7.359  0.00  0.00    -0.340 NA
ATOM      5  N   LIG    1       -4.533   0.397   8.126  0.00  0.00    -0.470 N 
ATOM      6  H   LIG    1       -4.789  -0.298   8.752  0.00  0.00    +0.440 HD
ENDROOT
BRANCH   3   7
ATOM      7  N   LIG    1       -2.439   1.991   5.755  0.00  0.00    -0.440 N 
ATOM      8  C   LIG    1       -1.314   1.049   5.695  0.00  0.00    +0.210 C 
ATOM      9  C   LIG    1       -0.193   1.651   4.842  0.00  0.00    +0.320 C 
ATOM     10  N   LIG    1       -0.753   2.034   3.537  0.00  0.00    -0.600 N 
ATOM     11  C   LIG    1       -1.961   2.872   3.518  0.00  0.00    +0.310 C 
ATOM     12  C   LIG    1       -0.171   1.633   2.390  0.00  0.00    +0.660 C 
ATOM     13  O   LIG    1        0.831   0.945   2.425  0.00  0.00    -0.570 OA
ATOM     14  C   LIG    1       -3.017   2.217   4.423  0.00  0.00    +0.210 C 
BRANCH  12  15
ATOM     15  O   LIG    1       -0.698   1.994   1.205  0.00  0.00    -0.360 OA
BRANCH  15  16
ATOM     16  C   LIG    1       -0.019   1.526   0.010  0.00  0.00    +0.140 C 
ATOM     17  C   LIG    1       -0.759   2.033  -1.229  0.00  0.00    +0.080 C 
ATOM     18  C   LIG    1        1.417   2.055  -0.000  0.00  0.00    +0.040 C 
ATOM     19  C   LIG    1        0.002  -0.004   0.002  0.00  0.00    +0.040 C 
ENDBRANCH  15  16
ENDBRANCH  12  15
ENDBRANCH   3   7
BRANCH   1  20
ATOM     20  C   LIG    1       -6.578   1.881   8.389  0.00  0.00    +0.280 C 
BRANCH  20  24
ATOM     21  C   LIG    1       -6.797   5.447  12.018  0.00  0.00    +0.140 C 
ATOM     22  C   LIG    1       -6.484   4.178  11.268  0.00  0.00    +0.090 A 
ATOM     23  C   LIG    1       -6.874   3.879  10.007  0.00  0.00    -0.110 A 
ATOM     24  C   LIG    1       -6.378   2.609   9.693  0.00  0.00    +0.080 A 
ATOM     25  N   LIG    1       -5.707   2.166  10.725  0.00  0.00    -0.290 NA
ATOM     26  N   LIG    1       -5.759   3.138  11.732  0.00  0.00    -0.470 N 
ATOM     27  H   LIG    1       -5.348   3.075  12.608  0.00  0.00    +0.440 HD
ENDBRANCH  20  24
ENDBRANCH   1  20
TORSDOF 5
