REMARK  Name = ZINCpk00000y6yt5.1
REMARK                            x       y       z     vdW  Elec       q    Type
REMARK                         _______ _______ _______ _____ _____    ______ ____
ROOT
ATOM      1  C   LIG    1       -0.742   1.585  -1.213  0.00  0.00    +0.300 A 
ATOM      2  N   LIG    1       -1.649   0.926  -1.888  0.00  0.00    -0.530 NA
ATOM      3  C   LIG    1       -2.082   1.671  -2.909  0.00  0.00    +0.410 A 
ATOM      4  N   LIG    1       -1.449   2.820  -2.893  0.00  0.00    -0.340 NA
ATOM      5  N   LIG    1       -0.576   2.785  -1.793  0.00  0.00    -0.470 N 
ATOM      6  H   LIG    1        0.028   3.489  -1.509  0.00  0.00    +0.440 HD
ENDROOT
BRANCH   3   7
ATOM      7  N   LIG    1       -3.049   1.289  -3.841  0.00  0.00    -0.440 N 
ATOM      8  C   LIG    1       -2.680   0.028  -4.497  0.00  0.00    +0.210 C 
ATOM      9  C   LIG    1       -3.843  -0.449  -5.373  0.00  0.00    +0.310 C 
ATOM     10  N   LIG    1       -4.216   0.642  -6.287  0.00  0.00    -0.600 N 
ATOM     11  C   LIG    1       -4.468   1.973  -5.716  0.00  0.00    +0.320 C 
ATOM     12  C   LIG    1       -4.324   0.426  -7.613  0.00  0.00    +0.660 C 
ATOM     13  O   LIG    1       -4.634   1.338  -8.354  0.00  0.00    -0.560 OA
ATOM     14  C   LIG    1       -3.280   2.354  -4.826  0.00  0.00    +0.210 C 
BRANCH  12  15
ATOM     15  O   LIG    1       -4.089  -0.800  -8.117  0.00  0.00    -0.360 OA
BRANCH  15  16
ATOM     16  C   LIG    1       -4.224  -0.960  -9.554  0.00  0.00    +0.140 C 
ATOM     17  C   LIG    1       -5.653  -0.610  -9.974  0.00  0.00    +0.040 C 
ATOM     18  C   LIG    1       -3.921  -2.409  -9.937  0.00  0.00    +0.080 C 
ATOM     19  C   LIG    1       -3.241  -0.028 -10.265  0.00  0.00    +0.040 C 
ENDBRANCH  15  16
ENDBRANCH  12  15
ENDBRANCH   3   7
BRANCH   1  20
ATOM     20  C   LIG    1       -0.013   1.086   0.008  0.00  0.00    +0.260 C 
BRANCH  20  26
ATOM     21  C   LIG    1       -1.506   3.977   3.925  0.00  0.00    +0.150 C 
ATOM     22  C   LIG    1       -1.381   2.822   2.965  0.00  0.00    +0.080 A 
ATOM     23  N   LIG    1       -2.042   1.695   3.031  0.00  0.00    -0.280 NA
ATOM     24  N   LIG    1       -1.641   0.889   1.958  0.00  0.00    -0.460 N 
ATOM     25  H   LIG    1       -1.968  -0.002   1.760  0.00  0.00    +0.440 HD
ATOM     26  C   LIG    1       -0.718   1.572   1.248  0.00  0.00    +0.090 A 
ATOM     27  C   LIG    1       -0.536   2.769   1.852  0.00  0.00    -0.110 A 
ENDBRANCH  20  26
ENDBRANCH   1  20
TORSDOF 5
