REMARK  Name = ZINCrD0000074ANG.0
REMARK                            x       y       z     vdW  Elec       q    Type
REMARK                         _______ _______ _______ _____ _____    ______ ____
ROOT
ATOM      1  C   LIG    1        6.248  -5.972  -0.088  0.00  0.00    +0.220 C 
ENDROOT
BRANCH   1   2
ATOM      2  O   LIG    1        4.839  -5.621  -0.073  0.00  0.00    -0.350 OA
BRANCH   2   3
ATOM      3  C   LIG    1        4.537  -4.313  -0.064  0.00  0.00    +0.460 C 
ATOM      4  O   LIG    1        5.420  -3.489  -0.068  0.00  0.00    -0.510 OA
BRANCH   3   5
ATOM      5  C   LIG    1        3.095  -3.873  -0.047  0.00  0.00    +0.130 C 
BRANCH   5   6
ATOM      6  C   LIG    1        3.029  -2.344  -0.039  0.00  0.00    +0.060 C 
BRANCH   6   7
ATOM      7  C   LIG    1        1.588  -1.904  -0.023  0.00  0.00    +0.430 C 
ATOM      8  O   LIG    1        0.700  -2.733  -0.018  0.00  0.00    -0.450 OA
BRANCH   7  13
ATOM      9  C   LIG    1        1.413   3.444   0.007  0.00  0.00    +0.140 C 
ATOM     10  C   LIG    1        1.189   1.954   0.001  0.00  0.00    -0.180 A 
ATOM     11  C   LIG    1       -0.017   1.368   0.010  0.00  0.00    -0.020 A 
ATOM     12  C   LIG    1        0.002  -0.004   0.002  0.00  0.00    +0.120 A 
ATOM     13  C   LIG    1        1.270  -0.528  -0.013  0.00  0.00    -0.320 A 
ATOM     14  S   LIG    1        2.435   0.789  -0.017  0.00  0.00    +0.230 S 
ENDBRANCH   7  13
ENDBRANCH   6   7
ENDBRANCH   5   6
ENDBRANCH   3   5
ENDBRANCH   2   3
ENDBRANCH   1   2
BRANCH   1  15
ATOM     15  C   LIG    1        6.394  -7.495  -0.098  0.00  0.00    +0.330 C 
BRANCH  15  16
ATOM     16  N   LIG    1        5.848  -8.030  -1.347  0.00  0.00    -0.550 N 
ATOM     17  C   LIG    1        6.637  -8.178  -2.433  0.00  0.00    +0.490 C 
ATOM     18  C   LIG    1        6.048  -8.695  -3.721  0.00  0.00    +0.180 C 
ATOM     19  O   LIG    1        4.976  -9.596  -3.432  0.00  0.00    -0.300 OA
ATOM     20  C   LIG    1        4.074  -9.193  -2.498  0.00  0.00    +0.080 A 
ATOM     21  C   LIG    1        2.745  -9.564  -2.595  0.00  0.00    +0.030 A 
ATOM     22  C   LIG    1        1.841  -9.145  -1.635  0.00  0.00    +0.020 A 
ATOM     23  C   LIG    1        2.260  -8.357  -0.579  0.00  0.00    +0.020 A 
ATOM     24  C   LIG    1        3.588  -7.982  -0.476  0.00  0.00    +0.040 A 
ATOM     25  C   LIG    1        7.129  -9.428  -4.517  0.00  0.00    +0.100 C 
ATOM     26  O   LIG    1        7.815  -7.895  -2.373  0.00  0.00    -0.500 OA
ATOM     27  C   LIG    1        4.499  -8.403  -1.432  0.00  0.00    +0.090 A 
ENDBRANCH  15  16
ENDBRANCH   1  15
TORSDOF 8
