REMARK  Name = ZINCqH00000o3YW4.0
REMARK                            x       y       z     vdW  Elec       q    Type
REMARK                         _______ _______ _______ _____ _____    ______ ____
ROOT
ATOM      1  C   LIG    1       -0.538   1.097   6.552  0.00  0.00    +0.140 C 
ATOM      2  C   LIG    1       -1.319   2.183   6.739  0.00  0.00    -0.080 C 
ENDROOT
BRANCH   1   6
ATOM      3  C   LIG    1        0.756   0.065   2.652  0.00  0.00    +0.130 A 
ATOM      4  C   LIG    1       -0.044   1.188   2.844  0.00  0.00    +0.010 A 
ATOM      5  C   LIG    1       -0.470   1.523   4.103  0.00  0.00    +0.040 A 
ATOM      6  C   LIG    1       -0.090   0.739   5.199  0.00  0.00    -0.070 A 
ATOM      7  C   LIG    1        0.719  -0.388   5.003  0.00  0.00    +0.060 A 
ATOM      8  C   LIG    1        1.135  -0.718   3.740  0.00  0.00    +0.030 A 
BRANCH   3   9
ATOM      9  N   LIG    1        1.181  -0.274   1.372  0.00  0.00    -1.070 N 
ATOM     10  H   LIG    1        1.877   0.245   0.939  0.00  0.00    +0.430 HD
BRANCH   9  12
ATOM     11  C   LIG    1       -1.246  -1.108   0.401  0.00  0.00    -0.280 C 
ATOM     12  S   LIG    1        0.500  -1.563   0.586  0.00  0.00    +2.610 S 
ATOM     13  O   LIG    1        1.147  -1.584  -0.679  0.00  0.00    -0.950 OA
ATOM     14  O   LIG    1        0.640  -2.643   1.499  0.00  0.00    -0.950 OA
ENDBRANCH   9  12
ENDBRANCH   3   9
ENDBRANCH   1   6
BRANCH   2  15
ATOM     15  C   LIG    1       -1.765   2.540   8.085  0.00  0.00    +0.550 C 
ATOM     16  N   LIG    1       -2.543   3.624   8.271  0.00  0.00    -0.670 N 
ATOM     17  H   LIG    1       -2.745   4.210   7.525  0.00  0.00    +0.420 HD
ATOM     18  O   LIG    1       -1.433   1.857   9.037  0.00  0.00    -0.520 OA
BRANCH  16  19
ATOM     19  C   LIG    1       -3.059   3.904   9.540  0.00  0.00    +0.150 A 
ATOM     20  C   LIG    1       -3.399   2.866  10.398  0.00  0.00    +0.050 A 
ATOM     21  C   LIG    1       -3.904   3.146  11.652  0.00  0.00    +0.040 A 
ATOM     22  C   LIG    1       -4.082   4.457  12.051  0.00  0.00    +0.050 A 
ATOM     23  C   LIG    1       -3.749   5.494  11.197  0.00  0.00    -0.160 A 
ATOM     24  C   LIG    1       -3.239   5.221   9.944  0.00  0.00    +0.040 A 
BRANCH  23  25
ATOM     25  C   LIG    1       -3.944   6.922  11.636  0.00  0.00    +0.510 C 
ATOM     26  F   LIG    1       -2.991   7.736  11.014  0.00  0.00    -0.180 F 
ATOM     27  F   LIG    1       -3.795   7.008  13.025  0.00  0.00    -0.170 F 
ATOM     28  F   LIG    1       -5.228   7.349  11.278  0.00  0.00    -0.180 F 
ENDBRANCH  23  25
ENDBRANCH  16  19
ENDBRANCH   2  15
TORSDOF 6
