REMARK  Name = ZINCrD000000BXjA.0
REMARK                            x       y       z     vdW  Elec       q    Type
REMARK                         _______ _______ _______ _____ _____    ______ ____
ROOT
ATOM      1  O   LIG    1       -0.036  -0.112  -0.251  0.00  0.00    -0.560 OA
ATOM      2  C   LIG    1       -0.044   1.093  -0.087  0.00  0.00    +0.710 C 
ATOM      3  N   LIG    1       -1.211   1.766  -0.088  0.00  0.00    -0.730 N 
ATOM      4  H   LIG    1       -1.217   2.727   0.043  0.00  0.00    +0.400 HD
ATOM      5  N   LIG    1        1.116   1.756   0.090  0.00  0.00    -0.690 N 
ATOM      6  H   LIG    1        1.118   2.724   0.146  0.00  0.00    +0.410 HD
ENDROOT
BRANCH   5   7
ATOM      7  C   LIG    1        2.319   1.047   0.194  0.00  0.00    +0.180 A 
ATOM      8  C   LIG    1        2.337  -0.207   0.790  0.00  0.00    +0.050 A 
ATOM      9  C   LIG    1        3.522  -0.908   0.889  0.00  0.00    +0.050 A 
ATOM     10  C   LIG    1        4.698  -0.355   0.401  0.00  0.00    +0.100 A 
ATOM     11  C   LIG    1        4.682   0.901  -0.191  0.00  0.00    +0.070 A 
ATOM     12  C   LIG    1        3.496   1.600  -0.293  0.00  0.00    +0.010 A 
BRANCH  10  13
ATOM     13  N   LIG    1        5.904  -1.065   0.506  0.00  0.00    -0.240 N 
ATOM     14  C   LIG    1        6.060  -2.296   1.065  0.00  0.00    +0.140 A 
ATOM     15  C   LIG    1        7.375  -2.596   0.948  0.00  0.00    +0.160 A 
ATOM     16  N   LIG    1        7.952  -1.552   0.344  0.00  0.00    -0.260 NA
ATOM     17  N   LIG    1        7.056  -0.663   0.095  0.00  0.00    -0.080 NA
ENDBRANCH  10  13
ENDBRANCH   5   7
BRANCH   3  18
ATOM     18  C   LIG    1       -2.472   1.046  -0.286  0.00  0.00    +0.260 C 
ATOM     19  C   LIG    1       -3.019   0.539   1.068  0.00  0.00    +0.040 C 
ATOM     20  C   LIG    1       -4.046   1.636   1.456  0.00  0.00    +0.180 C 
ATOM     21  N   LIG    1       -4.659   2.005   0.154  0.00  0.00    -0.480 N 
ATOM     22  C   LIG    1       -3.553   2.000  -0.828  0.00  0.00    +0.190 C 
BRANCH  21  23
ATOM     23  C   LIG    1       -5.262   3.263   0.223  0.00  0.00    +0.090 A 
ATOM     24  C   LIG    1       -6.633   3.388   0.036  0.00  0.00    +0.050 A 
ATOM     25  C   LIG    1       -7.227   4.633   0.110  0.00  0.00    +0.040 A 
ATOM     26  C   LIG    1       -6.458   5.755   0.358  0.00  0.00    +0.030 A 
ATOM     27  C   LIG    1       -5.091   5.634   0.539  0.00  0.00    -0.020 A 
ATOM     28 CL   LIG    1       -4.130   7.046   0.852  0.00  0.00    -0.070 Cl
ATOM     29  C   LIG    1       -4.491   4.391   0.472  0.00  0.00    -0.010 A 
ENDBRANCH  21  23
ENDBRANCH   3  18
TORSDOF 4
