REMARK  Name = ZINCpk00000y6wRd.0
REMARK                            x       y       z     vdW  Elec       q    Type
REMARK                         _______ _______ _______ _____ _____    ______ ____
ROOT
ATOM      1  S   LIG    1       -1.368  -0.853   0.382  0.00  0.00    +2.700 S 
ATOM      2  O   LIG    1       -1.872  -0.285   1.583  0.00  0.00    -0.950 OA
ATOM      3  O   LIG    1       -1.037  -2.229   0.251  0.00  0.00    -0.960 OA
ENDROOT
BRANCH   1   7
ATOM      4  C   LIG    1       -4.430   0.036  -2.834  0.00  0.00    +0.190 A 
ATOM      5  C   LIG    1       -3.559  -1.034  -2.981  0.00  0.00    -0.030 A 
ATOM      6  C   LIG    1       -2.626  -1.303  -1.998  0.00  0.00    +0.170 A 
ATOM      7  C   LIG    1       -2.560  -0.507  -0.870  0.00  0.00    -0.720 A 
ATOM      8  C   LIG    1       -3.430   0.557  -0.719  0.00  0.00    +0.160 A 
ATOM      9  C   LIG    1       -4.361   0.834  -1.701  0.00  0.00    -0.090 A 
BRANCH   4  10
ATOM     10  O   LIG    1       -5.349   0.303  -3.799  0.00  0.00    -0.300 OA
BRANCH  10  11
ATOM     11  C   LIG    1       -6.212   1.421  -3.582  0.00  0.00    +0.220 C 
BRANCH  11  12
ATOM     12  C   LIG    1       -7.171   1.563  -4.766  0.00  0.00    +0.200 C 
BRANCH  12  14
ATOM     13  C   LIG    1       -8.972   0.458  -5.897  0.00  0.00    +0.200 C 
ATOM     14  O   LIG    1       -8.032   0.424  -4.821  0.00  0.00    -0.390 OA
ENDBRANCH  12  14
ENDBRANCH  11  12
ENDBRANCH  10  11
ENDBRANCH   4  10
ENDBRANCH   1   7
BRANCH   1  15
ATOM     15  N   LIG    1        0.002  -0.004   0.002  0.00  0.00    -1.120 NA
ATOM     16  H   LIG    1        0.818  -0.477  -0.226  0.00  0.00    +0.420 HD
BRANCH  15  17
ATOM     17  C   LIG    1       -0.018   1.461   0.010  0.00  0.00    +0.280 C 
BRANCH  17  18
ATOM     18  C   LIG    1        1.418   1.990  -0.001  0.00  0.00    -0.010 C 
ATOM     19  C   LIG    1        1.400   3.516   0.134  0.00  0.00    +0.050 C 
ATOM     20  C   LIG    1        2.831   4.019   0.362  0.00  0.00    +0.160 C 
ATOM     21  C   LIG    1        3.725   3.383  -0.676  0.00  0.00    +0.200 A 
ATOM     22  N   LIG    1        4.926   3.751  -1.016  0.00  0.00    -0.490 NA
ATOM     23  C   LIG    1        5.384   2.930  -1.976  0.00  0.00    +0.140 A 
ATOM     24  C   LIG    1        4.426   2.018  -2.239  0.00  0.00    +0.120 A 
ATOM     25  N   LIG    1        3.377   2.304  -1.416  0.00  0.00    -0.460 N 
ATOM     26  C   LIG    1        2.096   1.601  -1.319  0.00  0.00    +0.290 C 
ENDBRANCH  17  18
ENDBRANCH  15  17
ENDBRANCH   1  15
TORSDOF 8
