REMARK  Name = ZINCrg00000Ahgll.0
REMARK                            x       y       z     vdW  Elec       q    Type
REMARK                         _______ _______ _______ _____ _____    ______ ____
ROOT
ATOM      1  C   LIG    1       -0.520   3.859  -2.144  0.00  0.00    +0.510 C 
ATOM      2  N   LIG    1       -0.893   3.055  -1.129  0.00  0.00    -0.610 N 
ATOM      3  C   LIG    1       -0.755   1.594  -1.233  0.00  0.00    +0.300 C 
ATOM      4  C   LIG    1       -0.013   1.086   0.008  0.00  0.00    +0.170 C 
ATOM      5  N   LIG    1       -0.701   1.560   1.216  0.00  0.00    -0.530 NA
ATOM      6  C   LIG    1       -0.681   3.026   1.300  0.00  0.00    +0.170 C 
ATOM      7  C   LIG    1       -1.450   3.614   0.112  0.00  0.00    +0.280 C 
ATOM      8  O   LIG    1       -0.063   3.380  -3.160  0.00  0.00    -0.530 OA
ENDROOT
BRANCH   1   9
ATOM      9  C   LIG    1       -0.670   5.353  -2.016  0.00  0.00    +0.360 C 
BRANCH   9  15
ATOM     10  C   LIG    1       -0.001   6.093  -6.606  0.00  0.00    +0.090 C 
ATOM     11  C   LIG    1       -0.073   6.928  -5.326  0.00  0.00    +0.160 C 
ATOM     12  N   LIG    1        1.237   6.960  -4.654  0.00  0.00    -0.710 N 
ATOM     13  H   LIG    1        2.064   7.319  -5.013  0.00  0.00    +0.440 HD
ATOM     14  C   LIG    1        1.063   6.400  -3.443  0.00  0.00    +0.710 C 
ATOM     15  N   LIG    1       -0.198   5.998  -3.243  0.00  0.00    -0.560 N 
ATOM     16  O   LIG    1        1.951   6.271  -2.624  0.00  0.00    -0.540 OA
ATOM     17  C   LIG    1       -0.980   6.265  -4.308  0.00  0.00    +0.540 C 
ATOM     18  O   LIG    1       -2.162   6.025  -4.426  0.00  0.00    -0.450 OA
BRANCH  11  19
ATOM     19  C   LIG    1       -0.558   8.345  -5.637  0.00  0.00    -0.050 C 
ATOM     20  C   LIG    1       -1.237   8.579  -6.987  0.00  0.00    +0.050 C 
ATOM     21  C   LIG    1        0.174   9.117  -6.736  0.00  0.00    +0.040 C 
ENDBRANCH  11  19
ENDBRANCH   9  15
ENDBRANCH   1   9
BRANCH   5  22
ATOM     22  C   LIG    1       -0.123   0.955   2.423  0.00  0.00    +0.230 C 
BRANCH  22  23
ATOM     23  C   LIG    1       -0.680   1.641   3.644  0.00  0.00    -0.090 A 
ATOM     24  C   LIG    1       -0.034   2.742   4.174  0.00  0.00    +0.000 A 
ATOM     25  C   LIG    1       -0.547   3.373   5.291  0.00  0.00    +0.000 A 
ATOM     26  C   LIG    1       -1.701   2.898   5.885  0.00  0.00    +0.000 A 
ATOM     27  C   LIG    1       -2.345   1.793   5.359  0.00  0.00    +0.000 A 
ATOM     28  C   LIG    1       -1.834   1.165   4.239  0.00  0.00    +0.020 A 
ENDBRANCH  22  23
ENDBRANCH   5  22
TORSDOF 5
