REMARK  Name = ZINCqH0000035OY0.0
REMARK                            x       y       z     vdW  Elec       q    Type
REMARK                         _______ _______ _______ _____ _____    ______ ____
ROOT
ATOM      1  C   LIG    1       -0.664   5.612  -1.140  0.00  0.00    -0.190 A 
ATOM      2  C   LIG    1       -0.115   4.414  -1.492  0.00  0.00    +0.230 A 
ATOM      3  N   LIG    1       -0.921   3.441  -1.021  0.00  0.00    -0.360 N 
ATOM      4  N   LIG    1       -1.992   4.046  -0.352  0.00  0.00    -0.270 NA
ATOM      5  C   LIG    1       -1.844   5.343  -0.420  0.00  0.00    +0.250 A 
ENDROOT
BRANCH   1   9
ATOM      6  C   LIG    1        0.913   9.461  -2.035  0.00  0.00    +0.120 A 
ATOM      7  C   LIG    1       -0.267   9.347  -1.314  0.00  0.00    -0.010 A 
ATOM      8  C   LIG    1       -0.781   8.100  -1.022  0.00  0.00    +0.050 A 
ATOM      9  C   LIG    1       -0.114   6.955  -1.453  0.00  0.00    -0.030 A 
ATOM     10  C   LIG    1        1.073   7.073  -2.172  0.00  0.00    +0.040 A 
ATOM     11  C   LIG    1        1.579   8.323  -2.466  0.00  0.00    -0.070 A 
BRANCH   6  13
ATOM     12  C   LIG    1        2.634  10.736  -3.068  0.00  0.00    +0.250 C 
ATOM     13  O   LIG    1        1.416  10.691  -2.322  0.00  0.00    -0.320 OA
ENDBRANCH   6  13
ENDBRANCH   1   9
BRANCH   3  14
ATOM     14  C   LIG    1       -0.709   2.000  -1.175  0.00  0.00    +0.490 C 
BRANCH  14  15
ATOM     15  N   LIG    1       -0.018   1.476   0.010  0.00  0.00    -0.520 NA
ATOM     16  C   LIG    1        1.414   1.852  -0.002  0.00  0.00    +0.240 C 
ATOM     17  C   LIG    1        2.143   0.705   0.662  0.00  0.00    -0.070 A 
ATOM     18  C   LIG    1        3.409   0.618   1.213  0.00  0.00    +0.020 A 
ATOM     19  C   LIG    1        3.845  -0.566   1.769  0.00  0.00    +0.070 A 
ATOM     20  C   LIG    1        3.004  -1.683   1.774  0.00  0.00    -0.170 A 
ATOM     21  C   LIG    1        1.726  -1.589   1.216  0.00  0.00    +0.100 A 
ATOM     22  C   LIG    1        1.303  -0.399   0.664  0.00  0.00    -0.120 A 
ATOM     23  C   LIG    1        0.002  -0.004   0.002  0.00  0.00    +0.250 C 
BRANCH  20  24
ATOM     24  C   LIG    1        3.462  -2.951   2.364  0.00  0.00    +0.400 C 
ATOM     25  O   LIG    1        2.730  -3.918   2.367  0.00  0.00    -0.460 OA
ATOM     26  C   LIG    1        4.841  -3.049   2.965  0.00  0.00    +0.080 C 
ENDBRANCH  20  24
ENDBRANCH  14  15
ENDBRANCH   3  14
TORSDOF 5
