REMARK  Name = ZINCrD000000AKUj.0
REMARK                            x       y       z     vdW  Elec       q    Type
REMARK                         _______ _______ _______ _____ _____    ______ ____
ROOT
ATOM      1  C   LIG    1       -2.910   1.619   2.450  0.00  0.00    +0.190 A 
ATOM      2  N   LIG    1       -3.521   0.856   3.322  0.00  0.00    -0.470 NA
ATOM      3  C   LIG    1       -3.997   1.696   4.268  0.00  0.00    +0.210 A 
ATOM      4  N   LIG    1       -3.658   2.908   3.914  0.00  0.00    -0.370 NA
ATOM      5  O   LIG    1       -3.035   2.880   2.874  0.00  0.00    +0.090 OA
ENDROOT
BRANCH   1  11
ATOM      6  O   LIG    1        1.091   2.558  -1.988  0.00  0.00    -0.580 OA
ATOM      7  C   LIG    1       -0.078   2.260  -2.139  0.00  0.00    +0.710 C 
ATOM      8  N   LIG    1       -0.729   1.575  -1.178  0.00  0.00    -0.630 N 
ATOM      9  C   LIG    1       -0.012   1.082   0.006  0.00  0.00    +0.300 C 
ATOM     10  C   LIG    1       -0.731   1.578   1.264  0.00  0.00    +0.040 C 
ATOM     11  C   LIG    1       -2.205   1.161   1.199  0.00  0.00    +0.130 C 
ATOM     12  C   LIG    1       -2.866   1.802  -0.023  0.00  0.00    +0.040 C 
ATOM     13  C   LIG    1       -2.169   1.308  -1.294  0.00  0.00    +0.280 C 
ATOM     14  N   LIG    1       -0.723   2.616  -3.268  0.00  0.00    -0.720 N 
ATOM     15  H   LIG    1       -1.673   2.443  -3.358  0.00  0.00    +0.400 HD
BRANCH  14  16
ATOM     16  C   LIG    1        0.011   3.264  -4.358  0.00  0.00    +0.240 C 
ATOM     17  C   LIG    1       -0.649   4.465  -5.038  0.00  0.00    +0.010 C 
ATOM     18  C   LIG    1       -0.557   3.125  -5.772  0.00  0.00    +0.020 C 
ENDBRANCH  14  16
ENDBRANCH   1  11
BRANCH   3  19
ATOM     19  C   LIG    1       -4.766   1.314   5.479  0.00  0.00    +0.000 A 
ATOM     20  C   LIG    1       -5.187   2.293   6.360  0.00  0.00    +0.070 A 
ATOM     21  C   LIG    1       -5.916   1.923   7.498  0.00  0.00    -0.030 A 
ATOM     22  C   LIG    1       -6.378   2.871   8.430  0.00  0.00    -0.010 A 
ATOM     23  C   LIG    1       -7.076   2.434   9.515  0.00  0.00    +0.240 A 
ATOM     24  N   LIG    1       -7.329   1.148   9.712  0.00  0.00    -0.480 NA
ATOM     25  C   LIG    1       -6.930   0.210   8.886  0.00  0.00    +0.320 A 
ATOM     26  C   LIG    1       -6.202   0.553   7.735  0.00  0.00    -0.100 A 
ATOM     27  C   LIG    1       -5.755  -0.417   6.823  0.00  0.00    +0.060 A 
ATOM     28  C   LIG    1       -5.053  -0.039   5.723  0.00  0.00    +0.050 A 
ENDBRANCH   3  19
TORSDOF 3
