REMARK  Name = ZINCqH0000000N7K.0
REMARK                            x       y       z     vdW  Elec       q    Type
REMARK                         _______ _______ _______ _____ _____    ______ ____
ROOT
ATOM      1  N   LIG    1        4.728   1.133  -0.258  0.00  0.00    -0.740 N 
ATOM      2  H   LIG    1        4.734   0.163  -0.269  0.00  0.00    +0.390 HD
ATOM      3  C   LIG    1        3.560   1.797  -0.150  0.00  0.00    +0.700 C 
ATOM      4  N   LIG    1        2.402   1.115  -0.056  0.00  0.00    -0.680 N 
ATOM      5  H   LIG    1        2.414   0.147   0.009  0.00  0.00    +0.410 HD
ATOM      6  O   LIG    1        3.552   3.013  -0.137  0.00  0.00    -0.570 OA
ENDROOT
BRANCH   4   7
ATOM      7  C   LIG    1        1.182   1.802  -0.053  0.00  0.00    +0.180 A 
ATOM      8  C   LIG    1        0.112   1.309   0.692  0.00  0.00    -0.040 A 
ATOM      9  C   LIG    1       -1.084   1.967   0.705  0.00  0.00    +0.080 A 
ATOM     10  C   LIG    1       -1.239   3.143  -0.032  0.00  0.00    -0.130 A 
ATOM     11  C   LIG    1       -2.350   4.075  -0.237  0.00  0.00    -0.050 A 
ATOM     12  C   LIG    1       -1.903   5.047  -1.048  0.00  0.00    +0.220 A 
ATOM     13  N   LIG    1       -0.599   4.806  -1.391  0.00  0.00    -0.600 N 
ATOM     14  H   LIG    1       -0.064   5.366  -1.974  0.00  0.00    +0.420 HD
ATOM     15  C   LIG    1       -0.162   3.650  -0.783  0.00  0.00    +0.110 A 
ATOM     16  C   LIG    1        1.048   2.966  -0.790  0.00  0.00    +0.000 A 
ENDBRANCH   4   7
BRANCH   1  17
ATOM     17  C   LIG    1        5.987   1.875  -0.360  0.00  0.00    +0.310 C 
BRANCH  17  18
ATOM     18  C   LIG    1        7.138   0.896  -0.599  0.00  0.00    +0.160 C 
ATOM     19  C   LIG    1        7.730   0.314   0.695  0.00  0.00    +0.050 C 
ATOM     20  C   LIG    1        9.113   0.466   0.035  0.00  0.00    +0.020 C 
ATOM     21  C   LIG    1        8.495   1.584  -0.821  0.00  0.00    +0.050 C 
BRANCH  18  23
ATOM     22  C   LIG    1        6.608   0.248  -2.887  0.00  0.00    +0.650 C 
ATOM     23  N   LIG    1        6.822  -0.118  -1.608  0.00  0.00    -0.700 N 
ATOM     24  H   LIG    1        6.768  -1.053  -1.355  0.00  0.00    +0.410 HD
ATOM     25  O   LIG    1        6.763   1.405  -3.223  0.00  0.00    -0.550 OA
BRANCH  22  26
ATOM     26  O   LIG    1        6.221  -0.670  -3.794  0.00  0.00    -0.370 OA
BRANCH  26  28
ATOM     27  C   LIG    1        7.309   0.390  -5.698  0.00  0.00    +0.040 C 
ATOM     28  C   LIG    1        6.009  -0.204  -5.153  0.00  0.00    +0.140 C 
ATOM     29  C   LIG    1        4.916   0.867  -5.160  0.00  0.00    +0.040 C 
ATOM     30  C   LIG    1        5.577  -1.379  -6.033  0.00  0.00    +0.080 C 
ENDBRANCH  26  28
ENDBRANCH  22  26
ENDBRANCH  18  23
ENDBRANCH  17  18
ENDBRANCH   1  17
TORSDOF 6
