REMARK  Name = ZINCkj00000GeTGU.0
REMARK                            x       y       z     vdW  Elec       q    Type
REMARK                         _______ _______ _______ _____ _____    ______ ____
ROOT
ATOM      1  C   LIG    1       -2.528  -2.421   3.640  0.00  0.00    +0.080 C 
ATOM      2  C   LIG    1       -2.509  -0.891   3.643  0.00  0.00    +0.230 C 
ATOM      3  C   LIG    1       -3.865  -0.364   4.141  0.00  0.00    +0.260 C 
ATOM      4  N   LIG    1       -3.878   1.081   3.950  0.00  0.00    -0.390 N 
ATOM      5  C   LIG    1       -5.094   1.759   4.428  0.00  0.00    +0.270 C 
ATOM      6  C   LIG    1       -5.077   3.112   3.667  0.00  0.00    +0.070 C 
ATOM      7  C   LIG    1       -4.228   2.845   2.398  0.00  0.00    +0.080 C 
ATOM      8  C   LIG    1       -3.877   1.356   2.488  0.00  0.00    +0.170 C 
ATOM      9  C   LIG    1       -2.481   1.020   1.964  0.00  0.00    +0.310 C 
ATOM     10  H   LIG    1       -3.060   1.491   4.377  0.00  0.00    +0.420 HD
ATOM     11  N   LIG    1       -2.251  -0.404   2.282  0.00  0.00    -0.630 N 
ATOM     12  C   LIG    1       -1.804  -1.249   1.331  0.00  0.00    +0.540 C 
ATOM     13  O   LIG    1       -1.526  -2.394   1.619  0.00  0.00    -0.490 OA
ENDROOT
BRANCH  12  14
ATOM     14  C   LIG    1       -1.649  -0.771  -0.090  0.00  0.00    +0.230 C 
BRANCH  14  15
ATOM     15  C   LIG    1       -0.362   0.001  -0.223  0.00  0.00    -0.140 A 
ATOM     16  C   LIG    1       -0.380   1.383  -0.212  0.00  0.00    +0.000 A 
ATOM     17  C   LIG    1        0.801   2.091  -0.333  0.00  0.00    +0.020 A 
ATOM     18  C   LIG    1        2.000   1.417  -0.467  0.00  0.00    +0.020 A 
ATOM     19  C   LIG    1        2.018   0.035  -0.477  0.00  0.00    +0.020 A 
ATOM     20  C   LIG    1        0.837  -0.673  -0.355  0.00  0.00    +0.010 A 
ENDBRANCH  14  15
BRANCH  14  21
ATOM     21  N   LIG    1       -1.623  -1.927  -0.995  0.00  0.00    -0.820 NA
ATOM     22  H   LIG    1       -0.854  -2.541  -0.775  0.00  0.00    +0.360 HD
ATOM     23  H   LIG    1       -1.585  -1.631  -1.959  0.00  0.00    +0.360 HD
ENDBRANCH  14  21
ENDBRANCH  12  14
TORSDOF 3
