REMARK  Name = ZINCkj00000GeTGU.1
REMARK                            x       y       z     vdW  Elec       q    Type
REMARK                         _______ _______ _______ _____ _____    ______ ____
ROOT
ATOM      1  C   LIG    1       -0.013   1.086   0.008  0.00  0.00    +0.100 C 
ATOM      2  C   LIG    1       -0.729   1.579   1.267  0.00  0.00    +0.230 C 
ATOM      3  C   LIG    1       -0.010   1.057   2.513  0.00  0.00    +0.250 C 
ATOM      4  N   LIG    1       -0.742   1.374   3.720  0.00  0.00    -0.380 N 
ATOM      5  C   LIG    1       -0.867   2.825   3.963  0.00  0.00    +0.260 C 
ATOM      6  C   LIG    1       -1.941   2.918   5.074  0.00  0.00    +0.060 C 
ATOM      7  C   LIG    1       -2.754   1.610   4.956  0.00  0.00    +0.090 C 
ATOM      8  C   LIG    1       -2.124   0.861   3.749  0.00  0.00    +0.160 C 
ATOM      9  C   LIG    1       -2.890   1.290   2.492  0.00  0.00    +0.310 C 
ATOM     10  H   LIG    1       -0.245   0.980   4.504  0.00  0.00    +0.430 HD
ATOM     11  N   LIG    1       -2.105   1.055   1.298  0.00  0.00    -0.620 N 
ATOM     12  C   LIG    1       -2.615   0.364   0.259  0.00  0.00    +0.490 C 
ATOM     13  O   LIG    1       -1.937   0.163  -0.726  0.00  0.00    -0.500 OA
ENDROOT
BRANCH  12  14
ATOM     14  C   LIG    1       -4.026  -0.160   0.323  0.00  0.00    +0.230 C 
BRANCH  14  15
ATOM     15  C   LIG    1       -4.990   0.954   0.005  0.00  0.00    -0.090 A 
ATOM     16  C   LIG    1       -5.215   1.320  -1.309  0.00  0.00    +0.030 A 
ATOM     17  C   LIG    1       -6.102   2.340  -1.600  0.00  0.00    +0.020 A 
ATOM     18  C   LIG    1       -6.758   2.999  -0.577  0.00  0.00    +0.020 A 
ATOM     19  C   LIG    1       -6.528   2.637   0.737  0.00  0.00    +0.020 A 
ATOM     20  C   LIG    1       -5.644   1.615   1.028  0.00  0.00    +0.000 A 
ENDBRANCH  14  15
BRANCH  14  21
ATOM     21  N   LIG    1       -4.191  -1.243  -0.656  0.00  0.00    -0.810 NA
ATOM     22  H   LIG    1       -3.602  -2.030  -0.427  0.00  0.00    +0.350 HD
ATOM     23  H   LIG    1       -4.009  -0.915  -1.593  0.00  0.00    +0.360 HD
ENDBRANCH  14  21
ENDBRANCH  12  14
TORSDOF 3
