REMARK  Name = ZINCpe000000W3Fv.0
REMARK                            x       y       z     vdW  Elec       q    Type
REMARK                         _______ _______ _______ _____ _____    ______ ____
ROOT
ATOM      1  C   LIG    1        5.784  -0.384  -1.295  0.00  0.00    +0.500 C 
ATOM      2  N   LIG    1        4.750   0.163  -0.626  0.00  0.00    -0.720 N 
ATOM      3  H   LIG    1        4.686   1.127  -0.535  0.00  0.00    +0.400 HD
ATOM      4  O   LIG    1        5.864  -1.588  -1.409  0.00  0.00    -0.520 OA
ENDROOT
BRANCH   2   5
ATOM      5  C   LIG    1        3.721  -0.698  -0.038  0.00  0.00    +0.290 C 
ATOM      6  C   LIG    1        4.153  -1.120   1.368  0.00  0.00    +0.040 C 
BRANCH   5   7
ATOM      7  C   LIG    1        2.419   0.058   0.043  0.00  0.00    -0.130 A 
ATOM      8  C   LIG    1        2.425   1.435   0.145  0.00  0.00    +0.050 A 
ATOM      9  C   LIG    1        1.231   2.129   0.218  0.00  0.00    -0.020 A 
ATOM     10  C   LIG    1        0.029   1.446   0.189  0.00  0.00    +0.050 A 
ATOM     11  C   LIG    1        0.018   0.068   0.087  0.00  0.00    -0.070 A 
ATOM     12  C   LIG    1        1.214  -0.630   0.013  0.00  0.00    +0.140 A 
BRANCH  12  13
ATOM     13  O   LIG    1        1.207  -1.985  -0.088  0.00  0.00    -0.310 OA
ATOM     14  C   LIG    1       -0.070  -2.626  -0.113  0.00  0.00    +0.250 C 
ENDBRANCH  12  13
ENDBRANCH   5   7
ENDBRANCH   2   5
BRANCH   1  15
ATOM     15  C   LIG    1        6.843   0.502  -1.901  0.00  0.00    +0.360 C 
BRANCH  15  20
ATOM     16  C   LIG    1        9.693  -1.596  -3.027  0.00  0.00    +0.130 C 
ATOM     17  N   LIG    1        8.836  -1.458  -4.217  0.00  0.00    -0.710 N 
ATOM     18  H   LIG    1        8.998  -1.838  -5.095  0.00  0.00    +0.450 HD
ATOM     19  C   LIG    1        7.786  -0.701  -3.850  0.00  0.00    +0.710 C 
ATOM     20  N   LIG    1        7.850  -0.327  -2.567  0.00  0.00    -0.560 N 
ATOM     21  O   LIG    1        6.881  -0.392  -4.600  0.00  0.00    -0.540 OA
ATOM     22  C   LIG    1        9.813  -3.066  -2.618  0.00  0.00    +0.090 C 
ATOM     23  C   LIG    1        8.959  -0.801  -1.965  0.00  0.00    +0.540 C 
ATOM     24  O   LIG    1        9.297  -0.630  -0.814  0.00  0.00    -0.460 OA
BRANCH  16  25
ATOM     25  C   LIG    1       11.076  -0.996  -3.287  0.00  0.00    +0.210 C 
BRANCH  25  27
ATOM     26  C   LIG    1       12.959  -1.129  -4.764  0.00  0.00    +0.210 C 
ATOM     27  O   LIG    1       11.658  -1.620  -4.433  0.00  0.00    -0.380 OA
ENDBRANCH  25  27
ENDBRANCH  16  25
ENDBRANCH  15  20
ENDBRANCH   1  15
TORSDOF 7
