REMARK  Name = ZINCvU000000047r.0
REMARK                            x       y       z     vdW  Elec       q    Type
REMARK                         _______ _______ _______ _____ _____    ______ ____
ROOT
ATOM      1  C   LIG    1        2.574   5.541   0.074  0.00  0.00    +0.130 C 
ATOM      2  C   LIG    1        3.765   6.172   0.061  0.00  0.00    -0.080 C 
ENDROOT
BRANCH   2   3
ATOM      3  C   LIG    1        3.818   7.635   0.029  0.00  0.00    +0.550 C 
ATOM      4  N   LIG    1        5.005   8.268   0.117  0.00  0.00    -0.610 N 
ATOM      5  C   LIG    1        6.261   7.506   0.129  0.00  0.00    +0.290 C 
ATOM      6  C   LIG    1        7.177   8.056  -0.976  0.00  0.00    +0.000 C 
ATOM      7  C   LIG    1        7.354   9.563  -0.780  0.00  0.00    +0.170 C 
ATOM      8  C   LIG    1        5.995  10.258  -0.891  0.00  0.00    +0.040 C 
ATOM      9  C   LIG    1        5.066   9.733   0.208  0.00  0.00    +0.290 C 
ATOM     10  O   LIG    1        2.791   8.279  -0.078  0.00  0.00    -0.540 OA
BRANCH   7  11
ATOM     11  O   LIG    1        8.234  10.073  -1.784  0.00  0.00    -0.310 OA
BRANCH  11  12
ATOM     12  C   LIG    1        9.568   9.973  -1.545  0.00  0.00    +0.130 A 
ATOM     13  C   LIG    1       10.021   9.487  -0.327  0.00  0.00    -0.080 A 
ATOM     14  C   LIG    1       11.377   9.382  -0.088  0.00  0.00    +0.040 A 
ATOM     15  C   LIG    1       12.283   9.770  -1.057  0.00  0.00    -0.040 A 
ATOM     16  C   LIG    1       11.835  10.260  -2.270  0.00  0.00    +0.050 A 
ATOM     17  C   LIG    1       10.479  10.363  -2.516  0.00  0.00    -0.020 A 
ENDBRANCH  11  12
ENDBRANCH   7  11
ENDBRANCH   2   3
BRANCH   1  22
ATOM     18  C   LIG    1        1.246   2.030   0.149  0.00  0.00    +0.130 A 
ATOM     19  C   LIG    1        2.426   1.299   0.172  0.00  0.00    -0.070 A 
ATOM     20  C   LIG    1        3.649   1.947   0.153  0.00  0.00    +0.050 A 
ATOM     21  C   LIG    1        3.704   3.324   0.123  0.00  0.00    -0.010 A 
ATOM     22  C   LIG    1        2.520   4.070   0.106  0.00  0.00    -0.040 A 
ATOM     23  C   LIG    1        1.287   3.413   0.119  0.00  0.00    +0.020 A 
BRANCH  18  24
ATOM     24  O   LIG    1        0.049   1.386   0.162  0.00  0.00    -0.310 OA
BRANCH  24  25
ATOM     25  C   LIG    1        0.080  -0.042   0.194  0.00  0.00    +0.320 C 
BRANCH  25  29
ATOM     26  C   LIG    1       -3.360  -3.618   0.270  0.00  0.00    +0.180 C 
ATOM     27  C   LIG    1       -2.849  -2.200   0.239  0.00  0.00    +0.050 A 
ATOM     28  N   LIG    1       -1.603  -1.864   0.232  0.00  0.00    -0.470 NA
ATOM     29  C   LIG    1       -1.329  -0.576   0.204  0.00  0.00    +0.060 A 
ATOM     30  C   LIG    1       -2.403   0.220   0.191  0.00  0.00    -0.050 A 
ATOM     31  S   LIG    1       -3.837  -0.805   0.208  0.00  0.00    +0.130 S 
ENDBRANCH  25  29
ENDBRANCH  24  25
ENDBRANCH  18  24
ENDBRANCH   1  22
TORSDOF 7
