REMARK  Name = ZINCpe00000KMEMF.0
REMARK                            x       y       z     vdW  Elec       q    Type
REMARK                         _______ _______ _______ _____ _____    ______ ____
ROOT
ATOM      1  C   LIG    1       -0.983   1.501   1.391  0.00  0.00    -0.270 C 
ATOM      2  C   LIG    1       -1.988   2.340   1.060  0.00  0.00    +0.260 C 
ATOM      3  N   LIG    1       -2.170   2.745  -0.231  0.00  0.00    -0.640 N 
ATOM      4  H   LIG    1       -2.905   3.349  -0.422  0.00  0.00    +0.440 HD
ATOM      5  C   LIG    1       -1.390   2.357  -1.248  0.00  0.00    +0.710 C 
ATOM      6  N   LIG    1       -0.347   1.522  -1.074  0.00  0.00    -0.710 N 
ATOM      7  H   LIG    1        0.205   1.253  -1.825  0.00  0.00    +0.430 HD
ATOM      8  O   LIG    1       -1.631   2.772  -2.365  0.00  0.00    -0.550 OA
ATOM      9  C   LIG    1       -0.065   1.026   0.283  0.00  0.00    +0.280 C 
ATOM     10  C   LIG    1        1.364   1.434   0.647  0.00  0.00    +0.050 C 
ENDROOT
BRANCH   1  11
ATOM     11  C   LIG    1       -0.794   1.080   2.729  0.00  0.00    +0.530 C 
ATOM     12  O   LIG    1       -1.518   1.506   3.609  0.00  0.00    -0.520 OA
BRANCH  11  13
ATOM     13  O   LIG    1        0.189   0.205   3.028  0.00  0.00    -0.340 OA
BRANCH  13  15
ATOM     14  C   LIG    1        1.481  -1.165   4.542  0.00  0.00    +0.070 C 
ATOM     15  C   LIG    1        0.323  -0.176   4.399  0.00  0.00    +0.200 C 
ENDBRANCH  13  15
ENDBRANCH  11  13
ENDBRANCH   1  11
BRANCH   2  16
ATOM     16  C   LIG    1       -2.923   2.836   2.132  0.00  0.00    +0.360 C 
BRANCH  16  17
ATOM     17  O   LIG    1       -3.991   3.609   1.523  0.00  0.00    -0.360 OA
BRANCH  17  18
ATOM     18  C   LIG    1       -4.920   4.128   2.351  0.00  0.00    +0.560 C 
ATOM     19  O   LIG    1       -4.840   3.940   3.550  0.00  0.00    -0.450 OA
BRANCH  18  20
ATOM     20  C   LIG    1       -6.026   4.920   1.806  0.00  0.00    +0.010 A 
ATOM     21  C   LIG    1       -7.030   5.500   2.529  0.00  0.00    +0.090 A 
ATOM     22  C   LIG    1       -7.863   6.155   1.608  0.00  0.00    +0.110 A 
ATOM     23  C   LIG    1       -7.338   5.948   0.380  0.00  0.00    +0.050 A 
ATOM     24  O   LIG    1       -6.229   5.208   0.504  0.00  0.00    -0.120 OA
BRANCH  23  25
ATOM     25  N   LIG    1       -7.894   6.461  -0.892  0.00  0.00    +0.060 N 
ATOM     26  O   LIG    1       -7.335   6.212  -1.946  0.00  0.00    -0.110 OA
ATOM     27  O   LIG    1       -8.911   7.131  -0.886  0.00  0.00    -0.110 OA
ENDBRANCH  23  25
ENDBRANCH  18  20
ENDBRANCH  17  18
ENDBRANCH  16  17
ENDBRANCH   2  16
TORSDOF 8
