REMARK  Name = ZINCrH000004jRNG.0
REMARK                            x       y       z     vdW  Elec       q    Type
REMARK                         _______ _______ _______ _____ _____    ______ ____
ROOT
ATOM      1  C   LIG    1        6.197   6.321   3.993  0.00  0.00    +0.280 C 
ATOM      2  N   LIG    1        6.570   7.198   2.881  0.00  0.00    -0.630 N 
ATOM      3  C   LIG    1        6.379   6.794   1.610  0.00  0.00    +0.710 C 
ATOM      4  N   LIG    1        5.846   5.581   1.361  0.00  0.00    -0.740 N 
ATOM      5  H   LIG    1        5.598   5.000   2.098  0.00  0.00    +0.400 HD
ATOM      6  O   LIG    1        6.689   7.522   0.687  0.00  0.00    -0.590 OA
ENDROOT
BRANCH   4   7
ATOM      7  C   LIG    1        5.638   5.141  -0.020  0.00  0.00    +0.370 C 
BRANCH   7   8
ATOM      8  C   LIG    1        5.034   3.761  -0.023  0.00  0.00    -0.250 A 
ATOM      9  C   LIG    1        3.712   3.471  -0.014  0.00  0.00    +0.260 A 
ATOM     10  N   LIG    1        3.586   2.125  -0.019  0.00  0.00    -0.320 N 
ATOM     11  N   LIG    1        4.873   1.572  -0.027  0.00  0.00    -0.290 NA
ATOM     12  C   LIG    1        5.739   2.553  -0.035  0.00  0.00    +0.270 A 
BRANCH  10  13
ATOM     13  C   LIG    1        2.381   1.409  -0.013  0.00  0.00    +0.150 A 
ATOM     14  C   LIG    1        1.169   2.087   0.002  0.00  0.00    -0.010 A 
ATOM     15  C   LIG    1       -0.017   1.379   0.010  0.00  0.00    +0.040 A 
ATOM     16  C   LIG    1        0.002  -0.004   0.002  0.00  0.00    +0.000 A 
ATOM     17  C   LIG    1        1.207  -0.682  -0.013  0.00  0.00    +0.040 A 
ATOM     18  C   LIG    1        2.396   0.021  -0.020  0.00  0.00    +0.020 A 
ENDBRANCH  10  13
ENDBRANCH   7   8
ENDBRANCH   4   7
BRANCH   2  19
ATOM     19  C   LIG    1        7.150   8.516   3.151  0.00  0.00    +0.340 C 
BRANCH  19  20
ATOM     20  C   LIG    1        6.031   9.554   3.259  0.00  0.00    +0.190 C 
BRANCH  20  21
ATOM     21  O   LIG    1        5.216   9.259   4.396  0.00  0.00    -0.310 OA
BRANCH  21  22
ATOM     22  C   LIG    1        4.169  10.092   4.636  0.00  0.00    +0.150 A 
ATOM     23  C   LIG    1        3.934  11.173   3.799  0.00  0.00    -0.080 A 
ATOM     24  C   LIG    1        2.866  12.015   4.043  0.00  0.00    +0.070 A 
ATOM     25  C   LIG    1        2.038  11.788   5.126  0.00  0.00    -0.010 A 
ATOM     26  C   LIG    1        2.273  10.713   5.966  0.00  0.00    +0.000 A 
ATOM     27 CL   LIG    1        1.230  10.430   7.324  0.00  0.00    -0.060 Cl
ATOM     28  C   LIG    1        3.337   9.865   5.723  0.00  0.00    -0.010 A 
ENDBRANCH  21  22
ENDBRANCH  20  21
ENDBRANCH  19  20
ENDBRANCH   2  19
TORSDOF 7
