REMARK  Name = ZINCqH0000000vJJ.0
REMARK                            x       y       z     vdW  Elec       q    Type
REMARK                         _______ _______ _______ _____ _____    ______ ____
ROOT
ATOM      1  C   LIG    1       -4.910   1.836   0.032  0.00  0.00    +0.350 C 
ENDROOT
BRANCH   1   2
ATOM      2  C   LIG    1       -5.797   2.901  -0.559  0.00  0.00    -0.080 A 
ATOM      3  C   LIG    1       -5.575   4.232  -0.255  0.00  0.00    +0.000 A 
ATOM      4  C   LIG    1       -6.386   5.209  -0.801  0.00  0.00    -0.070 A 
ATOM      5  C   LIG    1       -7.424   4.856  -1.643  0.00  0.00    +0.000 A 
ATOM      6  C   LIG    1       -7.648   3.525  -1.942  0.00  0.00    -0.070 A 
ATOM      7  C   LIG    1       -8.780   3.140  -2.860  0.00  0.00    +0.090 C 
ATOM      8  C   LIG    1       -6.141   6.660  -0.474  0.00  0.00    +0.090 C 
ATOM      9  C   LIG    1       -6.835   2.548  -1.400  0.00  0.00    +0.020 A 
ENDBRANCH   1   2
BRANCH   1  10
ATOM     10  C   LIG    1       -5.341   1.551   1.448  0.00  0.00    -0.140 A 
ATOM     11  C   LIG    1       -6.133   0.450   1.732  0.00  0.00    +0.080 A 
ATOM     12  C   LIG    1       -6.501   0.224   3.050  0.00  0.00    -0.030 A 
ATOM     13  C   LIG    1       -6.080   1.106   4.027  0.00  0.00    +0.260 A 
ATOM     14  N   LIG    1       -5.331   2.147   3.719  0.00  0.00    -0.480 NA
ATOM     15  C   LIG    1       -4.957   2.389   2.478  0.00  0.00    +0.260 A 
ENDBRANCH   1  10
BRANCH   1  17
ATOM     16  C   LIG    1       -2.511   1.406   0.020  0.00  0.00    +0.590 C 
ATOM     17  N   LIG    1       -3.520   2.300   0.029  0.00  0.00    -0.730 N 
ATOM     18  H   LIG    1       -3.326   3.250   0.033  0.00  0.00    +0.390 HD
ATOM     19  O   LIG    1       -2.755   0.214   0.014  0.00  0.00    -0.510 OA
BRANCH  16  24
ATOM     20  C   LIG    1        1.114   1.933   0.002  0.00  0.00    -0.270 A 
ATOM     21  C   LIG    1        0.632   3.233   0.013  0.00  0.00    +0.280 A 
ATOM     22  N   LIG    1       -0.708   3.187   0.026  0.00  0.00    -0.530 N 
ATOM     23  H   LIG    1       -1.296   3.958   0.036  0.00  0.00    +0.420 HD
ATOM     24  C   LIG    1       -1.119   1.871   0.017  0.00  0.00    -0.070 A 
ATOM     25  C   LIG    1       -0.013   1.076   0.008  0.00  0.00    +0.120 A 
BRANCH  20  27
ATOM     26  C   LIG    1        3.609   2.568  -0.018  0.00  0.00    +0.070 C 
ATOM     27  C   LIG    1        2.522   1.525  -0.013  0.00  0.00    +0.420 C 
ATOM     28  O   LIG    1        2.811   0.346  -0.022  0.00  0.00    -0.460 OA
ENDBRANCH  20  27
ENDBRANCH  16  24
ENDBRANCH   1  17
TORSDOF 5
