REMARK  Name = ZINCpe000000XnIi.2
REMARK                            x       y       z     vdW  Elec       q    Type
REMARK                         _______ _______ _______ _____ _____    ______ ____
ROOT
ATOM      1  C   LIG    1       -2.529   1.259   0.020  0.00  0.00    +0.180 C 
ENDROOT
BRANCH   1   2
ATOM      2  C   LIG    1       -1.105   1.752   0.016  0.00  0.00    +0.300 A 
ATOM      3  N   LIG    1       -0.744   3.010   0.025  0.00  0.00    -0.490 NA
ATOM      4  C   LIG    1        0.589   3.099   0.013  0.00  0.00    +0.330 A 
ATOM      5  C   LIG    1        1.087   1.802   0.001  0.00  0.00    -0.150 A 
ATOM      6  C   LIG    1        2.485   1.603  -0.013  0.00  0.00    +0.600 A 
ATOM      7  N   LIG    1        3.303   2.675  -0.016  0.00  0.00    -0.650 N 
ATOM      8  H   LIG    1        4.264   2.543  -0.025  0.00  0.00    +0.440 HD
ATOM      9  C   LIG    1        2.807   3.925  -0.005  0.00  0.00    +0.710 A 
ATOM     10  O   LIG    1        3.575   4.867  -0.007  0.00  0.00    -0.530 OA
ATOM     11  O   LIG    1        2.946   0.475  -0.023  0.00  0.00    -0.510 OA
ATOM     12  N   LIG    1        1.481   4.158   0.009  0.00  0.00    -0.510 N 
ATOM     13  C   LIG    1        0.982   5.535   0.020  0.00  0.00    +0.340 C 
ATOM     14  N   LIG    1       -0.011   0.966   0.007  0.00  0.00    -0.510 N 
ATOM     15  H   LIG    1        0.002  -0.004   0.002  0.00  0.00    +0.440 HD
ENDBRANCH   1   2
BRANCH   1  16
ATOM     16  C   LIG    1       -3.276   1.867   1.208  0.00  0.00    +0.070 C 
BRANCH  16  19
ATOM     17  N   LIG    1       -5.552   1.780   2.173  0.00  0.00    -0.730 N 
ATOM     18  H   LIG    1       -5.249   2.391   2.863  0.00  0.00    +0.400 HD
ATOM     19  C   LIG    1       -4.700   1.373   1.211  0.00  0.00    +0.520 C 
ATOM     20  O   LIG    1       -5.080   0.610   0.349  0.00  0.00    -0.530 OA
BRANCH  17  28
ATOM     21  C   LIG    1       -7.226   2.119  -0.166  0.00  0.00    +0.020 C 
ATOM     22  C   LIG    1       -7.784   2.182   1.258  0.00  0.00    -0.030 C 
ATOM     23  C   LIG    1       -9.230   1.680   1.261  0.00  0.00    +0.020 C 
ATOM     24  C   LIG    1       -9.787   1.742   2.685  0.00  0.00    +0.010 C 
ATOM     25  C   LIG    1       -8.940   0.861   3.604  0.00  0.00    +0.030 C 
ATOM     26  C   LIG    1       -7.494   1.362   3.600  0.00  0.00    -0.020 C 
ATOM     27  C   LIG    1       -7.454   2.808   4.101  0.00  0.00    +0.030 C 
ATOM     28  C   LIG    1       -6.936   1.300   2.177  0.00  0.00    +0.240 C 
ENDBRANCH  17  28
ENDBRANCH  16  19
ENDBRANCH   1  16
TORSDOF 4
