REMARK  Name = ZINCrD00000F5Lv3.0
REMARK                            x       y       z     vdW  Elec       q    Type
REMARK                         _______ _______ _______ _____ _____    ______ ____
ROOT
ATOM      1  N   LIG    1       -0.549   2.106   1.319  0.00  0.00    -0.980 NA
ENDROOT
BRANCH   1   2
ATOM      2  S   LIG    1        0.393   1.495   0.101  0.00  0.00    +2.670 S 
ATOM      3  O   LIG    1        1.660   2.127   0.218  0.00  0.00    -0.950 OA
ATOM      4  O   LIG    1        0.222   0.084   0.131  0.00  0.00    -0.960 OA
BRANCH   2   6
ATOM      5  C   LIG    1       -0.690   1.176  -2.318  0.00  0.00    +0.210 C 
ATOM      6  C   LIG    1       -0.300   2.047  -1.422  0.00  0.00    -0.580 C 
ENDBRANCH   2   6
ENDBRANCH   1   2
BRANCH   1   7
ATOM      7  C   LIG    1       -1.774   1.409   1.717  0.00  0.00    +0.250 C 
ATOM      8  C   LIG    1       -2.986   2.287   1.397  0.00  0.00    +0.030 C 
BRANCH   7   9
ATOM      9  C   LIG    1       -1.733   1.123   3.219  0.00  0.00    +0.090 C 
BRANCH   9  10
ATOM     10  C   LIG    1       -0.613   0.160   3.517  0.00  0.00    -0.110 A 
ATOM     11  C   LIG    1        0.590   0.631   4.008  0.00  0.00    +0.080 A 
ATOM     12  C   LIG    1        1.619  -0.253   4.281  0.00  0.00    -0.100 A 
ATOM     13  C   LIG    1        1.444  -1.608   4.064  0.00  0.00    +0.080 A 
ATOM     14  C   LIG    1        0.240  -2.080   3.574  0.00  0.00    +0.010 A 
ATOM     15 BR   LIG    1        3.265   0.391   4.952  0.00  0.00    -0.040 Br
ATOM     16  C   LIG    1       -0.791  -1.196   3.304  0.00  0.00    +0.130 A 
ATOM     17  F   LIG    1       -1.969  -1.657   2.829  0.00  0.00    -0.130 F 
ENDBRANCH   9  10
ENDBRANCH   7   9
ENDBRANCH   1   7
BRANCH   1  18
ATOM     18  C   LIG    1       -0.156   3.343   1.998  0.00  0.00    +0.390 C 
BRANCH  18  19
ATOM     19  C   LIG    1       -0.822   4.517   1.328  0.00  0.00    -0.260 A 
ATOM     20  C   LIG    1       -1.964   5.121   1.731  0.00  0.00    +0.260 A 
ATOM     21  N   LIG    1       -2.225   6.125   0.868  0.00  0.00    -0.370 N 
ATOM     22  N   LIG    1       -1.210   6.139  -0.097  0.00  0.00    -0.290 NA
ATOM     23  C   LIG    1       -0.367   5.179   0.183  0.00  0.00    +0.230 A 
BRANCH  21  24
ATOM     24  C   LIG    1       -3.368   7.040   0.930  0.00  0.00    +0.350 C 
BRANCH  24  25
ATOM     25  C   LIG    1       -2.865   8.485   0.945  0.00  0.00    +0.180 C 
BRANCH  25  26
ATOM     26  O   LIG    1       -3.979   9.377   1.005  0.00  0.00    -0.390 OA
ATOM     27  C   LIG    1       -3.618  10.759   1.023  0.00  0.00    +0.210 C 
ENDBRANCH  25  26
ENDBRANCH  24  25
ENDBRANCH  21  24
ENDBRANCH  18  19
ENDBRANCH   1  18
TORSDOF 10
