REMARK  Name = ZINCue00000003Bg.0
REMARK                            x       y       z     vdW  Elec       q    Type
REMARK                         _______ _______ _______ _____ _____    ______ ____
ROOT
ATOM      1  S   LIG    1       -1.217   3.817   0.029  0.00  0.00    +2.640 S 
ATOM      2  O   LIG    1       -0.684   4.232  -1.222  0.00  0.00    -1.000 OA
ATOM      3  O   LIG    1       -0.672   4.218   1.278  0.00  0.00    -1.000 OA
ENDROOT
BRANCH   1   7
ATOM      4  C   LIG    1       -5.563   5.100   0.056  0.00  0.00    +0.060 A 
ATOM      5  C   LIG    1       -4.896   4.908  -1.155  0.00  0.00    +0.060 A 
ATOM      6  C   LIG    1       -3.571   4.522  -1.156  0.00  0.00    +0.170 A 
ATOM      7  C   LIG    1       -2.907   4.315   0.039  0.00  0.00    -0.600 A 
ATOM      8  C   LIG    1       -3.562   4.504   1.244  0.00  0.00    +0.190 A 
ATOM      9  C   LIG    1       -4.884   4.895   1.260  0.00  0.00    -0.170 A 
BRANCH   9  10
ATOM     10  C   LIG    1       -5.596   5.100   2.572  0.00  0.00    +0.510 C 
ATOM     11  F   LIG    1       -6.690   4.233   2.650  0.00  0.00    -0.170 F 
ATOM     12  F   LIG    1       -6.042   6.423   2.658  0.00  0.00    -0.170 F 
ATOM     13  F   LIG    1       -4.715   4.836   3.626  0.00  0.00    -0.170 F 
ENDBRANCH   9  10
BRANCH   4  15
ATOM     14  N   LIG    1       -8.025   5.829   0.072  0.00  0.00    -0.380 NA
ATOM     15  C   LIG    1       -6.936   5.507   0.065  0.00  0.00    +0.240 C 
ENDBRANCH   4  15
ENDBRANCH   1   7
BRANCH   1  16
ATOM     16  N   LIG    1       -1.195   2.161   0.019  0.00  0.00    -1.110 NA
ATOM     17  C   LIG    1       -0.018   1.503   0.010  0.00  0.00    +0.520 C 
ATOM     18  O   LIG    1        1.024   2.123   0.004  0.00  0.00    -0.620 OA
BRANCH  17  19
ATOM     19  C   LIG    1        0.002  -0.004   0.002  0.00  0.00    +0.420 C 
BRANCH  19  20
ATOM     20  N   LIG    1        1.390  -0.473  -0.014  0.00  0.00    -0.440 N 
ATOM     21  N   LIG    1        2.163  -0.732  -1.152  0.00  0.00    +0.050 NA
ATOM     22  N   LIG    1        3.287  -1.114  -0.804  0.00  0.00    +0.020 NA
ATOM     23  N   LIG    1        3.355  -1.140   0.594  0.00  0.00    -0.400 N 
ATOM     24  C   LIG    1        2.159  -0.730   1.067  0.00  0.00    +0.650 A 
ATOM     25  O   LIG    1        1.835  -0.617   2.236  0.00  0.00    -0.510 OA
BRANCH  23  26
ATOM     26  C   LIG    1        4.463  -1.517   1.361  0.00  0.00    +0.070 A 
ATOM     27  C   LIG    1        5.645  -1.915   0.870  0.00  0.00    +0.000 A 
ATOM     28  C   LIG    1        6.592  -2.237   1.827  0.00  0.00    +0.040 A 
ATOM     29  C   LIG    1        6.184  -2.103   3.090  0.00  0.00    -0.070 A 
ATOM     30  S   LIG    1        4.521  -1.534   3.119  0.00  0.00    +0.200 S 
ENDBRANCH  23  26
ENDBRANCH  19  20
ENDBRANCH  17  19
ENDBRANCH   1  16
TORSDOF 7
