REMARK  Name = ZINCtV00000L6jQA.0
REMARK                            x       y       z     vdW  Elec       q    Type
REMARK                         _______ _______ _______ _____ _____    ______ ____
ROOT
ATOM      1  C   LIG    1        2.447   1.227  -0.077  0.00  0.00    +0.250 C 
ENDROOT
BRANCH   1   2
ATOM      2  C   LIG    1        2.664   0.649   1.298  0.00  0.00    -0.120 A 
ATOM      3  C   LIG    1        2.962   1.483   2.360  0.00  0.00    +0.040 A 
ATOM      4  C   LIG    1        3.156   0.953   3.621  0.00  0.00    +0.010 A 
ATOM      5  C   LIG    1        3.062  -0.412   3.820  0.00  0.00    +0.030 A 
ATOM      6  C   LIG    1        2.769  -1.246   2.757  0.00  0.00    +0.010 A 
ATOM      7  C   LIG    1        2.571  -0.716   1.496  0.00  0.00    +0.030 A 
ENDBRANCH   1   2
BRANCH   1  10
ATOM      8  N   LIG    1       -0.011   0.966   0.007  0.00  0.00    -0.660 N 
ATOM      9  H   LIG    1        0.123   0.012   0.124  0.00  0.00    +0.420 HD
ATOM     10  C   LIG    1        1.048   1.779  -0.175  0.00  0.00    +0.520 C 
ATOM     11  O   LIG    1        0.876   2.954  -0.418  0.00  0.00    -0.490 OA
BRANCH   8  16
ATOM     12  C   LIG    1       -5.262   3.116   0.068  0.00  0.00    +0.100 C 
ATOM     13  C   LIG    1       -3.867   2.545   0.052  0.00  0.00    -0.090 A 
ATOM     14  C   LIG    1       -3.646   1.278  -0.455  0.00  0.00    +0.050 A 
ATOM     15  C   LIG    1       -2.369   0.752  -0.471  0.00  0.00    +0.000 A 
ATOM     16  C   LIG    1       -1.306   1.497   0.022  0.00  0.00    +0.150 A 
ATOM     17  C   LIG    1       -1.531   2.767   0.537  0.00  0.00    +0.040 A 
ATOM     18  C   LIG    1       -2.810   3.290   0.546  0.00  0.00    -0.020 A 
ATOM     19 CL   LIG    1       -3.092   4.880   1.182  0.00  0.00    -0.060 Cl
ENDBRANCH   8  16
ENDBRANCH   1  10
BRANCH   1  20
ATOM     20  O   LIG    1        3.406   2.292  -0.310  0.00  0.00    -0.320 OA
BRANCH  20  21
ATOM     21  C   LIG    1        4.583   1.945  -0.865  0.00  0.00    +0.510 C 
ATOM     22  O   LIG    1        4.803   0.784  -1.147  0.00  0.00    -0.470 OA
BRANCH  21  23
ATOM     23  C   LIG    1        5.606   2.976  -1.132  0.00  0.00    -0.110 A 
ATOM     24  C   LIG    1        5.354   4.312  -0.815  0.00  0.00    +0.120 A 
ATOM     25  C   LIG    1        6.317   5.270  -1.063  0.00  0.00    -0.050 A 
ATOM     26  C   LIG    1        7.526   4.910  -1.633  0.00  0.00    +0.090 A 
ATOM     27  C   LIG    1        7.781   3.589  -1.955  0.00  0.00    +0.050 A 
ATOM     28 CL   LIG    1        6.009   6.931  -0.663  0.00  0.00    -0.040 Cl
ATOM     29  C   LIG    1        6.829   2.619  -1.708  0.00  0.00    +0.020 A 
ATOM     30 CL   LIG    1        7.150   0.962  -2.112  0.00  0.00    -0.020 Cl
ENDBRANCH  21  23
ENDBRANCH  20  21
ENDBRANCH   1  20
TORSDOF 6
