REMARK  Name = ZINCnE000001ONhl.1
REMARK                            x       y       z     vdW  Elec       q    Type
REMARK                         _______ _______ _______ _____ _____    ______ ____
ROOT
ATOM      1  S   LIG    1        0.299   2.492   4.888  0.00  0.00    +2.690 S 
ATOM      2  O   LIG    1       -0.716   3.034   5.720  0.00  0.00    -0.940 OA
ATOM      3  O   LIG    1        1.488   3.194   4.554  0.00  0.00    -0.940 OA
ENDROOT
BRANCH   1   9
ATOM      4  C   LIG    1        0.467   0.512   0.050  0.00  0.00    +0.100 C 
ATOM      5  C   LIG    1       -0.344   1.155   1.146  0.00  0.00    -0.110 A 
ATOM      6  C   LIG    1       -1.682   1.419   0.948  0.00  0.00    +0.130 A 
ATOM      7  C   LIG    1       -2.433   2.010   1.967  0.00  0.00    -0.140 A 
ATOM      8  C   LIG    1       -1.818   2.341   3.178  0.00  0.00    +0.180 A 
ATOM      9  C   LIG    1       -0.478   2.076   3.362  0.00  0.00    -0.680 A 
ATOM     10  C   LIG    1        0.260   1.484   2.349  0.00  0.00    +0.040 A 
ATOM     11 CL   LIG    1        1.947   1.155   2.589  0.00  0.00    -0.060 Cl
BRANCH   7  12
ATOM     12  C   LIG    1       -3.866   2.290   1.764  0.00  0.00    +0.520 C 
ATOM     13  O   LIG    1       -4.402   2.000   0.703  0.00  0.00    -0.680 OA
ATOM     14  O   LIG    1       -4.520   2.812   2.656  0.00  0.00    -0.670 OA
ENDBRANCH   7  12
ENDBRANCH   1   9
BRANCH   1  15
ATOM     15  N   LIG    1        0.777   1.074   5.597  0.00  0.00    -1.050 N 
ATOM     16  H   LIG    1        1.718   0.911   5.770  0.00  0.00    +0.430 HD
BRANCH  15  17
ATOM     17  C   LIG    1       -0.175   0.111   5.946  0.00  0.00    +0.170 A 
ATOM     18  C   LIG    1       -1.335   0.489   6.608  0.00  0.00    +0.040 A 
ATOM     19  C   LIG    1       -2.278  -0.462   6.948  0.00  0.00    +0.060 A 
ATOM     20  C   LIG    1       -2.062  -1.794   6.639  0.00  0.00    +0.060 A 
ATOM     21  C   LIG    1       -0.901  -2.176   5.983  0.00  0.00    +0.080 A 
ATOM     22  F   LIG    1       -0.692  -3.476   5.682  0.00  0.00    -0.130 F 
ATOM     23  F   LIG    1       -2.982  -2.723   6.978  0.00  0.00    -0.130 F 
ATOM     24  C   LIG    1        0.042  -1.225   5.636  0.00  0.00    +0.010 A 
ENDBRANCH  15  17
ENDBRANCH   1  15
TORSDOF 4
