REMARK  Name = ZINCpk00000RDOu3.0
REMARK                            x       y       z     vdW  Elec       q    Type
REMARK                         _______ _______ _______ _____ _____    ______ ____
ROOT
ATOM      1  C   LIG    1       -3.358  -1.071   0.770  0.00  0.00    +0.210 C 
ATOM      2  C   LIG    1       -1.974  -0.514   1.189  0.00  0.00    +0.210 C 
ATOM      3  N   LIG    1       -1.119  -0.805   0.009  0.00  0.00    -0.420 N 
ATOM      4  C   LIG    1       -1.965  -0.542  -1.176  0.00  0.00    +0.190 C 
ATOM      5  C   LIG    1       -3.429  -0.724  -0.734  0.00  0.00    +0.190 C 
ENDROOT
BRANCH   3   6
ATOM      6  C   LIG    1        0.002  -0.004   0.002  0.00  0.00    +0.230 A 
ATOM      7  N   LIG    1        1.228  -0.444  -0.012  0.00  0.00    -0.460 NA
ATOM      8  C   LIG    1        2.185   0.448  -0.016  0.00  0.00    +0.350 A 
ATOM      9  C   LIG    1        1.740   1.742  -0.005  0.00  0.00    -0.300 A 
ATOM     10  S   LIG    1       -0.021   1.705   0.011  0.00  0.00    +0.190 S 
BRANCH   9  11
ATOM     11  C   LIG    1        2.552   2.904  -0.007  0.00  0.00    +0.550 C 
ATOM     12  O   LIG    1        2.036   4.006   0.004  0.00  0.00    -0.500 OA
BRANCH  11  13
ATOM     13  O   LIG    1        3.896   2.789  -0.020  0.00  0.00    -0.340 OA
BRANCH  13  14
ATOM     14  C   LIG    1        4.652   4.002  -0.021  0.00  0.00    +0.120 C 
ATOM     15  C   LIG    1        4.297   4.822  -1.262  0.00  0.00    +0.020 C 
ATOM     16  C   LIG    1        6.145   3.672  -0.037  0.00  0.00    +0.080 C 
ATOM     17  C   LIG    1        4.321   4.809   1.236  0.00  0.00    +0.020 C 
ENDBRANCH  13  14
ENDBRANCH  11  13
ENDBRANCH   9  11
ENDBRANCH   3   6
BRANCH   5  18
ATOM     18  O   LIG    1       -4.039  -1.791  -1.464  0.00  0.00    -0.550 OA
ATOM     19  H   LIG    1       -4.072  -1.646  -2.419  0.00  0.00    +0.390 HD
ENDBRANCH   5  18
BRANCH   1  20
ATOM     20  O   LIG    1       -4.407  -0.421   1.490  0.00  0.00    -0.290 OA
BRANCH  20  24
ATOM     21  C   LIG    1       -6.992  -1.440   5.506  0.00  0.00    +0.370 C 
ATOM     22  N   LIG    1       -6.029  -1.522   4.405  0.00  0.00    -0.370 N 
ATOM     23  C   LIG    1       -5.860  -0.601   3.420  0.00  0.00    +0.210 A 
ATOM     24  C   LIG    1       -4.878  -1.052   2.602  0.00  0.00    -0.030 A 
ATOM     25  C   LIG    1       -4.428  -2.280   3.106  0.00  0.00    +0.190 A 
ATOM     26  N   LIG    1       -5.116  -2.560   4.183  0.00  0.00    -0.270 NA
ENDBRANCH  20  24
ENDBRANCH   1  20
TORSDOF 7
