REMARK  Name = ZINCqH0000033GsC.0
REMARK                            x       y       z     vdW  Elec       q    Type
REMARK                         _______ _______ _______ _____ _____    ______ ____
ROOT
ATOM      1  N   LIG    1        2.902   0.810  -1.406  0.00  0.00    -0.660 NA
ATOM      2  H   LIG    1        2.187   0.316  -1.919  0.00  0.00    +0.360 HD
ENDROOT
BRANCH   1   3
ATOM      3  C   LIG    1        2.489   1.042  -0.016  0.00  0.00    +0.220 C 
BRANCH   3   6
ATOM      4  C   LIG    1       -0.044   3.845   0.024  0.00  0.00    +0.100 A 
ATOM      5  C   LIG    1        1.162   3.164   0.008  0.00  0.00    -0.010 A 
ATOM      6  C   LIG    1        1.176   1.782   0.000  0.00  0.00    -0.080 A 
ATOM      7  C   LIG    1       -0.013   1.076   0.008  0.00  0.00    +0.010 A 
ATOM      8  C   LIG    1       -1.220   1.749   0.017  0.00  0.00    -0.030 A 
ATOM      9  C   LIG    1       -1.241   3.134   0.031  0.00  0.00    +0.100 A 
BRANCH   9  10
ATOM     10  O   LIG    1       -2.428   3.798   0.046  0.00  0.00    -0.310 OA
ATOM     11  C   LIG    1       -3.615   3.004   0.052  0.00  0.00    +0.240 C 
ENDBRANCH   9  10
BRANCH   4  12
ATOM     12  O   LIG    1       -0.059   5.205   0.032  0.00  0.00    -0.310 OA
BRANCH  12  14
ATOM     13  C   LIG    1        0.990   7.382   0.035  0.00  0.00    +0.070 C 
ATOM     14  C   LIG    1        1.207   5.868   0.024  0.00  0.00    +0.170 C 
ENDBRANCH  12  14
ENDBRANCH   4  12
ENDBRANCH   3   6
ENDBRANCH   1   3
BRANCH   1  15
ATOM     15  C   LIG    1        4.182   0.090  -1.462  0.00  0.00    +0.320 C 
BRANCH  15  16
ATOM     16  C   LIG    1        3.929  -1.392  -1.357  0.00  0.00    +0.180 A 
ATOM     17  N   LIG    1        3.008  -2.054  -2.002  0.00  0.00    -0.480 NA
ATOM     18  C   LIG    1        3.076  -3.350  -1.663  0.00  0.00    +0.150 A 
ATOM     19  C   LIG    1        4.077  -3.497  -0.774  0.00  0.00    +0.130 A 
ATOM     20  N   LIG    1        4.622  -2.256  -0.584  0.00  0.00    -0.450 N 
ATOM     21  C   LIG    1        5.745  -1.926   0.297  0.00  0.00    +0.330 C 
ENDBRANCH  15  16
BRANCH  15  22
ATOM     22  C   LIG    1        4.872   0.391  -2.767  0.00  0.00    -0.070 A 
ATOM     23  C   LIG    1        4.137   0.463  -3.936  0.00  0.00    +0.050 A 
ATOM     24  C   LIG    1        4.769   0.743  -5.133  0.00  0.00    +0.000 A 
ATOM     25  C   LIG    1        6.137   0.942  -5.163  0.00  0.00    +0.000 A 
ATOM     26  C   LIG    1        6.872   0.865  -3.995  0.00  0.00    +0.000 A 
ATOM     27  C   LIG    1        6.239   0.589  -2.797  0.00  0.00    +0.000 A 
ENDBRANCH  15  22
ENDBRANCH   1  15
TORSDOF 8
