REMARK  Name = ZINCrH000004jVcP.0
REMARK                            x       y       z     vdW  Elec       q    Type
REMARK                         _______ _______ _______ _____ _____    ______ ____
ROOT
ATOM      1  C   LIG    1        3.833   1.328  -7.770  0.00  0.00    +0.020 A 
ATOM      2  N   LIG    1        4.129   2.250  -8.619  0.00  0.00    -0.440 NA
ATOM      3  C   LIG    1        3.831   2.019  -9.890  0.00  0.00    +0.100 A 
ATOM      4  C   LIG    1        3.248   0.823 -10.109  0.00  0.00    -0.050 A 
ATOM      5  S   LIG    1        3.110  -0.004  -8.560  0.00  0.00    +0.180 S 
ENDROOT
BRANCH   3   6
ATOM      6  C   LIG    1        4.114   2.990 -10.975  0.00  0.00    +0.010 A 
ATOM      7  C   LIG    1        3.780   2.684 -12.293  0.00  0.00    +0.030 A 
ATOM      8  C   LIG    1        4.041   3.593 -13.297  0.00  0.00    +0.070 A 
ATOM      9  C   LIG    1        4.643   4.803 -12.999  0.00  0.00    -0.180 A 
ATOM     10  C   LIG    1        4.981   5.110 -11.694  0.00  0.00    +0.070 A 
ATOM     11  C   LIG    1        4.720   4.210 -10.680  0.00  0.00    +0.060 A 
BRANCH   9  12
ATOM     12  C   LIG    1        4.931   5.789 -14.101  0.00  0.00    +0.510 C 
ATOM     13  F   LIG    1        4.874   7.090 -13.590  0.00  0.00    -0.180 F 
ATOM     14  F   LIG    1        3.979   5.645 -15.117  0.00  0.00    -0.180 F 
ATOM     15  F   LIG    1        6.208   5.548 -14.621  0.00  0.00    -0.170 F 
ENDBRANCH   9  12
ENDBRANCH   3   6
BRANCH   1  16
ATOM     16  C   LIG    1        4.094   1.410  -6.288  0.00  0.00    +0.410 C 
BRANCH  16  20
ATOM     17  C   LIG    1        0.710   3.141  -4.455  0.00  0.00    +0.280 C 
ATOM     18  N   LIG    1        1.877   2.732  -3.669  0.00  0.00    -0.630 N 
ATOM     19  C   LIG    1        2.943   2.181  -4.284  0.00  0.00    +0.710 C 
ATOM     20  N   LIG    1        2.935   2.008  -5.620  0.00  0.00    -0.740 N 
ATOM     21  H   LIG    1        2.162   2.279  -6.140  0.00  0.00    +0.400 HD
ATOM     22  O   LIG    1        3.912   1.842  -3.632  0.00  0.00    -0.580 OA
BRANCH  18  23
ATOM     23  C   LIG    1        1.885   2.920  -2.217  0.00  0.00    +0.320 C 
BRANCH  23  24
ATOM     24  C   LIG    1        1.312   1.675  -1.537  0.00  0.00    -0.020 C 
ATOM     25  C   LIG    1        1.388   1.721  -0.002  0.00  0.00    +0.050 C 
ATOM     26  C   LIG    1       -0.013   1.086   0.008  0.00  0.00    +0.150 C 
ATOM     27  C   LIG    1       -0.218   1.707  -1.384  0.00  0.00    -0.010 C 
BRANCH  26  28
ATOM     28  O   LIG    1       -0.878   1.623   1.010  0.00  0.00    -0.560 OA
ATOM     29  H   LIG    1       -1.768   1.244   1.006  0.00  0.00    +0.380 HD
ENDBRANCH  26  28
ENDBRANCH  23  24
ENDBRANCH  18  23
ENDBRANCH  16  20
ENDBRANCH   1  16
TORSDOF 7
