REMARK  Name = ZINCpe00000MJMjM.0
REMARK                            x       y       z     vdW  Elec       q    Type
REMARK                         _______ _______ _______ _____ _____    ______ ____
ROOT
ATOM      1  N   LIG    1       -2.241  -3.132   1.226  0.00  0.00    -0.500 NA
ATOM      2  C   LIG    1       -2.965  -1.893   1.587  0.00  0.00    +0.160 C 
ATOM      3  C   LIG    1       -2.767  -1.678   3.098  0.00  0.00    +0.170 C 
ATOM      4  C   LIG    1       -1.866  -2.848   3.558  0.00  0.00    +0.040 C 
ATOM      5  F   LIG    1       -3.998  -1.724   3.761  0.00  0.00    -0.200 F 
ATOM      6  C   LIG    1       -1.171  -3.287   2.244  0.00  0.00    +0.110 C 
ENDROOT
BRANCH   1   7
ATOM      7  C   LIG    1       -1.673  -3.035  -0.125  0.00  0.00    +0.280 C 
BRANCH   7  11
ATOM      8  C   LIG    1       -5.355  -4.332  -3.188  0.00  0.00    +0.180 C 
ATOM      9  C   LIG    1       -4.422  -3.381  -2.483  0.00  0.00    +0.050 A 
ATOM     10  N   LIG    1       -3.509  -3.731  -1.641  0.00  0.00    -0.460 NA
ATOM     11  C   LIG    1       -2.776  -2.770  -1.117  0.00  0.00    +0.080 A 
ATOM     12  C   LIG    1       -3.093  -1.540  -1.533  0.00  0.00    -0.090 A 
ATOM     13  S   LIG    1       -4.425  -1.683  -2.678  0.00  0.00    +0.120 S 
ENDBRANCH   7  11
ENDBRANCH   1   7
BRANCH   6  14
ATOM     14  C   LIG    1       -0.719  -4.746   2.335  0.00  0.00    +0.310 C 
BRANCH  14  15
ATOM     15  N   LIG    1        0.440  -4.843   3.225  0.00  0.00    -0.610 N 
ATOM     16  C   LIG    1        1.687  -4.761   2.721  0.00  0.00    +0.500 C 
ATOM     17  O   LIG    1        1.849  -4.605   1.529  0.00  0.00    -0.520 OA
ATOM     18  C   LIG    1        0.243  -5.031   4.665  0.00  0.00    +0.290 C 
BRANCH  16  19
ATOM     19  C   LIG    1        2.879  -4.861   3.637  0.00  0.00    +0.370 C 
BRANCH  19  20
ATOM     20  N   LIG    1        4.110  -4.742   2.852  0.00  0.00    -0.540 N 
ATOM     21  C   LIG    1        4.770  -3.573   2.563  0.00  0.00    +0.500 A 
ATOM     22  N   LIG    1        5.815  -3.848   1.851  0.00  0.00    -0.270 NA
ATOM     23  N   LIG    1        5.859  -5.236   1.658  0.00  0.00    -0.550 N 
ATOM     24  H   LIG    1        6.532  -5.726   1.162  0.00  0.00    +0.460 HD
ATOM     25  C   LIG    1        4.792  -5.763   2.294  0.00  0.00    +0.650 A 
ATOM     26  O   LIG    1        4.497  -6.944   2.351  0.00  0.00    -0.550 OA
ENDBRANCH  19  20
ENDBRANCH  16  19
ENDBRANCH  14  15
ENDBRANCH   6  14
TORSDOF 6
