REMARK  Name = ZINCpk00000y6yyh.0
REMARK                            x       y       z     vdW  Elec       q    Type
REMARK                         _______ _______ _______ _____ _____    ______ ____
ROOT
ATOM      1  C   LIG    1       -8.123   2.717  -2.082  0.00  0.00    +0.070 C 
ENDROOT
BRANCH   1   4
ATOM      2  N   LIG    1       -5.889   2.232  -1.139  0.00  0.00    -0.730 N 
ATOM      3  H   LIG    1       -6.073   2.885  -0.447  0.00  0.00    +0.400 HD
ATOM      4  C   LIG    1       -6.808   1.982  -2.093  0.00  0.00    +0.520 C 
ATOM      5  O   LIG    1       -6.577   1.165  -2.959  0.00  0.00    -0.530 OA
BRANCH   2   6
ATOM      6  C   LIG    1       -4.610   1.516  -1.149  0.00  0.00    +0.270 C 
BRANCH   6   7
ATOM      7  C   LIG    1       -3.755   1.983   0.031  0.00  0.00    +0.080 C 
BRANCH   7   9
ATOM      8  C   LIG    1       -1.297   1.929   0.019  0.00  0.00    -0.050 C 
ATOM      9  C   LIG    1       -2.440   1.248   0.020  0.00  0.00    +0.080 C 
BRANCH   8  10
ATOM     10  C   LIG    1       -0.014   1.211   0.009  0.00  0.00    +0.490 C 
ATOM     11  O   LIG    1        0.002  -0.004   0.002  0.00  0.00    -0.510 OA
BRANCH  10  13
ATOM     12  C   LIG    1        2.372   1.127  -0.015  0.00  0.00    +0.260 C 
ATOM     13  O   LIG    1        1.144   1.901   0.001  0.00  0.00    -0.360 OA
ENDBRANCH  10  13
ENDBRANCH   8  10
ENDBRANCH   7   9
ENDBRANCH   6   7
ENDBRANCH   2   6
ENDBRANCH   1   4
BRANCH   1  14
ATOM     14  C   LIG    1       -8.978   2.251  -3.263  0.00  0.00    +0.200 C 
BRANCH  14  15
ATOM     15  C   LIG    1      -10.293   2.986  -3.252  0.00  0.00    +0.270 A 
ATOM     16  N   LIG    1      -11.380   2.583  -2.639  0.00  0.00    -0.330 NA
ATOM     17  N   LIG    1      -12.367   3.549  -2.875  0.00  0.00    -0.320 N 
ATOM     18  C   LIG    1      -13.668   3.666  -2.497  0.00  0.00    +0.210 A 
ATOM     19  C   LIG    1      -14.378   4.748  -2.907  0.00  0.00    -0.060 A 
ATOM     20  C   LIG    1      -13.754   5.713  -3.707  0.00  0.00    +0.400 A 
ATOM     21  N   LIG    1      -12.495   5.572  -4.056  0.00  0.00    -0.460 NA
ATOM     22  C   LIG    1      -11.787   4.508  -3.657  0.00  0.00    +0.440 A 
ATOM     23  N   LIG    1      -10.530   4.137  -3.867  0.00  0.00    -0.520 NA
BRANCH  18  24
ATOM     24  C   LIG    1      -14.312   2.610  -1.636  0.00  0.00    +0.050 C 
ATOM     25  C   LIG    1      -13.556   2.503  -0.310  0.00  0.00    +0.050 C 
ATOM     26  C   LIG    1      -14.265   1.263  -2.360  0.00  0.00    +0.050 C 
ENDBRANCH  18  24
ENDBRANCH  14  15
ENDBRANCH   1  14
TORSDOF 9
