REMARK  Name = ZINCrg00000Sj9Rz.0
REMARK                            x       y       z     vdW  Elec       q    Type
REMARK                         _______ _______ _______ _____ _____    ______ ____
ROOT
ATOM      1  N   LIG    1       -0.288   1.272  -2.443  0.00  0.00    -0.670 N 
ATOM      2  H   LIG    1        0.547   0.789  -2.544  0.00  0.00    +0.420 HD
ATOM      3  C   LIG    1       -0.743   1.583  -1.213  0.00  0.00    +0.500 C 
ATOM      4  O   LIG    1       -1.742   2.259  -1.088  0.00  0.00    -0.500 OA
ENDROOT
BRANCH   1   9
ATOM      5  C   LIG    1       -2.450   3.212  -4.714  0.00  0.00    -0.120 A 
ATOM      6  C   LIG    1       -2.471   2.373  -5.829  0.00  0.00    +0.030 A 
ATOM      7  C   LIG    1       -1.772   1.183  -5.811  0.00  0.00    +0.030 A 
ATOM      8  C   LIG    1       -1.044   0.821  -4.693  0.00  0.00    +0.010 A 
ATOM      9  C   LIG    1       -1.022   1.647  -3.575  0.00  0.00    +0.140 A 
ATOM     10  C   LIG    1       -1.721   2.843  -3.583  0.00  0.00    +0.090 A 
BRANCH   5  14
ATOM     11  C   LIG    1       -4.643   6.104  -5.842  0.00  0.00    +0.290 C 
ATOM     12  N   LIG    1       -3.902   4.841  -5.825  0.00  0.00    -0.730 N 
ATOM     13  H   LIG    1       -3.918   4.259  -6.600  0.00  0.00    +0.400 HD
ATOM     14  C   LIG    1       -3.198   4.487  -4.731  0.00  0.00    +0.560 C 
ATOM     15  O   LIG    1       -3.178   5.216  -3.759  0.00  0.00    -0.530 OA
ENDBRANCH   5  14
ENDBRANCH   1   9
BRANCH   3  16
ATOM     16  C   LIG    1       -0.009   1.091   0.008  0.00  0.00    +0.370 C 
BRANCH  16  17
ATOM     17  N   LIG    1       -0.697   1.560   1.213  0.00  0.00    -0.560 N 
ATOM     18  C   LIG    1       -1.669   0.883   1.835  0.00  0.00    +0.710 C 
ATOM     19  N   LIG    1       -2.134   1.531   2.919  0.00  0.00    -0.710 N 
ATOM     20  H   LIG    1       -2.835   1.229   3.518  0.00  0.00    +0.440 HD
ATOM     21  C   LIG    1       -1.371   2.787   3.018  0.00  0.00    +0.210 C 
ATOM     22  C   LIG    1       -0.586   2.838   4.330  0.00  0.00    +0.110 C 
ATOM     23  O   LIG    1       -2.086  -0.196   1.463  0.00  0.00    -0.530 OA
ATOM     24  C   LIG    1       -0.424   2.724   1.836  0.00  0.00    +0.540 C 
ATOM     25  O   LIG    1        0.405   3.549   1.517  0.00  0.00    -0.440 OA
BRANCH  21  26
ATOM     26  C   LIG    1       -2.291   3.976   2.907  0.00  0.00    -0.030 A 
ATOM     27  C   LIG    1       -3.572   4.021   3.315  0.00  0.00    -0.020 A 
ATOM     28  C   LIG    1       -4.050   5.319   3.022  0.00  0.00    -0.070 A 
ATOM     29  C   LIG    1       -3.035   5.987   2.444  0.00  0.00    +0.190 A 
ATOM     30  O   LIG    1       -1.972   5.168   2.377  0.00  0.00    -0.160 OA
ENDBRANCH  21  26
ENDBRANCH  16  17
ENDBRANCH   3  16
TORSDOF 5
