REMARK  Name = ZINCpe00000FU95c.0
REMARK                            x       y       z     vdW  Elec       q    Type
REMARK                         _______ _______ _______ _____ _____    ______ ____
ROOT
ATOM      1  C   LIG    1       -8.489   1.254   2.030  0.00  0.00    +0.180 C 
ATOM      2  C   LIG    1       -8.282   0.257   0.918  0.00  0.00    +0.120 A 
ATOM      3  N   LIG    1       -9.094  -0.712   0.597  0.00  0.00    -0.270 NA
ATOM      4  N   LIG    1       -8.553  -1.422  -0.480  0.00  0.00    -0.340 N 
ATOM      5  C   LIG    1       -7.382  -0.855  -0.821  0.00  0.00    +0.150 A 
ATOM      6 CL   LIG    1       -6.325  -1.367  -2.099  0.00  0.00    +0.020 Cl
ATOM      7  C   LIG    1       -7.176   0.213   0.037  0.00  0.00    -0.210 A 
ENDROOT
BRANCH   4   8
ATOM      8  C   LIG    1       -9.160  -2.587  -1.129  0.00  0.00    +0.290 C 
ATOM      9  C   LIG    1      -10.566  -2.230  -1.643  0.00  0.00    +0.090 C 
ATOM     10  C   LIG    1      -11.305  -3.534  -2.005  0.00  0.00    -0.290 C 
ATOM     11  S   LIG    1      -10.576  -4.812  -0.919  0.00  0.00    +2.400 S 
ATOM     12  O   LIG    1      -11.544  -5.228   0.035  0.00  0.00    -0.920 OA
ATOM     13  O   LIG    1       -9.902  -5.778  -1.714  0.00  0.00    -0.920 OA
ATOM     14  C   LIG    1       -9.342  -3.732  -0.100  0.00  0.00    -0.300 C 
ENDBRANCH   4   8
BRANCH   7  15
ATOM     15  C   LIG    1       -6.024   1.123   0.037  0.00  0.00    +0.200 C 
ATOM     16  C   LIG    1       -4.767   0.623   0.028  0.00  0.00    -0.060 C 
BRANCH  16  17
ATOM     17  C   LIG    1       -3.657   1.500   0.028  0.00  0.00    +0.510 C 
ATOM     18  O   LIG    1       -3.833   2.704   0.035  0.00  0.00    -0.510 OA
BRANCH  17  19
ATOM     19  O   LIG    1       -2.403   1.001   0.019  0.00  0.00    -0.330 OA
BRANCH  19  20
ATOM     20  C   LIG    1       -1.330   1.944   0.019  0.00  0.00    +0.250 C 
BRANCH  20  21
ATOM     21  C   LIG    1       -0.014   1.209   0.009  0.00  0.00    +0.510 C 
ATOM     22  N   LIG    1        1.143   1.898   0.001  0.00  0.00    -0.620 N 
ATOM     23  C   LIG    1        1.124   3.363   0.009  0.00  0.00    +0.280 C 
ATOM     24  C   LIG    1        2.422   1.183  -0.015  0.00  0.00    +0.300 C 
ATOM     25  O   LIG    1        0.002  -0.004   0.002  0.00  0.00    -0.510 OA
ENDBRANCH  20  21
ENDBRANCH  19  20
ENDBRANCH  17  19
ENDBRANCH  16  17
ENDBRANCH   7  15
TORSDOF 6
