REMARK  Name = ZINCpe000000Zwq6.0
REMARK                            x       y       z     vdW  Elec       q    Type
REMARK                         _______ _______ _______ _____ _____    ______ ____
ROOT
ATOM      1  O   LIG    1        6.718  -0.003   0.052  0.00  0.00    -0.520 OA
ATOM      2  C   LIG    1        5.958   0.941  -0.048  0.00  0.00    +0.610 C 
ATOM      3  N   LIG    1        6.447   2.192  -0.148  0.00  0.00    -0.590 N 
ATOM      4  C   LIG    1        5.545   3.352  -0.135  0.00  0.00    +0.270 C 
ATOM      5  C   LIG    1        5.828   4.211  -1.372  0.00  0.00    +0.020 C 
ATOM      6  C   LIG    1        7.315   4.571  -1.409  0.00  0.00    +0.020 C 
ATOM      7  C   LIG    1        8.150   3.292  -1.507  0.00  0.00    +0.270 C 
ATOM      8  C   LIG    1        7.893   2.424  -0.266  0.00  0.00    +0.290 C 
ENDROOT
BRANCH   7   9
ATOM      9  N   LIG    1        9.571   3.640  -1.573  0.00  0.00    -0.630 N 
ATOM     10  C   LIG    1       10.481   3.302  -2.678  0.00  0.00    +0.250 C 
ATOM     11  C   LIG    1       11.833   3.897  -2.239  0.00  0.00    +0.250 C 
ATOM     12  N   LIG    1       11.542   4.507  -0.933  0.00  0.00    -0.740 N 
ATOM     13  H   LIG    1       12.184   4.974  -0.376  0.00  0.00    +0.430 HD
ATOM     14  C   LIG    1       10.248   4.321  -0.639  0.00  0.00    +0.700 C 
ATOM     15  O   LIG    1        9.736   4.730   0.385  0.00  0.00    -0.580 OA
ENDBRANCH   7   9
BRANCH   2  16
ATOM     16  C   LIG    1        4.497   0.715  -0.059  0.00  0.00    -0.050 A 
ATOM     17  N   LIG    1        3.572   1.629  -0.289  0.00  0.00    -0.200 NA
ATOM     18  N   LIG    1        2.407   1.085  -0.222  0.00  0.00    -0.160 N 
ATOM     19  N   LIG    1        2.560  -0.276   0.076  0.00  0.00    -0.270 NA
ATOM     20  C   LIG    1        3.848  -0.510   0.171  0.00  0.00    +0.300 A 
BRANCH  18  21
ATOM     21  C   LIG    1        1.187   1.746  -0.411  0.00  0.00    +0.150 A 
ATOM     22  C   LIG    1       -0.008   1.045  -0.312  0.00  0.00    +0.040 A 
ATOM     23  C   LIG    1       -1.209   1.698  -0.504  0.00  0.00    +0.040 A 
ATOM     24  C   LIG    1       -1.224   3.053  -0.783  0.00  0.00    +0.020 A 
ATOM     25  C   LIG    1       -0.036   3.755  -0.882  0.00  0.00    +0.040 A 
ATOM     26  C   LIG    1        1.168   3.105  -0.697  0.00  0.00    +0.030 A 
ENDBRANCH  18  21
ENDBRANCH   2  16
TORSDOF 3
