REMARK  Name = ZINCvU00000004vN.0
REMARK                            x       y       z     vdW  Elec       q    Type
REMARK                         _______ _______ _______ _____ _____    ______ ____
ROOT
ATOM      1  C   LIG    1        2.938   1.615   1.717  0.00  0.00    +0.040 C 
ATOM      2  C   LIG    1        3.949   2.748   1.509  0.00  0.00    +0.300 C 
ATOM      3  N   LIG    1        3.557   3.636   0.438  0.00  0.00    -0.540 N 
ATOM      4  C   LIG    1        2.388   3.374  -0.215  0.00  0.00    +0.400 C 
ATOM      5  N   LIG    1        1.894   4.084  -1.202  0.00  0.00    -0.490 NA
ATOM      6  C   LIG    1        4.320   4.693   0.097  0.00  0.00    +0.540 C 
ATOM      7  O   LIG    1        5.400   4.855   0.623  0.00  0.00    -0.490 OA
ATOM      8  S   LIG    1        1.648   1.924   0.471  0.00  0.00    -0.090 S 
ENDROOT
BRANCH   5   9
ATOM      9  C   LIG    1        0.776   3.651  -1.865  0.00  0.00    +0.150 A 
ATOM     10  C   LIG    1        0.666   2.314  -2.254  0.00  0.00    -0.050 A 
ATOM     11  C   LIG    1       -0.461   1.882  -2.922  0.00  0.00    +0.070 A 
ATOM     12  C   LIG    1       -1.481   2.769  -3.212  0.00  0.00    -0.080 A 
ATOM     13  C   LIG    1       -1.383   4.099  -2.825  0.00  0.00    +0.140 A 
ATOM     14  C   LIG    1       -0.256   4.544  -2.154  0.00  0.00    +0.000 A 
BRANCH  13  15
ATOM     15  O   LIG    1       -2.390   4.966  -3.109  0.00  0.00    -0.320 OA
ATOM     16  C   LIG    1       -3.523   4.439  -3.803  0.00  0.00    +0.250 C 
ENDBRANCH  13  15
ENDBRANCH   5   9
BRANCH   1  18
ATOM     17  C   LIG    1        1.369   0.518   3.322  0.00  0.00    +0.030 C 
ATOM     18  C   LIG    1        2.346   1.679   3.126  0.00  0.00    +0.050 C 
ENDBRANCH   1  18
BRANCH   6  19
ATOM     19  C   LIG    1        3.831   5.674  -0.937  0.00  0.00    +0.120 C 
BRANCH  19  20
ATOM     20  C   LIG    1        4.153   5.154  -2.314  0.00  0.00    -0.050 A 
ATOM     21  C   LIG    1        5.380   4.569  -2.563  0.00  0.00    +0.000 A 
ATOM     22  C   LIG    1        5.674   4.088  -3.825  0.00  0.00    +0.000 A 
ATOM     23  C   LIG    1        4.743   4.199  -4.841  0.00  0.00    +0.000 A 
ATOM     24  C   LIG    1        3.518   4.789  -4.594  0.00  0.00    +0.000 A 
ATOM     25  C   LIG    1        3.223   5.266  -3.331  0.00  0.00    +0.050 A 
ENDBRANCH  19  20
BRANCH  19  26
ATOM     26  C   LIG    1        4.511   7.003  -0.731  0.00  0.00    -0.080 A 
ATOM     27  C   LIG    1        5.875   7.118  -0.923  0.00  0.00    +0.040 A 
ATOM     28  C   LIG    1        6.498   8.338  -0.738  0.00  0.00    +0.000 A 
ATOM     29  C   LIG    1        5.758   9.441  -0.351  0.00  0.00    +0.010 A 
ATOM     30  C   LIG    1        4.395   9.323  -0.154  0.00  0.00    +0.000 A 
ATOM     31  C   LIG    1        3.771   8.104  -0.343  0.00  0.00    +0.010 A 
ENDBRANCH  19  26
ENDBRANCH   6  19
TORSDOF 6
