REMARK  Name = ZINCkj000005mjEn.2
REMARK                            x       y       z     vdW  Elec       q    Type
REMARK                         _______ _______ _______ _____ _____    ______ ____
ROOT
ATOM      1  C   LIG    1       -3.808   1.478   0.626  0.00  0.00    -0.310 A 
ATOM      2  C   LIG    1       -2.707   0.778   0.279  0.00  0.00    +0.310 A 
ATOM      3  N   LIG    1       -3.109  -0.354  -0.339  0.00  0.00    -0.450 N 
ATOM      4  H   LIG    1       -2.529  -1.043  -0.698  0.00  0.00    +0.460 HD
ATOM      5  N   LIG    1       -4.509  -0.359  -0.370  0.00  0.00    -0.250 NA
ATOM      6  C   LIG    1       -4.936   0.741   0.213  0.00  0.00    +0.140 A 
ENDROOT
BRANCH   6   7
ATOM      7  C   LIG    1       -6.354   1.138   0.398  0.00  0.00    -0.100 A 
ATOM      8  C   LIG    1       -7.279   0.968  -0.635  0.00  0.00    +0.100 A 
ATOM      9  C   LIG    1       -8.591   1.349  -0.411  0.00  0.00    -0.010 A 
ATOM     10  C   LIG    1       -8.940   1.885   0.814  0.00  0.00    +0.290 A 
ATOM     11  N   LIG    1       -8.043   2.038   1.770  0.00  0.00    -0.470 NA
ATOM     12  C   LIG    1       -6.783   1.691   1.603  0.00  0.00    +0.270 A 
ENDBRANCH   6   7
BRANCH   1  13
ATOM     13  C   LIG    1       -3.828   2.808   1.333  0.00  0.00    +0.370 C 
BRANCH  13  17
ATOM     14  C   LIG    1       -4.143   6.228  -0.029  0.00  0.00    +0.110 C 
ATOM     15  C   LIG    1       -3.310   5.522  -1.119  0.00  0.00    +0.090 C 
ATOM     16  C   LIG    1       -3.071   4.095  -0.580  0.00  0.00    +0.280 C 
ATOM     17  N   LIG    1       -4.183   3.865   0.377  0.00  0.00    -0.400 N 
ATOM     18  H   LIG    1       -5.031   3.626  -0.115  0.00  0.00    +0.430 HD
ATOM     19  F   LIG    1       -5.381   6.626  -0.544  0.00  0.00    -0.170 F 
ATOM     20  C   LIG    1       -4.338   5.167   1.076  0.00  0.00    +0.280 C 
BRANCH  14  21
ATOM     21  C   LIG    1       -3.384   7.436   0.522  0.00  0.00    +0.210 C 
BRANCH  21  22
ATOM     22  O   LIG    1       -3.214   8.405  -0.515  0.00  0.00    -0.560 OA
ATOM     23  H   LIG    1       -2.739   9.200  -0.236  0.00  0.00    +0.400 HD
ENDBRANCH  21  22
ENDBRANCH  14  21
ENDBRANCH  13  17
ENDBRANCH   1  13
TORSDOF 5
