REMARK  Name = ZINCkj000005mjEn.1
REMARK                            x       y       z     vdW  Elec       q    Type
REMARK                         _______ _______ _______ _____ _____    ______ ____
ROOT
ATOM      1  C   LIG    1       -0.514   2.587   3.425  0.00  0.00    -0.280 A 
ATOM      2  C   LIG    1       -1.855   2.559   3.594  0.00  0.00    +0.250 A 
ATOM      3  N   LIG    1       -2.117   2.829   4.891  0.00  0.00    -0.450 N 
ATOM      4  H   LIG    1       -2.997   2.875   5.296  0.00  0.00    +0.460 HD
ATOM      5  N   LIG    1       -0.898   3.031   5.550  0.00  0.00    -0.250 NA
ATOM      6  C   LIG    1        0.072   2.880   4.672  0.00  0.00    +0.160 A 
ENDROOT
BRANCH   6   7
ATOM      7  C   LIG    1        1.525   3.000   4.947  0.00  0.00    -0.090 A 
ATOM      8  C   LIG    1        2.007   4.005   5.789  0.00  0.00    +0.100 A 
ATOM      9  C   LIG    1        3.371   4.073   6.017  0.00  0.00    -0.010 A 
ATOM     10  C   LIG    1        4.206   3.159   5.402  0.00  0.00    +0.290 A 
ATOM     11  N   LIG    1        3.722   2.223   4.607  0.00  0.00    -0.480 NA
ATOM     12  C   LIG    1        2.432   2.117   4.365  0.00  0.00    +0.270 A 
ENDBRANCH   6   7
BRANCH   1  13
ATOM     13  C   LIG    1        0.223   2.341   2.134  0.00  0.00    +0.370 C 
BRANCH  13  17
ATOM     14  C   LIG    1       -0.761   2.570  -1.373  0.00  0.00    +0.110 C 
ATOM     15  C   LIG    1       -1.875   3.405  -0.702  0.00  0.00    +0.100 C 
ATOM     16  C   LIG    1       -1.371   3.547   0.756  0.00  0.00    +0.270 C 
ATOM     17  N   LIG    1       -0.743   2.227   1.033  0.00  0.00    -0.390 N 
ATOM     18  H   LIG    1       -1.452   1.546   1.260  0.00  0.00    +0.430 HD
ATOM     19  F   LIG    1        0.136   3.407  -2.045  0.00  0.00    -0.170 F 
ATOM     20  C   LIG    1       -0.050   1.844  -0.216  0.00  0.00    +0.280 C 
BRANCH  14  21
ATOM     21  C   LIG    1       -1.367   1.554  -2.344  0.00  0.00    +0.200 C 
BRANCH  21  22
ATOM     22  O   LIG    1       -2.022   2.246  -3.409  0.00  0.00    -0.560 OA
ATOM     23  H   LIG    1       -2.430   1.663  -4.064  0.00  0.00    +0.400 HD
ENDBRANCH  21  22
ENDBRANCH  14  21
ENDBRANCH  13  17
ENDBRANCH   1  13
TORSDOF 5
