REMARK  Name = ZINCrD00000hQ5M8.0
REMARK                            x       y       z     vdW  Elec       q    Type
REMARK                         _______ _______ _______ _____ _____    ______ ____
ROOT
ATOM      1  C   LIG    1        4.271   1.562  -1.184  0.00  0.00    +0.530 C 
ATOM      2  N   LIG    1        3.736   1.277   0.020  0.00  0.00    -0.600 N 
ATOM      3  O   LIG    1        3.756   1.129  -2.193  0.00  0.00    -0.510 OA
ENDROOT
BRANCH   1  10
ATOM      4  C   LIG    1        4.438   5.670  -6.714  0.00  0.00    +0.100 C 
ATOM      5  C   LIG    1        4.934   4.715  -5.659  0.00  0.00    -0.070 A 
ATOM      6  C   LIG    1        5.600   3.559  -6.020  0.00  0.00    +0.020 A 
ATOM      7  C   LIG    1        6.058   2.685  -5.059  0.00  0.00    +0.030 A 
ATOM      8  C   LIG    1        5.862   2.942  -3.701  0.00  0.00    -0.090 A 
ATOM      9  C   LIG    1        6.318   2.087  -2.544  0.00  0.00    +0.130 C 
ATOM     10  C   LIG    1        5.507   2.418  -1.276  0.00  0.00    +0.040 C 
ATOM     11  S   LIG    1        5.074   4.172  -1.583  0.00  0.00    -0.100 S 
ATOM     12  C   LIG    1        5.187   4.104  -3.352  0.00  0.00    -0.080 A 
ATOM     13  C   LIG    1        4.728   4.986  -4.320  0.00  0.00    +0.050 A 
ENDBRANCH   1  10
BRANCH   2  14
ATOM     14  C   LIG    1        4.296   1.881   1.232  0.00  0.00    +0.330 C 
BRANCH  14  15
ATOM     15  C   LIG    1        5.263   0.919   1.872  0.00  0.00    -0.110 A 
ATOM     16  C   LIG    1        4.796  -0.070   2.717  0.00  0.00    +0.020 A 
ATOM     17  C   LIG    1        5.683  -0.956   3.301  0.00  0.00    +0.000 A 
ATOM     18  C   LIG    1        7.037  -0.846   3.047  0.00  0.00    +0.010 A 
ATOM     19  C   LIG    1        7.505   0.146   2.205  0.00  0.00    +0.020 A 
ATOM     20  C   LIG    1        6.617   1.029   1.618  0.00  0.00    +0.010 A 
ENDBRANCH  14  15
ENDBRANCH   2  14
BRANCH   2  21
ATOM     21  C   LIG    1        2.594   0.364   0.118  0.00  0.00    +0.290 C 
BRANCH  21  22
ATOM     22  C   LIG    1        1.293   1.162   0.014  0.00  0.00    +0.250 C 
BRANCH  22  23
ATOM     23  N   LIG    1        0.151   0.249   0.111  0.00  0.00    -0.730 N 
ATOM     24  H   LIG    1        0.300  -0.703   0.224  0.00  0.00    +0.400 HD
ATOM     25  C   LIG    1       -1.105   0.731   0.038  0.00  0.00    +0.500 C 
ATOM     26  O   LIG    1       -1.291   1.921  -0.102  0.00  0.00    -0.510 OA
BRANCH  25  27
ATOM     27  C   LIG    1       -2.279  -0.209   0.132  0.00  0.00    +0.170 C 
ATOM     28 CL   LIG    1       -3.813   0.730   0.003  0.00  0.00    -0.130 Cl
ENDBRANCH  25  27
ENDBRANCH  22  23
ENDBRANCH  21  22
ENDBRANCH   2  21
TORSDOF 7
