REMARK  Name = ZINCkj000005lGuz.0
REMARK                            x       y       z     vdW  Elec       q    Type
REMARK                         _______ _______ _______ _____ _____    ______ ____
ROOT
ATOM      1  O   LIG    1        0.112  -0.156  -0.280  0.00  0.00    -0.530 OA
ATOM      2  C   LIG    1        0.005   1.049  -0.195  0.00  0.00    +0.510 C 
ATOM      3  N   LIG    1        1.106   1.815  -0.059  0.00  0.00    -0.690 N 
ATOM      4  H   LIG    1        1.028   2.781  -0.065  0.00  0.00    +0.410 HD
ENDROOT
BRANCH   2   5
ATOM      5  C   LIG    1       -1.357   1.691  -0.248  0.00  0.00    +0.170 C 
ATOM      6  C   LIG    1       -1.400   2.680  -1.409  0.00  0.00    +0.070 C 
ATOM      7  C   LIG    1       -2.767   3.376  -1.401  0.00  0.00    +0.060 C 
ATOM      8  C   LIG    1       -3.842   2.301  -1.581  0.00  0.00    +0.070 C 
ATOM      9  C   LIG    1       -3.726   1.228  -0.526  0.00  0.00    +0.170 C 
ATOM     10  C   LIG    1       -4.030   1.752   0.890  0.00  0.00    +0.080 C 
ATOM     11  C   LIG    1       -3.439   0.631   1.782  0.00  0.00    +0.060 C 
ATOM     12  C   LIG    1       -2.416  -0.096   0.888  0.00  0.00    +0.260 C 
ATOM     13  N   LIG    1       -2.377   0.644  -0.405  0.00  0.00    -0.370 N 
ATOM     14  H   LIG    1       -2.166   0.040  -1.185  0.00  0.00    +0.430 HD
ENDBRANCH   2   5
BRANCH   3  15
ATOM     15  C   LIG    1        2.421   1.187   0.096  0.00  0.00    +0.180 C 
ATOM     16  C   LIG    1        3.478   2.272   0.272  0.00  0.00    +0.070 C 
ATOM     17  C   LIG    1        3.325   3.333  -0.821  0.00  0.00    +0.110 C 
ATOM     18  S   LIG    1        3.622   2.557  -2.437  0.00  0.00    -0.240 S 
ATOM     19  C   LIG    1        2.471   1.151  -2.407  0.00  0.00    +0.100 C 
ATOM     20  C   LIG    1        2.720   0.336  -1.135  0.00  0.00    +0.060 C 
BRANCH  15  21
ATOM     21  C   LIG    1        2.408   0.291   1.336  0.00  0.00    +0.200 C 
BRANCH  21  22
ATOM     22  O   LIG    1        1.990   1.054   2.470  0.00  0.00    -0.570 OA
ATOM     23  H   LIG    1        1.959   0.548   3.294  0.00  0.00    +0.390 HD
ENDBRANCH  21  22
ENDBRANCH  15  21
ENDBRANCH   3  15
TORSDOF 4
