REMARK  Name = ZINCkj000005lGuz.1
REMARK                            x       y       z     vdW  Elec       q    Type
REMARK                         _______ _______ _______ _____ _____    ______ ____
ROOT
ATOM      1  O   LIG    1        4.715   0.826   0.029  0.00  0.00    -0.520 OA
ATOM      2  C   LIG    1        4.257  -0.114   0.643  0.00  0.00    +0.520 C 
ATOM      3  N   LIG    1        3.201  -0.790   0.149  0.00  0.00    -0.690 N 
ATOM      4  H   LIG    1        2.818  -1.526   0.652  0.00  0.00    +0.410 HD
ENDROOT
BRANCH   2   5
ATOM      5  C   LIG    1        4.869  -0.527   1.956  0.00  0.00    +0.180 C 
ATOM      6  C   LIG    1        4.609  -2.021   2.205  0.00  0.00    +0.070 C 
ATOM      7  C   LIG    1        5.255  -2.873   1.114  0.00  0.00    +0.040 C 
ATOM      8  C   LIG    1        6.744  -2.521   0.964  0.00  0.00    +0.080 C 
ATOM      9  C   LIG    1        6.835  -1.024   0.707  0.00  0.00    +0.160 C 
ATOM     10  C   LIG    1        8.267  -0.495   0.575  0.00  0.00    +0.070 C 
ATOM     11  C   LIG    1        8.206   0.918   1.209  0.00  0.00    +0.070 C 
ATOM     12  C   LIG    1        6.748   1.065   1.730  0.00  0.00    +0.270 C 
ATOM     13  N   LIG    1        6.312  -0.328   1.913  0.00  0.00    -0.380 N 
ATOM     14  H   LIG    1        6.737  -0.714   2.743  0.00  0.00    +0.430 HD
ENDBRANCH   2   5
BRANCH   3  15
ATOM     15  C   LIG    1        2.630  -0.414  -1.146  0.00  0.00    +0.180 C 
ATOM     16  C   LIG    1        3.737  -0.397  -2.197  0.00  0.00    +0.060 C 
ATOM     17  C   LIG    1        4.542  -1.698  -2.129  0.00  0.00    +0.100 C 
ATOM     18  S   LIG    1        3.444  -3.089  -2.533  0.00  0.00    -0.230 S 
ATOM     19  C   LIG    1        2.067  -2.842  -1.372  0.00  0.00    +0.110 C 
ATOM     20  C   LIG    1        1.541  -1.413  -1.525  0.00  0.00    +0.070 C 
BRANCH  15  21
ATOM     21  C   LIG    1        2.017   0.984  -1.039  0.00  0.00    +0.190 C 
BRANCH  21  22
ATOM     22  O   LIG    1        1.063   1.004   0.025  0.00  0.00    -0.570 OA
ATOM     23  H   LIG    1        0.633   1.861   0.152  0.00  0.00    +0.390 HD
ENDBRANCH  21  22
ENDBRANCH  15  21
ENDBRANCH   3  15
TORSDOF 4
