REMARK  Name = ZINCpk000004ATaI.0
REMARK                            x       y       z     vdW  Elec       q    Type
REMARK                         _______ _______ _______ _____ _____    ______ ____
ROOT
ATOM      1  C   LIG    1        4.450   4.552  -1.389  0.00  0.00    +0.560 C 
ATOM      2  N   LIG    1        3.350   3.772  -1.381  0.00  0.00    -0.730 N 
ATOM      3  H   LIG    1        2.475   4.167  -1.514  0.00  0.00    +0.400 HD
ATOM      4  O   LIG    1        5.547   4.056  -1.221  0.00  0.00    -0.530 OA
ENDROOT
BRANCH   1   8
ATOM      5  C   LIG    1        4.080   8.738  -2.003  0.00  0.00    -0.080 A 
ATOM      6  C   LIG    1        5.331   8.178  -1.812  0.00  0.00    +0.020 A 
ATOM      7  C   LIG    1        5.458   6.819  -1.612  0.00  0.00    +0.080 A 
ATOM      8  C   LIG    1        4.321   6.009  -1.603  0.00  0.00    -0.130 A 
ATOM      9  C   LIG    1        3.063   6.580  -1.801  0.00  0.00    +0.040 A 
ATOM     10  C   LIG    1        2.950   7.941  -1.995  0.00  0.00    +0.020 A 
BRANCH   5  11
ATOM     11  C   LIG    1        3.949  10.224  -2.221  0.00  0.00    +0.320 C 
BRANCH  11  13
ATOM     12  C   LIG    1        3.936  11.788  -4.089  0.00  0.00    +0.540 C 
ATOM     13  N   LIG    1        4.030  10.516  -3.654  0.00  0.00    -0.720 N 
ATOM     14  H   LIG    1        4.150   9.794  -4.290  0.00  0.00    +0.400 HD
ATOM     15  O   LIG    1        3.785  12.694  -3.291  0.00  0.00    -0.540 OA
BRANCH  12  17
ATOM     16  C   LIG    1        3.925  13.337  -5.957  0.00  0.00    +0.150 C 
ATOM     17  C   LIG    1        4.017  12.082  -5.528  0.00  0.00    -0.090 C 
ENDBRANCH  12  17
ENDBRANCH  11  13
ENDBRANCH   5  11
ENDBRANCH   1   8
BRANCH   2  18
ATOM     18  C   LIG    1        3.478   2.328  -1.169  0.00  0.00    +0.290 C 
BRANCH  18  19
ATOM     19  C   LIG    1        2.091   1.683  -1.205  0.00  0.00    -0.040 C 
ATOM     20  C   LIG    1        2.233   0.162  -1.109  0.00  0.00    +0.030 C 
ATOM     21  C   LIG    1        0.848  -0.486  -1.178  0.00  0.00    +0.020 C 
ATOM     22  C   LIG    1        0.003  -0.004   0.005  0.00  0.00    +0.270 C 
ATOM     23  N   LIG    1       -0.018   1.466   0.003  0.00  0.00    -0.620 N 
ATOM     24  C   LIG    1       -1.187   2.136   0.019  0.00  0.00    +0.510 C 
ATOM     25  O   LIG    1       -2.234   1.530  -0.065  0.00  0.00    -0.540 OA
ATOM     26  C   LIG    1       -1.192   3.638   0.141  0.00  0.00    +0.090 C 
ATOM     27  C   LIG    1        1.260   2.190  -0.022  0.00  0.00    +0.280 C 
ENDBRANCH  18  19
ENDBRANCH   2  18
TORSDOF 6
