REMARK  Name = ZINCkj000005iRs8.1
REMARK                            x       y       z     vdW  Elec       q    Type
REMARK                         _______ _______ _______ _____ _____    ______ ____
ROOT
ATOM      1  N   LIG    1        2.538   3.748  -1.348  0.00  0.00    -0.500 N 
ATOM      2  H   LIG    1        1.662   3.987  -1.788  0.00  0.00    +0.430 HD
ATOM      3  H   LIG    1        2.971   2.989  -1.852  0.00  0.00    +0.430 HD
ENDROOT
BRANCH   1   4
ATOM      4  C   LIG    1        2.292   3.336   0.040  0.00  0.00    +0.410 C 
BRANCH   4   8
ATOM      5  C   LIG    1        0.683  -0.058   0.044  0.00  0.00    +0.320 A 
ATOM      6  N   LIG    1       -0.515   0.453   0.096  0.00  0.00    -0.490 NA
ATOM      7  S   LIG    1       -0.340   2.140   0.117  0.00  0.00    +0.400 S 
ATOM      8  C   LIG    1        1.379   2.137   0.054  0.00  0.00    -0.270 A 
ATOM      9  C   LIG    1        1.739   0.835   0.020  0.00  0.00    -0.070 A 
ATOM     10 CL   LIG    1        3.397   0.324  -0.049  0.00  0.00    +0.010 Cl
BRANCH   5  12
ATOM     11  C   LIG    1       -0.277  -2.233   0.044  0.00  0.00    +0.290 C 
ATOM     12  O   LIG    1        0.885  -1.402   0.016  0.00  0.00    -0.280 OA
ENDBRANCH   5  12
ENDBRANCH   4   8
ENDBRANCH   1   4
BRANCH   1  13
ATOM     13  C   LIG    1        3.428   4.916  -1.361  0.00  0.00    +0.260 C 
BRANCH  13  14
ATOM     14  C   LIG    1        3.784   5.269  -2.807  0.00  0.00    +0.230 C 
ATOM     15  C   LIG    1        2.519   5.729  -3.562  0.00  0.00    +0.040 C 
ATOM     16  C   LIG    1        3.051   6.886  -4.454  0.00  0.00    +0.060 C 
ATOM     17  C   LIG    1        4.121   7.524  -3.533  0.00  0.00    +0.280 C 
ATOM     18  N   LIG    1        4.739   6.387  -2.828  0.00  0.00    -1.000 NA
BRANCH  18  19
ATOM     19  S   LIG    1        6.258   6.371  -2.168  0.00  0.00    +2.620 S 
ATOM     20  O   LIG    1        6.221   5.304  -1.229  0.00  0.00    -0.960 OA
ATOM     21  O   LIG    1        6.471   7.711  -1.745  0.00  0.00    -0.930 OA
ATOM     22  C   LIG    1        7.351   5.960  -3.556  0.00  0.00    -0.270 C 
ENDBRANCH  18  19
ENDBRANCH  13  14
ENDBRANCH   1  13
TORSDOF 6
