REMARK  Name = ZINCrg000000rdDp.0
REMARK                            x       y       z     vdW  Elec       q    Type
REMARK                         _______ _______ _______ _____ _____    ______ ____
ROOT
ATOM      1  N   LIG    1       -0.908   5.182  -2.129  0.00  0.00    -0.740 N 
ATOM      2  H   LIG    1       -1.207   5.575  -1.294  0.00  0.00    +0.390 HD
ATOM      3  C   LIG    1       -0.791   3.844  -2.240  0.00  0.00    +0.710 C 
ATOM      4  N   LIG    1       -1.185   3.047  -1.226  0.00  0.00    -0.630 N 
ATOM      5  C   LIG    1       -1.171   1.583  -1.368  0.00  0.00    +0.310 C 
ATOM      6  C   LIG    1       -0.418   0.986  -0.174  0.00  0.00    +0.200 C 
ATOM      7  N   LIG    1       -1.011   1.483   1.074  0.00  0.00    -0.450 N 
ATOM      8  C   LIG    1       -0.868   2.941   1.188  0.00  0.00    +0.200 C 
ATOM      9  C   LIG    1       -1.639   3.618   0.051  0.00  0.00    +0.280 C 
ATOM     10  O   LIG    1       -0.332   3.355  -3.254  0.00  0.00    -0.590 OA
ENDROOT
BRANCH   7  11
ATOM     11  C   LIG    1       -0.459   0.835   2.185  0.00  0.00    +0.260 A 
ATOM     12  N   LIG    1        0.462  -0.099   2.154  0.00  0.00    -0.320 NA
ATOM     13  N   LIG    1        0.741  -0.482   3.472  0.00  0.00    -0.470 N 
ATOM     14  H   LIG    1        1.384  -1.154   3.746  0.00  0.00    +0.440 HD
ATOM     15  C   LIG    1       -0.044   0.245   4.294  0.00  0.00    +0.140 A 
ATOM     16  C   LIG    1       -0.797   1.068   3.528  0.00  0.00    -0.120 A 
BRANCH  15  17
ATOM     17  C   LIG    1       -0.077   0.157   5.798  0.00  0.00    +0.030 C 
ATOM     18  C   LIG    1        1.237  -0.156   6.516  0.00  0.00    +0.030 C 
ATOM     19  C   LIG    1        0.140  -1.220   6.429  0.00  0.00    +0.040 C 
ENDBRANCH  15  17
ENDBRANCH   7  11
BRANCH   1  20
ATOM     20  C   LIG    1       -0.584   6.042  -3.269  0.00  0.00    +0.280 C 
BRANCH  20  22
ATOM     21  C   LIG    1       -2.284   7.747  -2.603  0.00  0.00    +0.030 C 
ATOM     22  C   LIG    1       -0.799   7.506  -2.881  0.00  0.00    -0.020 C 
BRANCH  22  23
ATOM     23  C   LIG    1       -0.343   8.411  -4.028  0.00  0.00    +0.180 C 
BRANCH  23  24
ATOM     24  N   LIG    1       -0.433   9.816  -3.609  0.00  0.00    -0.530 NA
ATOM     25  C   LIG    1       -0.449  10.713  -4.774  0.00  0.00    +0.150 C 
ATOM     26  C   LIG    1       -0.604  12.159  -4.295  0.00  0.00    +0.220 C 
ATOM     27  O   LIG    1        0.456  12.471  -3.387  0.00  0.00    -0.390 OA
ATOM     28  C   LIG    1        0.502  11.617  -2.241  0.00  0.00    +0.220 C 
ATOM     29  C   LIG    1        0.667  10.165  -2.698  0.00  0.00    +0.150 C 
ENDBRANCH  23  24
ENDBRANCH  22  23
ENDBRANCH  20  22
ENDBRANCH   1  20
TORSDOF 6
