REMARK  Name = ZINCrH000004sQe8.0
REMARK                            x       y       z     vdW  Elec       q    Type
REMARK                         _______ _______ _______ _____ _____    ______ ____
ROOT
ATOM      1  C   LIG    1        1.351   1.968   0.449  0.00  0.00    +0.560 C 
ATOM      2  N   LIG    1        0.184   1.337   0.685  0.00  0.00    -0.700 N 
ATOM      3  H   LIG    1        0.167   0.373   0.794  0.00  0.00    +0.420 HD
ATOM      4  O   LIG    1        1.371   3.176   0.312  0.00  0.00    -0.510 OA
ENDROOT
BRANCH   1  13
ATOM      5  C   LIG    1        2.779   3.731  -1.810  0.00  0.00    +0.190 C 
ATOM      6  C   LIG    1        3.784   2.648  -1.511  0.00  0.00    +0.150 A 
ATOM      7  N   LIG    1        4.948   2.504  -2.068  0.00  0.00    -0.270 NA
ATOM      8  O   LIG    1        5.599   1.373  -1.525  0.00  0.00    -0.080 OA
ATOM      9  C   LIG    1        4.805   0.799  -0.599  0.00  0.00    +0.300 A 
ATOM     10  N   LIG    1        4.946  -0.261   0.182  0.00  0.00    -0.460 NA
ATOM     11  C   LIG    1        4.009  -0.634   1.027  0.00  0.00    +0.240 A 
ATOM     12  C   LIG    1        2.821   0.068   1.152  0.00  0.00    -0.010 A 
ATOM     13  C   LIG    1        2.607   1.191   0.354  0.00  0.00    +0.000 A 
ATOM     14  C   LIG    1        3.628   1.565  -0.541  0.00  0.00    -0.210 A 
BRANCH  11  15
ATOM     15  C   LIG    1        4.237  -1.852   1.885  0.00  0.00    +0.010 C 
ATOM     16  C   LIG    1        3.327  -2.039   3.101  0.00  0.00    +0.040 C 
ATOM     17  C   LIG    1        4.789  -1.629   3.295  0.00  0.00    +0.060 C 
ENDBRANCH  11  15
ENDBRANCH   1  13
BRANCH   2  18
ATOM     18  C   LIG    1       -1.060   2.105   0.773  0.00  0.00    +0.340 C 
ATOM     19  C   LIG    1       -1.233   2.635   2.198  0.00  0.00    +0.060 C 
BRANCH  18  20
ATOM     20  C   LIG    1       -2.226   1.216   0.423  0.00  0.00    +0.270 A 
ATOM     21  N   LIG    1       -2.235  -0.080   0.537  0.00  0.00    -0.480 NA
ATOM     22  C   LIG    1       -3.439  -0.564   0.139  0.00  0.00    +0.050 A 
ATOM     23  C   LIG    1       -3.982  -1.849   0.059  0.00  0.00    +0.070 A 
ATOM     24  C   LIG    1       -5.257  -2.022  -0.401  0.00  0.00    +0.000 A 
ATOM     25  C   LIG    1       -6.023  -0.932  -0.790  0.00  0.00    +0.030 A 
ATOM     26  C   LIG    1       -5.508   0.345  -0.721  0.00  0.00    +0.020 A 
ATOM     27  C   LIG    1       -4.215   0.540  -0.256  0.00  0.00    +0.050 A 
ATOM     28  N   LIG    1       -3.419   1.652  -0.065  0.00  0.00    -0.590 N 
ATOM     29  H   LIG    1       -3.665   2.572  -0.244  0.00  0.00    +0.430 HD
ENDBRANCH  18  20
ENDBRANCH   2  18
TORSDOF 4
