REMARK  Name = ZINCrD00000F5LnV.1
REMARK                            x       y       z     vdW  Elec       q    Type
REMARK                         _______ _______ _______ _____ _____    ______ ____
ROOT
ATOM      1  C   LIG    1       -4.204  -0.502   4.765  0.00  0.00    +0.100 C 
ATOM      2  C   LIG    1       -3.383  -1.447   5.603  0.00  0.00    -0.020 A 
ATOM      3  C   LIG    1       -3.112  -1.137   6.924  0.00  0.00    -0.010 A 
ATOM      4  C   LIG    1       -2.356  -1.996   7.696  0.00  0.00    +0.080 A 
ATOM      5  C   LIG    1       -1.870  -3.182   7.143  0.00  0.00    -0.140 A 
ATOM      6  C   LIG    1       -2.152  -3.491   5.811  0.00  0.00    +0.080 A 
ATOM      7  C   LIG    1       -2.909  -2.624   5.050  0.00  0.00    -0.100 A 
ENDROOT
BRANCH   5   8
ATOM      8  C   LIG    1       -1.060  -4.105   7.963  0.00  0.00    +0.510 C 
ATOM      9  O   LIG    1       -0.637  -5.136   7.479  0.00  0.00    -0.500 OA
BRANCH   8  10
ATOM     10  O   LIG    1       -0.789  -3.804   9.248  0.00  0.00    -0.350 OA
BRANCH  10  11
ATOM     11  C   LIG    1        0.013  -4.758   9.994  0.00  0.00    +0.120 C 
ATOM     12  C   LIG    1       -0.705  -6.109  10.030  0.00  0.00    +0.030 C 
ATOM     13  C   LIG    1        0.214  -4.248  11.422  0.00  0.00    +0.080 C 
ATOM     14  C   LIG    1        1.374  -4.922   9.315  0.00  0.00    +0.030 C 
ENDBRANCH  10  11
ENDBRANCH   8  10
ENDBRANCH   5   8
BRANCH   7  15
ATOM     15  C   LIG    1       -3.214  -2.955   3.613  0.00  0.00    +0.230 C 
BRANCH  15  16
ATOM     16  N   LIG    1       -4.616  -3.380   3.495  0.00  0.00    -0.530 NA
ATOM     17  C   LIG    1       -5.058  -3.355   2.095  0.00  0.00    +0.170 C 
ATOM     18  C   LIG    1       -6.556  -3.661   2.026  0.00  0.00    +0.050 C 
ATOM     19  C   LIG    1       -6.820  -5.038   2.640  0.00  0.00    +0.020 C 
ATOM     20  C   LIG    1       -6.306  -5.053   4.083  0.00  0.00    +0.020 C 
ATOM     21  C   LIG    1       -4.816  -4.706   4.092  0.00  0.00    +0.170 C 
BRANCH  19  22
ATOM     22  C   LIG    1       -8.323  -5.323   2.629  0.00  0.00    -0.400 C 
ATOM     23  C   LIG    1       -8.926  -5.320   1.222  0.00  0.00    +0.120 C 
ATOM     24  C   LIG    1       -9.944  -6.375   1.660  0.00  0.00    -0.330 C 
ATOM     25  S   LIG    1       -8.715  -7.087   2.790  0.00  0.00    +2.390 S 
ATOM     26  O   LIG    1       -9.260  -7.416   4.061  0.00  0.00    -0.930 OA
ATOM     27  O   LIG    1       -7.777  -7.922   2.126  0.00  0.00    -0.910 OA
ENDBRANCH  19  22
ENDBRANCH  15  16
ENDBRANCH   7  15
TORSDOF 6
