REMARK  Name = ZINCkj000005jGlj.0
REMARK                            x       y       z     vdW  Elec       q    Type
REMARK                         _______ _______ _______ _____ _____    ______ ____
ROOT
ATOM      1  C   LIG    1       -0.731   1.580   1.266  0.00  0.00    +0.160 C 
ATOM      2  C   LIG    1       -0.013   1.086   0.008  0.00  0.00    +0.140 C 
ATOM      3  N   LIG    1       -0.725   1.574  -1.182  0.00  0.00    -0.520 NA
ATOM      4  C   LIG    1       -2.119   1.107  -1.182  0.00  0.00    +0.160 C 
ATOM      5  C   LIG    1       -2.818   1.601   0.088  0.00  0.00    +0.260 C 
ATOM      6  O   LIG    1       -2.093   1.143   1.233  0.00  0.00    -0.360 OA
ENDROOT
BRANCH   1   8
ATOM      7  C   LIG    1       -0.759   1.505   3.764  0.00  0.00    +0.100 C 
ATOM      8  C   LIG    1       -0.040   1.010   2.506  0.00  0.00    +0.180 C 
BRANCH   8   9
ATOM      9  N   LIG    1        1.360   1.455   2.535  0.00  0.00    -0.630 N 
ATOM     10  H   LIG    1        1.833   1.129   1.707  0.00  0.00    +0.430 HD
ATOM     11  H   LIG    1        1.815   1.079   3.353  0.00  0.00    +0.440 HD
ATOM     12  H   LIG    1        1.391   2.463   2.566  0.00  0.00    +0.440 HD
ENDBRANCH   8   9
ENDBRANCH   1   8
BRANCH   3  13
ATOM     13  C   LIG    1       -0.034   1.168  -2.413  0.00  0.00    +0.240 C 
BRANCH  13  14
ATOM     14  C   LIG    1       -0.645   1.883  -3.591  0.00  0.00    -0.090 A 
ATOM     15  C   LIG    1       -1.557   1.229  -4.394  0.00  0.00    +0.010 A 
ATOM     16  C   LIG    1       -2.116   1.884  -5.476  0.00  0.00    +0.010 A 
ATOM     17  C   LIG    1       -1.759   3.190  -5.749  0.00  0.00    +0.030 A 
ATOM     18  C   LIG    1       -0.843   3.847  -4.943  0.00  0.00    -0.120 A 
ATOM     19  C   LIG    1       -0.474   5.269  -5.278  0.00  0.00    +0.280 C 
ATOM     20  O   LIG    1        0.169   5.888  -4.164  0.00  0.00    -0.370 OA
ATOM     21  C   LIG    1        1.264   5.122  -3.649  0.00  0.00    +0.210 C 
ATOM     22  C   LIG    1        0.703   3.879  -2.957  0.00  0.00    +0.060 C 
ATOM     23  C   LIG    1       -0.292   3.196  -3.859  0.00  0.00    -0.050 A 
ENDBRANCH  13  14
ENDBRANCH   3  13
TORSDOF 4
