REMARK  Name = ZINCrD000000AL1z.0
REMARK                            x       y       z     vdW  Elec       q    Type
REMARK                         _______ _______ _______ _____ _____    ______ ____
ROOT
ATOM      1  C   LIG    1       -0.018   1.503   0.010  0.00  0.00    +0.190 C 
ENDROOT
BRANCH   1   2
ATOM      2  N   LIG    1       -0.729   1.989  -1.180  0.00  0.00    -0.510 NA
ATOM      3  C   LIG    1       -2.041   1.340  -1.312  0.00  0.00    +0.160 C 
ATOM      4  C   LIG    1       -2.720   1.830  -2.594  0.00  0.00    +0.230 C 
ATOM      5  O   LIG    1       -2.823   3.256  -2.557  0.00  0.00    -0.380 OA
ATOM      6  C   LIG    1       -1.563   3.921  -2.429  0.00  0.00    +0.230 C 
ATOM      7  C   LIG    1       -0.873   3.452  -1.146  0.00  0.00    +0.170 C 
BRANCH   6   8
ATOM      8  C   LIG    1       -1.785   5.410  -2.366  0.00  0.00    -0.130 A 
ATOM      9  C   LIG    1       -2.995   5.911  -1.925  0.00  0.00    +0.120 A 
ATOM     10  C   LIG    1       -3.199   7.277  -1.866  0.00  0.00    -0.020 A 
ATOM     11  C   LIG    1       -2.191   8.145  -2.250  0.00  0.00    +0.130 A 
ATOM     12  C   LIG    1       -0.978   7.645  -2.692  0.00  0.00    -0.040 A 
ATOM     13  F   LIG    1       -2.391   9.480  -2.193  0.00  0.00    -0.130 F 
ATOM     14  C   LIG    1       -0.773   6.277  -2.745  0.00  0.00    +0.140 A 
ATOM     15  F   LIG    1        0.411   5.788  -3.172  0.00  0.00    -0.120 F 
ENDBRANCH   6   8
ENDBRANCH   1   2
BRANCH   1  16
ATOM     16  C   LIG    1        0.002  -0.004   0.002  0.00  0.00    -0.090 A 
ATOM     17  C   LIG    1        0.202  -0.686  -1.184  0.00  0.00    +0.040 A 
ATOM     18  C   LIG    1        0.226  -2.068  -1.190  0.00  0.00    +0.010 A 
ATOM     19  C   LIG    1        0.039  -2.768  -0.013  0.00  0.00    +0.010 A 
ATOM     20  C   LIG    1       -0.166  -2.087   1.171  0.00  0.00    +0.010 A 
ATOM     21  C   LIG    1       -0.185  -0.704   1.179  0.00  0.00    +0.010 A 
ENDBRANCH   1  16
BRANCH   1  23
ATOM     22  O   LIG    1        1.774   2.732  -0.910  0.00  0.00    -0.510 OA
ATOM     23  C   LIG    1        1.395   2.024  -0.000  0.00  0.00    +0.530 C 
ATOM     24  N   LIG    1        2.239   1.705   1.001  0.00  0.00    -0.700 N 
ATOM     25  H   LIG    1        1.937   1.139   1.728  0.00  0.00    +0.400 HD
BRANCH  24  26
ATOM     26  C   LIG    1        3.614   2.212   0.990  0.00  0.00    +0.220 C 
ATOM     27  C   LIG    1        4.731   1.232   1.354  0.00  0.00    +0.010 C 
ATOM     28  C   LIG    1        4.331   2.336   2.336  0.00  0.00    +0.020 C 
ENDBRANCH  24  26
ENDBRANCH   1  23
TORSDOF 5
