REMARK  Name = ZINCvU0000000Hah.0
REMARK                            x       y       z     vdW  Elec       q    Type
REMARK                         _______ _______ _______ _____ _____    ______ ____
ROOT
ATOM      1  N   LIG    1       -5.774   6.776  -0.938  0.00  0.00    -0.720 N 
ATOM      2  H   LIG    1       -4.891   7.176  -0.987  0.00  0.00    +0.400 HD
ATOM      3  C   LIG    1       -5.903   5.449  -0.741  0.00  0.00    +0.600 C 
ATOM      4  O   LIG    1       -7.011   4.948  -0.679  0.00  0.00    -0.520 OA
ENDROOT
BRANCH   3   5
ATOM      5  C   LIG    1       -4.713   4.613  -0.600  0.00  0.00    -0.260 A 
ATOM      6  C   LIG    1       -4.725   3.272  -0.399  0.00  0.00    +0.170 A 
ATOM      7  C   LIG    1       -3.470   2.675  -0.294  0.00  0.00    -0.240 A 
ATOM      8  C   LIG    1       -2.424   3.560  -0.413  0.00  0.00    +0.060 A 
ATOM      9  N   LIG    1       -1.217   2.981  -0.310  0.00  0.00    -0.510 NA
ATOM     10  C   LIG    1       -1.170   1.706  -0.118  0.00  0.00    +0.360 A 
ATOM     11  S   LIG    1       -2.798   1.051  -0.048  0.00  0.00    +0.130 S 
ATOM     12  S   LIG    1       -3.061   5.195  -0.667  0.00  0.00    +0.230 S 
BRANCH  10  13
ATOM     13  N   LIG    1       -0.011   0.966   0.007  0.00  0.00    -0.620 N 
ATOM     14  H   LIG    1       -0.060   0.023   0.230  0.00  0.00    +0.430 HD
BRANCH  13  15
ATOM     15  C   LIG    1        1.232   1.574  -0.191  0.00  0.00    +0.150 A 
ATOM     16  C   LIG    1        1.351   2.644  -1.069  0.00  0.00    +0.020 A 
ATOM     17  C   LIG    1        2.580   3.245  -1.260  0.00  0.00    +0.030 A 
ATOM     18  C   LIG    1        3.692   2.777  -0.585  0.00  0.00    -0.020 A 
ATOM     19  C   LIG    1        3.578   1.708   0.286  0.00  0.00    +0.030 A 
ATOM     20  C   LIG    1        2.352   1.105   0.484  0.00  0.00    -0.020 A 
ENDBRANCH  13  15
ENDBRANCH  10  13
ENDBRANCH   3   5
BRANCH   1  21
ATOM     21  C   LIG    1       -6.966   7.615  -1.079  0.00  0.00    +0.350 C 
BRANCH  21  27
ATOM     22  C   LIG    1       -6.138   9.474  -2.543  0.00  0.00    +0.150 A 
ATOM     23  C   LIG    1       -5.760  10.793  -2.739  0.00  0.00    -0.130 A 
ATOM     24  C   LIG    1       -5.784  11.684  -1.678  0.00  0.00    +0.150 A 
ATOM     25  C   LIG    1       -6.192  11.254  -0.420  0.00  0.00    +0.060 A 
ATOM     26  C   LIG    1       -6.575   9.936  -0.229  0.00  0.00    +0.040 A 
ATOM     27  C   LIG    1       -6.551   9.049  -1.289  0.00  0.00    -0.150 A 
BRANCH  22  29
ATOM     28  C   LIG    1       -5.676   9.103  -4.846  0.00  0.00    +0.240 C 
ATOM     29  O   LIG    1       -6.111   8.597  -3.582  0.00  0.00    -0.310 OA
ENDBRANCH  22  29
BRANCH  25  30
ATOM     30  O   LIG    1       -6.217  12.128   0.623  0.00  0.00    -0.310 OA
ATOM     31  C   LIG    1       -6.648  11.617   1.887  0.00  0.00    +0.240 C 
ENDBRANCH  25  30
BRANCH  24  32
ATOM     32  O   LIG    1       -5.409  12.978  -1.867  0.00  0.00    -0.300 OA
ATOM     33  C   LIG    1       -5.001  13.349  -3.185  0.00  0.00    +0.240 C 
ENDBRANCH  24  32
ENDBRANCH  21  27
ENDBRANCH   1  21
TORSDOF 8
