REMARK  Name = ZINCtV000002v4BR.0
REMARK                            x       y       z     vdW  Elec       q    Type
REMARK                         _______ _______ _______ _____ _____    ______ ____
ROOT
ATOM      1  C   LIG    1        3.132   3.224  -0.055  0.00  0.00    +0.170 A 
ATOM      2  C   LIG    1        2.892   2.080  -0.785  0.00  0.00    +0.060 A 
ATOM      3  C   LIG    1        1.637   1.479  -0.780  0.00  0.00    -0.010 A 
ATOM      4  C   LIG    1        0.598   2.016  -0.053  0.00  0.00    +0.100 A 
ATOM      5  C   LIG    1        0.811   3.183   0.703  0.00  0.00    -0.010 A 
ATOM      6  C   LIG    1       -0.210   3.774   1.468  0.00  0.00    +0.020 A 
ATOM      7  C   LIG    1        0.073   4.904   2.175  0.00  0.00    +0.230 A 
ATOM      8  N   LIG    1        1.279   5.455   2.157  0.00  0.00    -0.480 NA
ATOM      9  C   LIG    1        2.278   4.958   1.465  0.00  0.00    +0.300 A 
ATOM     10  C   LIG    1        2.091   3.796   0.703  0.00  0.00    -0.100 A 
ENDROOT
BRANCH   1  13
ATOM     11  N   LIG    1        6.694   3.655  -0.469  0.00  0.00    -0.620 N 
ATOM     12  C   LIG    1        5.488   3.067  -0.341  0.00  0.00    +0.710 C 
ATOM     13  N   LIG    1        4.400   3.814  -0.066  0.00  0.00    -0.680 N 
ATOM     14  H   LIG    1        4.496   4.760   0.124  0.00  0.00    +0.410 HD
ATOM     15  O   LIG    1        5.381   1.863  -0.473  0.00  0.00    -0.570 OA
ATOM     16  C   LIG    1        6.822   5.105  -0.309  0.00  0.00    +0.280 C 
BRANCH  11  17
ATOM     17  C   LIG    1        7.876   2.843  -0.767  0.00  0.00    +0.260 C 
ATOM     18  C   LIG    1        8.493   3.307  -2.088  0.00  0.00    +0.030 C 
BRANCH  17  19
ATOM     19  C   LIG    1        8.901   3.002   0.357  0.00  0.00    +0.020 C 
BRANCH  19  20
ATOM     20  C   LIG    1        8.330   2.423   1.653  0.00  0.00    +0.000 C 
BRANCH  20  22
ATOM     21  C   LIG    1        8.783   2.003   4.074  0.00  0.00    +0.000 C 
ATOM     22  C   LIG    1        9.355   2.582   2.778  0.00  0.00    +0.000 C 
ENDBRANCH  20  22
ENDBRANCH  19  20
ENDBRANCH  17  19
ENDBRANCH  11  17
ENDBRANCH   1  13
BRANCH   4  23
ATOM     23  O   LIG    1       -0.623   1.420  -0.062  0.00  0.00    -0.250 OA
BRANCH  23  24
ATOM     24  C   LIG    1       -0.750   0.236  -0.718  0.00  0.00    +0.120 A 
ATOM     25  C   LIG    1       -1.555   0.150  -1.845  0.00  0.00    +0.010 A 
ATOM     26  C   LIG    1       -1.678  -1.052  -2.515  0.00  0.00    +0.080 A 
ATOM     27  C   LIG    1       -1.011  -2.173  -2.056  0.00  0.00    -0.010 A 
ATOM     28  C   LIG    1       -0.212  -2.091  -0.927  0.00  0.00    +0.120 A 
ATOM     29  F   LIG    1        0.440  -3.188  -0.481  0.00  0.00    -0.130 F 
ATOM     30  C   LIG    1       -0.080  -0.888  -0.258  0.00  0.00    -0.040 A 
ENDBRANCH  23  24
ENDBRANCH   4  23
TORSDOF 7
