REMARK  Name = ZINCkj00000dDO6Z.0
REMARK                            x       y       z     vdW  Elec       q    Type
REMARK                         _______ _______ _______ _____ _____    ______ ____
ROOT
ATOM      1  C   LIG    1        4.336  -0.857   3.779  0.00  0.00    +0.270 A 
ATOM      2  N   LIG    1        4.087  -0.190   2.667  0.00  0.00    -0.470 NA
ATOM      3  C   LIG    1        2.805  -0.469   2.359  0.00  0.00    +0.340 A 
ATOM      4  N   LIG    1        2.351  -1.283   3.275  0.00  0.00    -0.410 NA
ATOM      5  O   LIG    1        3.212  -1.517   4.096  0.00  0.00    +0.090 OA
ENDROOT
BRANCH   3   6
ATOM      6  N   LIG    1        2.099   0.014   1.266  0.00  0.00    -0.440 N 
ATOM      7  C   LIG    1        0.726  -0.511   1.251  0.00  0.00    +0.240 C 
ATOM      8  C   LIG    1        0.002  -0.004   0.002  0.00  0.00    +0.300 C 
ATOM      9  N   LIG    1       -0.018   1.465   0.010  0.00  0.00    -0.510 N 
ATOM     10  C   LIG    1        1.359   1.975  -0.000  0.00  0.00    +0.300 C 
ATOM     11  H   LIG    1       -0.490   1.790   0.840  0.00  0.00    +0.430 HD
ATOM     12  H   LIG    1       -0.506   1.799  -0.807  0.00  0.00    +0.440 HD
ATOM     13  C   LIG    1        2.095   1.484   1.249  0.00  0.00    +0.240 C 
ENDBRANCH   3   6
BRANCH   1  20
ATOM     14  C   LIG    1        4.550  -2.433   6.193  0.00  0.00    +0.120 C 
ATOM     15  C   LIG    1        5.725  -1.634   5.691  0.00  0.00    +0.010 A 
ATOM     16  C   LIG    1        6.932  -1.651   6.388  0.00  0.00    -0.030 A 
ATOM     17  C   LIG    1        8.016  -0.904   5.920  0.00  0.00    +0.120 A 
ATOM     18  C   LIG    1        7.894  -0.153   4.768  0.00  0.00    +0.020 A 
ATOM     19  C   LIG    1        6.702  -0.135   4.071  0.00  0.00    +0.130 A 
ATOM     20  C   LIG    1        5.611  -0.878   4.527  0.00  0.00    -0.050 A 
BRANCH  16  21
ATOM     21  C   LIG    1        7.060  -2.430   7.583  0.00  0.00    +0.240 C 
ATOM     22  N   LIG    1        7.162  -3.048   8.531  0.00  0.00    -0.390 NA
ENDBRANCH  16  21
ENDBRANCH   1  20
TORSDOF 3
