REMARK  Name = ZINCqH0000000COu.0
REMARK                            x       y       z     vdW  Elec       q    Type
REMARK                         _______ _______ _______ _____ _____    ______ ____
ROOT
ATOM      1  C   LIG    1       -3.125   1.955   0.003  0.00  0.00    -0.710 A 
ATOM      2  C   LIG    1       -4.204   1.123   0.228  0.00  0.00    +0.150 A 
ATOM      3  C   LIG    1       -4.011  -0.239   0.366  0.00  0.00    -0.030 A 
ATOM      4  C   LIG    1       -2.740  -0.773   0.275  0.00  0.00    +0.090 A 
ATOM      5  C   LIG    1       -1.657   0.053   0.045  0.00  0.00    +0.000 A 
ATOM      6  C   LIG    1       -1.847   1.421  -0.095  0.00  0.00    +0.250 A 
ENDROOT
BRANCH   6   7
ATOM      7  N   LIG    1       -0.752   2.261  -0.328  0.00  0.00    -0.680 N 
ATOM      8  H   LIG    1       -0.887   3.135  -0.726  0.00  0.00    +0.410 HD
ATOM      9  C   LIG    1        0.491   1.855   0.000  0.00  0.00    +0.520 C 
ATOM     10  O   LIG    1        0.651   0.805   0.586  0.00  0.00    -0.500 OA
BRANCH   9  11
ATOM     11  C   LIG    1        1.682   2.703  -0.365  0.00  0.00    +0.070 C 
BRANCH  11  12
ATOM     12  C   LIG    1        2.963   2.016   0.113  0.00  0.00    +0.050 C 
BRANCH  12  13
ATOM     13  C   LIG    1        4.172   2.877  -0.259  0.00  0.00    +0.070 C 
BRANCH  13  14
ATOM     14  C   LIG    1        5.434   2.200   0.212  0.00  0.00    -0.080 A 
ATOM     15  C   LIG    1        5.930   2.466   1.474  0.00  0.00    +0.000 A 
ATOM     16  C   LIG    1        7.085   1.842   1.908  0.00  0.00    +0.000 A 
ATOM     17  C   LIG    1        7.749   0.960   1.076  0.00  0.00    +0.000 A 
ATOM     18  C   LIG    1        7.255   0.698  -0.188  0.00  0.00    +0.000 A 
ATOM     19  C   LIG    1        6.097   1.318  -0.620  0.00  0.00    +0.000 A 
ENDBRANCH  13  14
ENDBRANCH  12  13
ENDBRANCH  11  12
ENDBRANCH   9  11
ENDBRANCH   6   7
BRANCH   1  20
ATOM     20  S   LIG    1       -3.370   3.692  -0.166  0.00  0.00    +2.690 S 
ATOM     21  O   LIG    1       -2.445   4.316   0.713  0.00  0.00    -0.960 OA
ATOM     22  O   LIG    1       -4.773   3.907  -0.099  0.00  0.00    -0.950 OA
BRANCH  20  23
ATOM     23  N   LIG    1       -2.908   4.105  -1.702  0.00  0.00    -1.120 NA
ATOM     24  H   LIG    1       -2.132   4.671  -1.839  0.00  0.00    +0.420 HD
BRANCH  23  26
ATOM     25  C   LIG    1       -5.053   4.271  -2.864  0.00  0.00    +0.040 C 
ATOM     26  C   LIG    1       -3.670   3.616  -2.853  0.00  0.00    +0.180 C 
ATOM     27  C   LIG    1       -3.826   2.098  -2.754  0.00  0.00    +0.030 C 
ATOM     28  C   LIG    1       -2.928   3.970  -4.144  0.00  0.00    +0.050 C 
ENDBRANCH  23  26
ENDBRANCH  20  23
ENDBRANCH   1  20
TORSDOF 8
