REMARK  Name = ZINCpk00000KfL9M.0
REMARK                            x       y       z     vdW  Elec       q    Type
REMARK                         _______ _______ _______ _____ _____    ______ ____
ROOT
ATOM      1  C   LIG    1       -0.392   1.345   2.576  0.00  0.00    +0.270 C 
ATOM      2  C   LIG    1       -1.536   0.612   3.281  0.00  0.00    +0.030 C 
ATOM      3  C   LIG    1       -1.179   0.420   4.757  0.00  0.00    +0.190 C 
ATOM      4  N   LIG    1       -0.952   1.729   5.383  0.00  0.00    -0.520 NA
ATOM      5  C   LIG    1        0.174   2.430   4.753  0.00  0.00    +0.170 C 
ATOM      6  C   LIG    1       -0.143   2.684   3.277  0.00  0.00    +0.030 C 
ENDROOT
BRANCH   1  10
ATOM      7  N   LIG    1       -1.919   2.368  -0.580  0.00  0.00    -0.640 N 
ATOM      8  C   LIG    1       -0.811   1.623  -1.196  0.00  0.00    +0.250 C 
ATOM      9  C   LIG    1       -0.013   1.086   0.008  0.00  0.00    +0.250 C 
ATOM     10  N   LIG    1       -0.752   1.586   1.177  0.00  0.00    -0.630 N 
ATOM     11  C   LIG    1       -1.811   2.295   0.753  0.00  0.00    +0.700 C 
ATOM     12  O   LIG    1       -2.599   2.825   1.512  0.00  0.00    -0.570 OA
BRANCH   7  14
ATOM     13  C   LIG    1       -4.146   2.127  -1.562  0.00  0.00    +0.010 C 
ATOM     14  C   LIG    1       -2.974   3.077  -1.308  0.00  0.00    +0.310 C 
ENDBRANCH   7  14
ENDBRANCH   1  10
BRANCH   4  15
ATOM     15  C   LIG    1       -0.742   1.591   6.830  0.00  0.00    +0.210 C 
BRANCH  15  16
ATOM     16  C   LIG    1       -2.010   1.094   7.476  0.00  0.00    +0.510 C 
ATOM     17  N   LIG    1       -2.054   0.892   8.808  0.00  0.00    -0.620 N 
ATOM     18  C   LIG    1       -0.868   1.155   9.628  0.00  0.00    +0.280 C 
ATOM     19  O   LIG    1       -2.991   0.876   6.797  0.00  0.00    -0.500 OA
BRANCH  17  20
ATOM     20  C   LIG    1       -3.286   0.409   9.436  0.00  0.00    +0.400 C 
BRANCH  20  21
ATOM     21  C   LIG    1       -3.280  -1.098   9.461  0.00  0.00    -0.030 A 
ATOM     22  C   LIG    1       -2.787  -1.866  10.450  0.00  0.00    -0.050 A 
ATOM     23  C   LIG    1       -2.987  -3.211  10.062  0.00  0.00    -0.070 A 
ATOM     24  C   LIG    1       -3.591  -3.184   8.860  0.00  0.00    +0.170 A 
ATOM     25  O   LIG    1       -3.770  -1.901   8.504  0.00  0.00    -0.160 OA
ENDBRANCH  20  21
ENDBRANCH  17  20
ENDBRANCH  15  16
ENDBRANCH   4  15
TORSDOF 6
