REMARK  Name = ZINCvU0000000Fkk.0
REMARK                            x       y       z     vdW  Elec       q    Type
REMARK                         _______ _______ _______ _____ _____    ______ ____
ROOT
ATOM      1  C   LIG    1        1.035  11.440  -0.646  0.00  0.00    +0.520 C 
ATOM      2  N   LIG    1        2.111  12.251  -0.611  0.00  0.00    -0.670 N 
ATOM      3  H   LIG    1        2.962  11.914  -0.288  0.00  0.00    +0.410 HD
ATOM      4  O   LIG    1       -0.003  11.831  -1.137  0.00  0.00    -0.490 OA
ENDROOT
BRANCH   2   5
ATOM      5  C   LIG    1        2.002  13.578  -1.041  0.00  0.00    +0.170 A 
ATOM      6  C   LIG    1        0.810  14.270  -0.865  0.00  0.00    +0.000 A 
ATOM      7  C   LIG    1        0.701  15.580  -1.289  0.00  0.00    +0.050 A 
ATOM      8  C   LIG    1        1.776  16.206  -1.890  0.00  0.00    -0.030 A 
ATOM      9  C   LIG    1        2.971  15.520  -2.068  0.00  0.00    +0.180 A 
ATOM     10  C   LIG    1        3.086  14.206  -1.638  0.00  0.00    -0.010 A 
BRANCH   9  11
ATOM     11  N   LIG    1        4.060  16.155  -2.676  0.00  0.00    -0.680 N 
ATOM     12  H   LIG    1        4.199  17.107  -2.548  0.00  0.00    +0.410 HD
ATOM     13  C   LIG    1        4.914  15.445  -3.440  0.00  0.00    +0.710 C 
ATOM     14  N   LIG    1        6.020  16.033  -3.939  0.00  0.00    -0.710 N 
ATOM     15  H   LIG    1        6.200  16.967  -3.748  0.00  0.00    +0.400 HD
ATOM     16  O   LIG    1        4.687  14.275  -3.678  0.00  0.00    -0.570 OA
BRANCH  14  17
ATOM     17  C   LIG    1        6.948  15.261  -4.768  0.00  0.00    +0.240 C 
ATOM     18  C   LIG    1        8.445  15.432  -4.499  0.00  0.00    +0.010 C 
ATOM     19  C   LIG    1        7.820  16.035  -5.760  0.00  0.00    +0.020 C 
ENDBRANCH  14  17
ENDBRANCH   9  11
ENDBRANCH   2   5
BRANCH   1  21
ATOM     20  C   LIG    1        1.353  10.130   1.435  0.00  0.00    +0.060 C 
ATOM     21  C   LIG    1        1.121  10.048  -0.075  0.00  0.00    +0.170 C 
BRANCH  21  22
ATOM     22  O   LIG    1       -0.099   9.351  -0.333  0.00  0.00    -0.280 OA
BRANCH  22  23
ATOM     23  C   LIG    1       -0.049   7.994  -0.318  0.00  0.00    +0.130 A 
ATOM     24  C   LIG    1        1.164   7.347  -0.120  0.00  0.00    -0.080 A 
ATOM     25  C   LIG    1        1.218   5.969  -0.105  0.00  0.00    +0.060 A 
ATOM     26  C   LIG    1        0.053   5.226  -0.288  0.00  0.00    -0.080 A 
ATOM     27  C   LIG    1       -1.162   5.877  -0.491  0.00  0.00    +0.060 A 
ATOM     28  C   LIG    1       -1.211   7.255  -0.500  0.00  0.00    +0.000 A 
BRANCH  26  29
ATOM     29  C   LIG    1        0.108   3.743  -0.272  0.00  0.00    -0.040 A 
ATOM     30  C   LIG    1       -1.056   2.998  -0.455  0.00  0.00    +0.010 A 
ATOM     31  C   LIG    1       -0.999   1.619  -0.439  0.00  0.00    +0.000 A 
ATOM     32  C   LIG    1        0.210   0.977  -0.242  0.00  0.00    +0.000 A 
ATOM     33  C   LIG    1        1.367   1.711  -0.055  0.00  0.00    +0.000 A 
ATOM     34  C   LIG    1        1.323   3.090  -0.074  0.00  0.00    +0.000 A 
ENDBRANCH  26  29
ENDBRANCH  22  23
ENDBRANCH  21  22
ENDBRANCH   1  21
TORSDOF 7
