REMARK  Name = ZINCnE000001MdOP.0
REMARK                            x       y       z     vdW  Elec       q    Type
REMARK                         _______ _______ _______ _____ _____    ______ ____
ROOT
ATOM      1  C   LIG    1       -1.187   2.136   0.019  0.00  0.00    +0.510 C 
ATOM      2  N   LIG    1       -0.018   1.465   0.010  0.00  0.00    -0.610 N 
ATOM      3  C   LIG    1        0.002  -0.004   0.002  0.00  0.00    +0.260 C 
ATOM      4  C   LIG    1        0.880  -0.492   1.159  0.00  0.00    +0.010 C 
ATOM      5  C   LIG    1        2.263   0.156   1.052  0.00  0.00    +0.010 C 
ATOM      6  C   LIG    1        2.125   1.677   1.158  0.00  0.00    -0.030 C 
ATOM      7  C   LIG    1        1.261   2.189   0.002  0.00  0.00    +0.280 C 
ATOM      8  O   LIG    1       -1.190   3.349   0.026  0.00  0.00    -0.540 OA
ENDROOT
BRANCH   1   9
ATOM      9  C   LIG    1       -2.490   1.379   0.021  0.00  0.00    +0.060 C 
BRANCH   9  11
ATOM     10  C   LIG    1       -3.643   3.158   1.344  0.00  0.00    +0.030 C 
ATOM     11  C   LIG    1       -3.655   2.370   0.032  0.00  0.00    +0.050 C 
BRANCH  11  12
ATOM     12  C   LIG    1       -4.956   1.618  -0.089  0.00  0.00    -0.040 A 
ATOM     13  C   LIG    1       -5.302   0.678   0.863  0.00  0.00    +0.000 A 
ATOM     14  C   LIG    1       -6.497  -0.009   0.755  0.00  0.00    +0.040 A 
ATOM     15  C   LIG    1       -7.341   0.235  -0.311  0.00  0.00    -0.030 A 
ATOM     16  C   LIG    1       -6.993   1.173  -1.268  0.00  0.00    +0.100 A 
ATOM     17  F   LIG    1       -7.819   1.414  -2.310  0.00  0.00    -0.140 F 
ATOM     18  C   LIG    1       -5.799   1.865  -1.156  0.00  0.00    -0.010 A 
ENDBRANCH  11  12
ENDBRANCH   9  11
ENDBRANCH   1   9
BRANCH   6  19
ATOM     19  C   LIG    1        3.510   2.322   1.085  0.00  0.00    +0.030 C 
BRANCH  19  20
ATOM     20  C   LIG    1        4.332   1.904   2.306  0.00  0.00    -0.070 C 
BRANCH  20  21
ATOM     21  C   LIG    1        5.697   2.539   2.234  0.00  0.00    +0.490 C 
ATOM     22  O   LIG    1        6.513   2.333   3.116  0.00  0.00    -0.710 OA
ATOM     23  O   LIG    1        5.986   3.259   1.293  0.00  0.00    -0.700 OA
ENDBRANCH  20  21
ENDBRANCH  19  20
ENDBRANCH   6  19
TORSDOF 6
