REMARK  Name = ZINCrD00000F5LkS.0
REMARK                            x       y       z     vdW  Elec       q    Type
REMARK                         _______ _______ _______ _____ _____    ______ ____
ROOT
ATOM      1  C   LIG    1        9.275   0.837   0.734  0.00  0.00    +0.340 C 
ATOM      2  N   LIG    1        8.495  -0.170   0.451  0.00  0.00    -0.470 NA
ATOM      3  C   LIG    1        7.198   0.238   0.517  0.00  0.00    -0.100 C 
ATOM      4  C   LIG    1        7.250   1.658   0.894  0.00  0.00    +0.470 C 
ATOM      5  O   LIG    1        6.310   2.411   1.068  0.00  0.00    -0.410 OA
ATOM      6  C   LIG    1        6.062  -0.528   0.283  0.00  0.00    +0.250 C 
ATOM      7  O   LIG    1        8.564   1.948   1.008  0.00  0.00    -0.290 OA
ENDROOT
BRANCH   6   8
ATOM      8  C   LIG    1        4.799   0.076   0.281  0.00  0.00    -0.220 C 
ATOM      9  C   LIG    1        4.538   1.122  -0.559  0.00  0.00    +0.140 C 
ATOM     10  C   LIG    1        3.204   1.728  -0.504  0.00  0.00    -0.190 A 
ATOM     11  C   LIG    1        2.738   2.558  -1.526  0.00  0.00    +0.110 A 
ATOM     12  C   LIG    1        1.487   3.103  -1.438  0.00  0.00    -0.100 A 
ATOM     13  C   LIG    1        0.677   2.835  -0.339  0.00  0.00    +0.180 A 
ATOM     14  C   LIG    1        1.127   2.011   0.686  0.00  0.00    -0.030 A 
ATOM     15  C   LIG    1        2.388   1.455   0.612  0.00  0.00    +0.190 A 
ATOM     16  O   LIG    1        2.860   0.648   1.594  0.00  0.00    -0.300 OA
ATOM     17  C   LIG    1        3.719  -0.424   1.205  0.00  0.00    +0.320 C 
BRANCH  13  18
ATOM     18  O   LIG    1       -0.561   3.387  -0.265  0.00  0.00    -0.310 OA
ATOM     19  C   LIG    1       -0.962   4.229  -1.347  0.00  0.00    +0.240 C 
ENDBRANCH  13  18
ENDBRANCH   6   8
BRANCH   1  24
ATOM     20  C   LIG    1       12.883   1.825   1.096  0.00  0.00    +0.120 A 
ATOM     21  C   LIG    1       13.519   0.627   0.798  0.00  0.00    -0.040 A 
ATOM     22  C   LIG    1       12.777  -0.496   0.480  0.00  0.00    +0.060 A 
ATOM     23  C   LIG    1       11.399  -0.436   0.464  0.00  0.00    +0.040 A 
ATOM     24  C   LIG    1       10.750   0.766   0.757  0.00  0.00    -0.010 A 
ATOM     25  C   LIG    1       11.501   1.899   1.077  0.00  0.00    +0.030 A 
BRANCH  20  27
ATOM     26  C   LIG    1       15.039   2.777   1.408  0.00  0.00    +0.250 C 
ATOM     27  O   LIG    1       13.618   2.925   1.407  0.00  0.00    -0.310 OA
ENDBRANCH  20  27
ENDBRANCH   1  24
TORSDOF 4
