REMARK  Name = ZINCrg00001JduZu.0
REMARK                            x       y       z     vdW  Elec       q    Type
REMARK                         _______ _______ _______ _____ _____    ______ ____
ROOT
ATOM      1  C   LIG    1       -3.126   3.043   4.882  0.00  0.00    +0.110 C 
ATOM      2  C   LIG    1       -2.933   4.260   5.430  0.00  0.00    -0.050 C 
ENDROOT
BRANCH   1   6
ATOM      3  C   LIG    1       -0.930   1.894   1.440  0.00  0.00    -0.670 A 
ATOM      4  C   LIG    1       -0.725   3.142   2.002  0.00  0.00    +0.130 A 
ATOM      5  C   LIG    1       -1.439   3.525   3.118  0.00  0.00    +0.020 A 
ATOM      6  C   LIG    1       -2.364   2.644   3.688  0.00  0.00    -0.020 A 
ATOM      7  C   LIG    1       -2.561   1.383   3.117  0.00  0.00    +0.020 A 
ATOM      8  C   LIG    1       -1.843   1.017   1.998  0.00  0.00    +0.130 A 
BRANCH   3   9
ATOM      9  S   LIG    1       -0.017   1.417   0.010  0.00  0.00    +2.700 S 
ATOM     10  O   LIG    1        1.162   2.210   0.003  0.00  0.00    -0.950 OA
ATOM     11  O   LIG    1        0.002  -0.004   0.002  0.00  0.00    -0.960 OA
BRANCH   9  12
ATOM     12  N   LIG    1       -0.900   1.880  -1.312  0.00  0.00    -1.120 NA
ATOM     13  H   LIG    1       -1.261   1.209  -1.914  0.00  0.00    +0.420 HD
BRANCH  12  15
ATOM     14  C   LIG    1       -1.634   3.480  -3.010  0.00  0.00    +0.040 C 
ATOM     15  C   LIG    1       -1.137   3.302  -1.574  0.00  0.00    +0.260 C 
ENDBRANCH  12  15
ENDBRANCH   9  12
ENDBRANCH   3   9
ENDBRANCH   1   6
BRANCH   2  16
ATOM     16  C   LIG    1       -3.691   4.656   6.618  0.00  0.00    +0.550 C 
ATOM     17  N   LIG    1       -3.498   5.873   7.165  0.00  0.00    -0.590 N 
ATOM     18  C   LIG    1       -2.530   6.798   6.572  0.00  0.00    +0.310 C 
ATOM     19  O   LIG    1       -4.495   3.888   7.111  0.00  0.00    -0.540 OA
BRANCH  17  20
ATOM     20  C   LIG    1       -4.257   6.270   8.354  0.00  0.00    +0.310 C 
BRANCH  20  21
ATOM     21  C   LIG    1       -3.303   6.571   9.481  0.00  0.00    +0.460 C 
ATOM     22  O   LIG    1       -2.112   6.465   9.309  0.00  0.00    -0.490 OA
BRANCH  21  23
ATOM     23  O   LIG    1       -3.777   6.957  10.677  0.00  0.00    -0.360 OA
ATOM     24  C   LIG    1       -2.800   7.231  11.716  0.00  0.00    +0.260 C 
ENDBRANCH  21  23
ENDBRANCH  20  21
BRANCH  20  25
ATOM     25  C   LIG    1       -5.084   7.518   8.038  0.00  0.00    +0.210 C 
BRANCH  25  26
ATOM     26  O   LIG    1       -4.208   8.613   7.766  0.00  0.00    -0.390 OA
BRANCH  26  27
ATOM     27  C   LIG    1       -4.883   9.834   7.457  0.00  0.00    +0.160 C 
ATOM     28  C   LIG    1       -3.852  10.932   7.185  0.00  0.00    +0.040 C 
ENDBRANCH  26  27
ENDBRANCH  25  26
ENDBRANCH  20  25
ENDBRANCH  17  20
ENDBRANCH   2  16
TORSDOF 11
