REMARK  Name = ZINCrH000004rMnr.0
REMARK                            x       y       z     vdW  Elec       q    Type
REMARK                         _______ _______ _______ _____ _____    ______ ____
ROOT
ATOM      1  C   LIG    1        0.524   4.101  -1.035  0.00  0.00    +0.160 C 
ATOM      2  C   LIG    1        1.323   3.513   0.132  0.00  0.00    +0.060 C 
ATOM      3  C   LIG    1        1.434   1.997  -0.044  0.00  0.00    +0.190 C 
ATOM      4  N   LIG    1        0.089   1.409  -0.086  0.00  0.00    -0.530 NA
ATOM      5  C   LIG    1       -0.681   1.923  -1.226  0.00  0.00    +0.180 C 
ATOM      6  C   LIG    1       -0.854   3.436  -1.085  0.00  0.00    +0.020 C 
ENDROOT
BRANCH   1   7
ATOM      7  O   LIG    1        0.369   5.509  -0.846  0.00  0.00    -0.320 OA
BRANCH   7  15
ATOM      8  C   LIG    1        2.878   6.232  -1.924  0.00  0.00    +0.100 C 
ATOM      9  C   LIG    1        1.574   6.672  -2.537  0.00  0.00    -0.100 A 
ATOM     10  C   LIG    1        1.573   7.455  -3.675  0.00  0.00    +0.010 A 
ATOM     11  C   LIG    1        0.376   7.864  -4.234  0.00  0.00    +0.010 A 
ATOM     12  C   LIG    1       -0.823   7.484  -3.659  0.00  0.00    +0.010 A 
ATOM     13  C   LIG    1       -0.828   6.696  -2.525  0.00  0.00    -0.090 A 
ATOM     14  C   LIG    1       -2.135   6.283  -1.900  0.00  0.00    +0.090 C 
ATOM     15  C   LIG    1        0.372   6.285  -1.962  0.00  0.00    +0.090 A 
ENDBRANCH   7  15
ENDBRANCH   1   7
BRANCH   4  16
ATOM     16  C   LIG    1        0.157  -0.059  -0.115  0.00  0.00    +0.270 C 
BRANCH  16  17
ATOM     17  C   LIG    1       -1.222  -0.630   0.090  0.00  0.00    +0.220 A 
ATOM     18  C   LIG    1       -1.838  -1.345  -0.915  0.00  0.00    -0.150 A 
ATOM     19  C   LIG    1       -3.116  -1.864  -0.700  0.00  0.00    +0.530 A 
ATOM     20  N   LIG    1       -3.739  -1.657   0.497  0.00  0.00    -0.470 N 
ATOM     21  C   LIG    1       -4.987  -2.096   0.866  0.00  0.00    +0.080 A 
ATOM     22  C   LIG    1       -5.438  -1.802   2.073  0.00  0.00    -0.010 A 
ATOM     23  S   LIG    1       -4.148  -0.864   2.845  0.00  0.00    +0.180 S 
ATOM     24  C   LIG    1       -5.829  -2.900  -0.090  0.00  0.00    +0.170 C 
ATOM     25  C   LIG    1       -3.069  -0.941   1.441  0.00  0.00    +0.320 A 
ATOM     26  O   LIG    1       -3.675  -2.500  -1.580  0.00  0.00    -0.520 OA
ATOM     27  N   LIG    1       -1.858  -0.455   1.242  0.00  0.00    -0.480 NA
ENDBRANCH  16  17
ENDBRANCH   4  16
TORSDOF 4
