REMARK  Name = ZINCrD000000CEZl.0
REMARK                            x       y       z     vdW  Elec       q    Type
REMARK                         _______ _______ _______ _____ _____    ______ ____
ROOT
ATOM      1  O   LIG    1       -5.761   2.990   0.935  0.00  0.00    -0.530 OA
ATOM      2  C   LIG    1       -4.792   3.071   1.666  0.00  0.00    +0.560 C 
ATOM      3  N   LIG    1       -3.731   2.265   1.469  0.00  0.00    -0.610 N 
ATOM      4  C   LIG    1       -3.755   1.224   0.431  0.00  0.00    +0.300 C 
ATOM      5  C   LIG    1       -3.340  -0.108   1.065  0.00  0.00    +0.220 C 
ATOM      6  N   LIG    1       -2.049   0.060   1.746  0.00  0.00    -0.470 N 
ATOM      7  C   LIG    1       -2.149   1.024   2.850  0.00  0.00    +0.200 C 
ATOM      8  C   LIG    1       -2.516   2.402   2.288  0.00  0.00    +0.300 C 
ENDROOT
BRANCH   6   9
ATOM      9  C   LIG    1       -1.561  -1.158   2.194  0.00  0.00    +0.390 A 
ATOM     10  N   LIG    1       -2.245  -2.278   1.986  0.00  0.00    -0.530 NA
ATOM     11  C   LIG    1       -1.790  -3.446   2.402  0.00  0.00    +0.520 A 
ATOM     12  N   LIG    1       -0.644  -3.563   3.039  0.00  0.00    -0.500 NA
ATOM     13  C   LIG    1        0.104  -2.491   3.289  0.00  0.00    +0.160 A 
ATOM     14  C   LIG    1        1.397  -2.259   3.954  0.00  0.00    -0.130 A 
ATOM     15  C   LIG    1        2.329  -3.085   4.577  0.00  0.00    +0.100 A 
ATOM     16  C   LIG    1        3.473  -2.539   5.117  0.00  0.00    +0.000 A 
ATOM     17  C   LIG    1        3.698  -1.173   5.040  0.00  0.00    +0.080 A 
ATOM     18  C   LIG    1        2.784  -0.345   4.425  0.00  0.00    +0.020 A 
ATOM     19  C   LIG    1        1.623  -0.876   3.874  0.00  0.00    +0.100 A 
ATOM     20  O   LIG    1        0.580  -0.310   3.228  0.00  0.00    -0.180 OA
ATOM     21  C   LIG    1       -0.336  -1.232   2.867  0.00  0.00    -0.040 A 
ENDBRANCH   6   9
BRANCH   2  22
ATOM     22  C   LIG    1       -4.779   4.055   2.769  0.00  0.00    -0.130 A 
ATOM     23  C   LIG    1       -3.684   4.903   2.940  0.00  0.00    +0.040 A 
ATOM     24  C   LIG    1       -3.680   5.822   3.969  0.00  0.00    +0.010 A 
ATOM     25  C   LIG    1       -4.755   5.897   4.837  0.00  0.00    +0.030 A 
ATOM     26  C   LIG    1       -5.841   5.055   4.678  0.00  0.00    +0.010 A 
ATOM     27  C   LIG    1       -5.860   4.135   3.649  0.00  0.00    +0.060 A 
ENDBRANCH   2  22
TORSDOF 2
