REMARK  Name = ZINCpk00000e9hlt.0
REMARK                            x       y       z     vdW  Elec       q    Type
REMARK                         _______ _______ _______ _____ _____    ______ ____
ROOT
ATOM      1  N   LIG    1        0.775  -2.746  -0.150  0.00  0.00    -0.460 N 
ENDROOT
BRANCH   1   2
ATOM      2  C   LIG    1        1.760  -1.788  -0.310  0.00  0.00    +0.410 A 
ATOM      3  C   LIG    1        1.492  -0.424  -0.025  0.00  0.00    -0.160 A 
ATOM      4  C   LIG    1        2.533   0.490  -0.209  0.00  0.00    +0.090 A 
ATOM      5  S   LIG    1        1.977   2.106   0.202  0.00  0.00    +0.170 S 
ATOM      6  C   LIG    1        0.373   1.524   0.609  0.00  0.00    -0.180 A 
ATOM      7  C   LIG    1       -0.755   2.404   1.081  0.00  0.00    +0.150 C 
ATOM      8  N   LIG    1        3.720   0.048  -0.640  0.00  0.00    -0.500 NA
ATOM      9  C   LIG    1        3.918  -1.226  -0.891  0.00  0.00    +0.530 A 
ATOM     10  C   LIG    1        0.279   0.219   0.444  0.00  0.00    -0.060 A 
ATOM     11  C   LIG    1       -0.990  -0.545   0.721  0.00  0.00    +0.130 C 
ATOM     12  N   LIG    1        2.968  -2.129  -0.733  0.00  0.00    -0.560 NA
ENDBRANCH   1   2
BRANCH   1  14
ATOM     13  C   LIG    1        0.666  -3.031  -2.579  0.00  0.00    +0.000 C 
ATOM     14  C   LIG    1       -0.135  -2.764  -1.303  0.00  0.00    +0.250 C 
ENDBRANCH   1  14
BRANCH   1  15
ATOM     15  C   LIG    1        1.363  -4.072   0.078  0.00  0.00    +0.240 C 
BRANCH  15  16
ATOM     16  C   LIG    1        0.312  -4.999   0.635  0.00  0.00    +0.520 C 
ATOM     17  N   LIG    1        0.642  -6.256   0.991  0.00  0.00    -0.720 N 
ATOM     18  H   LIG    1        1.556  -6.565   0.889  0.00  0.00    +0.410 HD
ATOM     19  O   LIG    1       -0.830  -4.612   0.763  0.00  0.00    -0.510 OA
BRANCH  17  20
ATOM     20  C   LIG    1       -0.379  -7.156   1.532  0.00  0.00    +0.270 C 
ATOM     21  C   LIG    1        0.289  -8.225   2.416  0.00  0.00    +0.080 C 
ATOM     22  C   LIG    1       -0.780  -9.317   2.676  0.00  0.00    -0.310 C 
ATOM     23  S   LIG    1       -1.562  -9.509   1.029  0.00  0.00    +2.400 S 
ATOM     24  O   LIG    1       -2.973  -9.587   1.184  0.00  0.00    -0.930 OA
ATOM     25  O   LIG    1       -0.873 -10.511   0.294  0.00  0.00    -0.930 OA
ATOM     26  C   LIG    1       -1.112  -7.863   0.375  0.00  0.00    -0.330 C 
ENDBRANCH  17  20
ENDBRANCH  15  16
ENDBRANCH   1  15
TORSDOF 5
