REMARK  Name = ZINCqH0000000sNn.0
REMARK                            x       y       z     vdW  Elec       q    Type
REMARK                         _______ _______ _______ _____ _____    ______ ____
ROOT
ATOM      1  C   LIG    1        1.413  -2.674  -1.456  0.00  0.00    +0.520 C 
ATOM      2  N   LIG    1        1.459  -3.997  -1.712  0.00  0.00    -0.720 N 
ATOM      3  H   LIG    1        1.365  -4.635  -0.988  0.00  0.00    +0.400 HD
ATOM      4  O   LIG    1        1.531  -1.877  -2.361  0.00  0.00    -0.520 OA
ENDROOT
BRANCH   2   5
ATOM      5  C   LIG    1        1.652  -4.470  -3.085  0.00  0.00    +0.290 C 
ATOM      6  C   LIG    1        3.125  -4.502  -3.398  0.00  0.00    -0.070 A 
ATOM      7  C   LIG    1        3.753  -3.296  -3.679  0.00  0.00    +0.030 A 
ATOM      8  C   LIG    1        5.101  -3.256  -3.969  0.00  0.00    +0.030 A 
ATOM      9  C   LIG    1        5.836  -4.426  -3.978  0.00  0.00    -0.020 A 
ATOM     10  C   LIG    1        5.214  -5.628  -3.701  0.00  0.00    +0.090 A 
ATOM     11  F   LIG    1        5.933  -6.773  -3.710  0.00  0.00    -0.140 F 
ATOM     12  C   LIG    1        3.855  -5.670  -3.411  0.00  0.00    -0.100 A 
ATOM     13  C   LIG    1        3.239  -7.014  -3.124  0.00  0.00    +0.080 C 
ATOM     14  C   LIG    1        1.894  -6.849  -2.419  0.00  0.00    +0.040 C 
ATOM     15  C   LIG    1        1.042  -5.863  -3.228  0.00  0.00    -0.010 C 
ATOM     16  C   LIG    1       -0.390  -5.857  -2.689  0.00  0.00    +0.030 C 
ENDBRANCH   2   5
BRANCH   1  17
ATOM     17  C   LIG    1        1.215  -2.187  -0.043  0.00  0.00    +0.100 C 
BRANCH  17  21
ATOM     18  C   LIG    1        1.175   2.086  -0.003  0.00  0.00    +0.140 A 
ATOM     19  C   LIG    1       -0.009   1.381  -0.174  0.00  0.00    +0.010 A 
ATOM     20  C   LIG    1        0.007  -0.000  -0.186  0.00  0.00    +0.040 A 
ATOM     21  C   LIG    1        1.201  -0.680  -0.029  0.00  0.00    -0.080 A 
ATOM     22  C   LIG    1        2.381   0.019   0.141  0.00  0.00    +0.040 A 
ATOM     23  C   LIG    1        2.372   1.400   0.155  0.00  0.00    -0.010 A 
BRANCH  18  26
ATOM     24  C   LIG    1        0.033   5.647   0.422  0.00  0.00    +0.110 C 
ATOM     25  C   LIG    1        0.101   4.145   0.516  0.00  0.00    +0.510 C 
ATOM     26  N   LIG    1        1.162   3.485   0.009  0.00  0.00    -0.680 N 
ATOM     27  H   LIG    1        1.916   3.981  -0.347  0.00  0.00    +0.410 HD
ATOM     28  O   LIG    1       -0.799   3.529   1.047  0.00  0.00    -0.530 OA
ENDBRANCH  18  26
ENDBRANCH  17  21
ENDBRANCH   1  17
TORSDOF 4
