REMARK  Name = ZINCkj00000xZb0R.1
REMARK                            x       y       z     vdW  Elec       q    Type
REMARK                         _______ _______ _______ _____ _____    ______ ____
ROOT
ATOM      1  C   LIG    1       -0.566  -0.404   0.637  0.00  0.00    +0.170 C 
ATOM      2  C   LIG    1       -0.513  -1.918   0.338  0.00  0.00    +0.070 C 
ATOM      3  C   LIG    1       -1.852  -2.477   0.862  0.00  0.00    +0.070 C 
ATOM      4  C   LIG    1       -2.601  -1.254   1.434  0.00  0.00    +0.250 C 
ATOM      5  N   LIG    1       -2.015  -0.090   0.721  0.00  0.00    -0.390 N 
ATOM      6  H   LIG    1       -2.412  -0.005  -0.203  0.00  0.00    +0.430 HD
ENDROOT
BRANCH   1  13
ATOM      7  C   LIG    1        3.781  -0.723  -0.170  0.00  0.00    +0.120 C 
ATOM      8  C   LIG    1        2.460  -0.080   0.164  0.00  0.00    +0.530 C 
ATOM      9  N   LIG    1        1.452  -0.106  -0.731  0.00  0.00    -0.610 N 
ATOM     10  C   LIG    1        1.539  -0.628  -2.107  0.00  0.00    +0.260 C 
ATOM     11  C   LIG    1        0.415   0.105  -2.881  0.00  0.00    +0.060 C 
ATOM     12  C   LIG    1       -0.703   0.181  -1.808  0.00  0.00    +0.020 C 
ATOM     13  C   LIG    1        0.087   0.387  -0.498  0.00  0.00    +0.230 C 
ATOM     14  O   LIG    1        2.303   0.462   1.238  0.00  0.00    -0.540 OA
ENDBRANCH   1  13
BRANCH   5  15
ATOM     15  C   LIG    1       -2.230   1.144   1.489  0.00  0.00    +0.400 C 
BRANCH  15  16
ATOM     16  C   LIG    1       -3.689   1.516   1.444  0.00  0.00    +0.120 A 
ATOM     17  N   LIG    1       -4.275   2.183   0.487  0.00  0.00    -0.450 NA
ATOM     18  C   LIG    1       -5.576   2.328   0.782  0.00  0.00    +0.180 A 
ATOM     19  C   LIG    1       -5.803   1.736   1.970  0.00  0.00    +0.180 A 
ATOM     20  N   LIG    1       -4.606   1.221   2.391  0.00  0.00    -0.440 N 
ATOM     21  C   LIG    1       -4.365   0.487   3.635  0.00  0.00    +0.320 C 
ENDBRANCH  15  16
ENDBRANCH   5  15
TORSDOF 3
