REMARK  Name = ZINCkj00000xZb0R.2
REMARK                            x       y       z     vdW  Elec       q    Type
REMARK                         _______ _______ _______ _____ _____    ______ ____
ROOT
ATOM      1  C   LIG    1       -0.045  -0.129   0.017  0.00  0.00    +0.170 C 
ATOM      2  C   LIG    1       -0.093   1.412  -0.047  0.00  0.00    +0.080 C 
ATOM      3  C   LIG    1        1.405   1.811  -0.004  0.00  0.00    +0.080 C 
ATOM      4  C   LIG    1        2.057   0.666  -0.819  0.00  0.00    +0.240 C 
ATOM      5  N   LIG    1        1.291  -0.543  -0.449  0.00  0.00    -0.380 N 
ATOM      6  H   LIG    1        1.770  -1.036   0.290  0.00  0.00    +0.430 HD
ENDROOT
BRANCH   1  13
ATOM      7  C   LIG    1       -4.394  -0.344   1.139  0.00  0.00    +0.120 C 
ATOM      8  C   LIG    1       -2.968  -0.696   0.802  0.00  0.00    +0.530 C 
ATOM      9  N   LIG    1       -2.455  -0.355  -0.397  0.00  0.00    -0.610 N 
ATOM     10  C   LIG    1       -3.140   0.447  -1.427  0.00  0.00    +0.260 C 
ATOM     11  C   LIG    1       -2.461   0.043  -2.760  0.00  0.00    +0.060 C 
ATOM     12  C   LIG    1       -0.985  -0.137  -2.316  0.00  0.00    +0.020 C 
ATOM     13  C   LIG    1       -1.121  -0.722  -0.894  0.00  0.00    +0.220 C 
ATOM     14  O   LIG    1       -2.281  -1.286   1.609  0.00  0.00    -0.530 OA
ENDBRANCH   1  13
BRANCH   5  15
ATOM     15  C   LIG    1        1.156  -1.417  -1.622  0.00  0.00    +0.380 C 
BRANCH  15  16
ATOM     16  C   LIG    1        2.463  -2.124  -1.874  0.00  0.00    +0.120 A 
ATOM     17  N   LIG    1        2.813  -3.277  -1.373  0.00  0.00    -0.450 NA
ATOM     18  C   LIG    1        4.039  -3.597  -1.813  0.00  0.00    +0.180 A 
ATOM     19  C   LIG    1        4.465  -2.604  -2.617  0.00  0.00    +0.180 A 
ATOM     20  N   LIG    1        3.463  -1.673  -2.661  0.00  0.00    -0.450 N 
ATOM     21  C   LIG    1        3.476  -0.418  -3.417  0.00  0.00    +0.340 C 
ENDBRANCH  15  16
ENDBRANCH   5  15
TORSDOF 3
