REMARK  Name = ZINCqH0000036M4g.0
REMARK                            x       y       z     vdW  Elec       q    Type
REMARK                         _______ _______ _______ _____ _____    ______ ____
ROOT
ATOM      1  C   LIG    1       -1.394   6.502   0.103  0.00  0.00    +0.520 C 
ATOM      2  N   LIG    1       -0.293   5.771   0.365  0.00  0.00    -0.670 N 
ATOM      3  H   LIG    1        0.539   6.213   0.598  0.00  0.00    +0.420 HD
ATOM      4  O   LIG    1       -2.456   5.949  -0.095  0.00  0.00    -0.480 OA
ENDROOT
BRANCH   2   5
ATOM      5  C   LIG    1       -0.348   4.374   0.302  0.00  0.00    +0.200 A 
ATOM      6  C   LIG    1       -1.183   3.752  -0.616  0.00  0.00    +0.000 A 
ATOM      7  C   LIG    1       -1.236   2.373  -0.676  0.00  0.00    +0.150 A 
ATOM      8  C   LIG    1       -0.458   1.612   0.177  0.00  0.00    -0.680 A 
ATOM      9  C   LIG    1        0.371   2.229   1.097  0.00  0.00    +0.150 A 
ATOM     10  C   LIG    1        0.432   3.607   1.158  0.00  0.00    -0.030 A 
BRANCH   8  11
ATOM     11  S   LIG    1       -0.528  -0.147   0.098  0.00  0.00    +2.500 S 
ATOM     12  O   LIG    1       -1.821  -0.423  -0.423  0.00  0.00    -0.940 OA
ATOM     13  O   LIG    1       -0.159  -0.571   1.403  0.00  0.00    -0.940 OA
ATOM     14  C   LIG    1        0.752  -0.598  -1.105  0.00  0.00    -0.260 C 
ENDBRANCH   8  11
ENDBRANCH   2   5
BRANCH   1  16
ATOM     15  C   LIG    1       -0.414   8.427  -1.114  0.00  0.00    +0.060 C 
ATOM     16  C   LIG    1       -1.307   8.005   0.054  0.00  0.00    +0.170 C 
BRANCH  16  17
ATOM     17  O   LIG    1       -2.615   8.553  -0.123  0.00  0.00    -0.290 OA
BRANCH  17  18
ATOM     18  C   LIG    1       -2.815   9.825   0.311  0.00  0.00    +0.120 A 
ATOM     19  C   LIG    1       -1.750  10.570   0.796  0.00  0.00    -0.080 A 
ATOM     20  C   LIG    1       -1.955  11.864   1.232  0.00  0.00    +0.050 A 
ATOM     21  C   LIG    1       -3.223  12.415   1.194  0.00  0.00    -0.100 A 
ATOM     22  C   LIG    1       -4.288  11.672   0.717  0.00  0.00    +0.060 A 
ATOM     23  C   LIG    1       -4.087  10.379   0.275  0.00  0.00    -0.010 A 
BRANCH  21  24
ATOM     24  C   LIG    1       -3.446  13.825   1.676  0.00  0.00    -0.030 C 
ATOM     25  C   LIG    1       -4.004  14.673   0.531  0.00  0.00    +0.040 C 
ATOM     26  C   LIG    1       -2.117  14.418   2.148  0.00  0.00    +0.030 C 
ATOM     27  C   LIG    1       -4.442  13.817   2.837  0.00  0.00    +0.040 C 
ENDBRANCH  21  24
ENDBRANCH  17  18
ENDBRANCH  16  17
ENDBRANCH   1  16
TORSDOF 6
