REMARK  Name = ZINCvU0000000Jt1.0
REMARK                            x       y       z     vdW  Elec       q    Type
REMARK                         _______ _______ _______ _____ _____    ______ ____
ROOT
ATOM      1  N   LIG    1        0.003  -0.003  -0.034  0.00  0.00    -0.510 N 
ATOM      2  C   LIG    1        1.176  -0.666  -0.059  0.00  0.00    +0.570 A 
ATOM      3  C   LIG    1        2.390   0.084  -0.072  0.00  0.00    -0.230 A 
ATOM      4  C   LIG    1        2.303   1.470  -0.059  0.00  0.00    +0.090 A 
ATOM      5  S   LIG    1        3.917   2.163  -0.080  0.00  0.00    +0.190 S 
ATOM      6  C   LIG    1        4.678   0.581  -0.104  0.00  0.00    -0.200 A 
ATOM      7  C   LIG    1        6.179   0.352  -0.128  0.00  0.00    +0.120 C 
ATOM      8  C   LIG    1        6.451  -1.092  -0.557  0.00  0.00    -0.010 C 
ATOM      9  C   LIG    1        7.931  -1.421  -0.347  0.00  0.00    +0.030 C 
ATOM     10  C   LIG    1        5.591  -2.034   0.291  0.00  0.00    +0.020 C 
ATOM     11  C   LIG    1        4.125  -1.875  -0.115  0.00  0.00    +0.110 C 
ATOM     12  N   LIG    1        1.092   2.064  -0.034  0.00  0.00    -0.510 NA
ATOM     13  C   LIG    1        3.768  -0.394  -0.097  0.00  0.00    -0.030 A 
ATOM     14  O   LIG    1        1.199  -1.885  -0.070  0.00  0.00    -0.510 OA
ATOM     15  C   LIG    1       -0.016   1.361  -0.021  0.00  0.00    +0.360 A 
ENDROOT
BRANCH   1  16
ATOM     16  C   LIG    1       -1.257  -0.750  -0.020  0.00  0.00    +0.340 C 
BRANCH  16  18
ATOM     17  C   LIG    1       -1.961  -2.214  -1.843  0.00  0.00    +0.070 C 
ATOM     18  C   LIG    1       -1.712  -0.994  -1.435  0.00  0.00    -0.070 C 
ENDBRANCH  16  18
ENDBRANCH   1  16
BRANCH  15  19
ATOM     19  S   LIG    1       -1.565   2.200   0.004  0.00  0.00    +0.100 S 
BRANCH  19  20
ATOM     20  C   LIG    1       -0.994   3.917   0.013  0.00  0.00    +0.120 C 
BRANCH  20  21
ATOM     21  C   LIG    1       -2.183   4.842   0.035  0.00  0.00    +0.530 C 
ATOM     22  N   LIG    1       -1.998   6.177   0.045  0.00  0.00    -0.660 N 
ATOM     23  H   LIG    1       -1.102   6.542   0.118  0.00  0.00    +0.420 HD
ATOM     24  O   LIG    1       -3.306   4.386   0.045  0.00  0.00    -0.500 OA
BRANCH  22  25
ATOM     25  C   LIG    1       -3.098   7.037  -0.051  0.00  0.00    +0.160 A 
ATOM     26  C   LIG    1       -4.270   6.601  -0.653  0.00  0.00    +0.040 A 
ATOM     27  C   LIG    1       -5.356   7.452  -0.746  0.00  0.00    -0.020 A 
ATOM     28  C   LIG    1       -5.273   8.737  -0.239  0.00  0.00    +0.020 A 
ATOM     29  C   LIG    1       -4.107   9.173   0.362  0.00  0.00    +0.050 A 
ATOM     30 CL   LIG    1       -6.822   6.910  -1.499  0.00  0.00    -0.060 Cl
ATOM     31  C   LIG    1       -3.021   8.325   0.462  0.00  0.00    -0.110 A 
ATOM     32  C   LIG    1       -1.752   8.799   1.123  0.00  0.00    +0.100 C 
ENDBRANCH  22  25
ENDBRANCH  20  21
ENDBRANCH  19  20
ENDBRANCH  15  19
TORSDOF 6
