REMARK  Name = ZINCAx0000000irI.0
REMARK                            x       y       z     vdW  Elec       q    Type
REMARK                         _______ _______ _______ _____ _____    ______ ____
ROOT
ATOM      1  C   LIG    1        2.378   1.328  -0.013  0.00  0.00    +0.080 A 
ATOM      2  C   LIG    1        1.193   2.059   0.002  0.00  0.00    +0.060 A 
ATOM      3  C   LIG    1       -0.017   1.382   0.010  0.00  0.00    -0.070 A 
ATOM      4  C   LIG    1        0.002  -0.004   0.002  0.00  0.00    +0.010 A 
ATOM      5  C   LIG    1        1.219  -0.667  -0.013  0.00  0.00    +0.270 A 
ATOM      6  N   LIG    1        2.352   0.001  -0.020  0.00  0.00    -0.450 NA
ENDROOT
BRANCH   1   9
ATOM      7  N   LIG    1        4.829   1.335  -0.035  0.00  0.00    -0.700 N 
ATOM      8  H   LIG    1        4.805   0.366  -0.040  0.00  0.00    +0.410 HD
ATOM      9  C   LIG    1        3.679   2.038  -0.021  0.00  0.00    +0.580 C 
ATOM     10  O   LIG    1        3.708   3.252  -0.014  0.00  0.00    -0.520 OA
BRANCH   7  11
ATOM     11  C   LIG    1        6.115   2.037  -0.042  0.00  0.00    +0.310 C 
BRANCH  11  12
ATOM     12  C   LIG    1        6.509   2.379   1.372  0.00  0.00    -0.100 A 
ATOM     13  C   LIG    1        6.283   1.472   2.390  0.00  0.00    +0.020 A 
ATOM     14  C   LIG    1        6.649   1.784   3.687  0.00  0.00    +0.000 A 
ATOM     15  C   LIG    1        7.232   3.006   3.966  0.00  0.00    +0.010 A 
ATOM     16  C   LIG    1        7.453   3.914   2.948  0.00  0.00    +0.000 A 
ATOM     17  C   LIG    1        7.092   3.601   1.651  0.00  0.00    +0.020 A 
ENDBRANCH  11  12
BRANCH  11  18
ATOM     18  C   LIG    1        7.183   1.137  -0.666  0.00  0.00    +0.130 C 
BRANCH  18  19
ATOM     19  C   LIG    1        6.852   0.895  -2.116  0.00  0.00    +0.460 C 
ATOM     20  O   LIG    1        5.864   1.392  -2.601  0.00  0.00    -0.490 OA
BRANCH  19  22
ATOM     21  C   LIG    1        7.276  -0.061  -4.258  0.00  0.00    +0.260 C 
ATOM     22  O   LIG    1        7.656   0.128  -2.869  0.00  0.00    -0.360 OA
ENDBRANCH  19  22
ENDBRANCH  18  19
ENDBRANCH  11  18
ENDBRANCH   7  11
ENDBRANCH   1   9
BRANCH   3  23
ATOM     23  C   LIG    1       -1.322   2.135   0.020  0.00  0.00    +0.330 C 
BRANCH  23  24
ATOM     24  N   LIG    1       -1.738   2.371   1.405  0.00  0.00    -0.730 N 
ATOM     25  H   LIG    1       -1.189   2.052   2.137  0.00  0.00    +0.400 HD
ATOM     26  C   LIG    1       -2.885   3.032   1.660  0.00  0.00    +0.610 C 
ATOM     27  O   LIG    1       -3.575   3.432   0.740  0.00  0.00    -0.550 OA
BRANCH  26  28
ATOM     28  C   LIG    1       -3.301   3.268   3.043  0.00  0.00    -0.340 A 
ATOM     29  C   LIG    1       -4.466   3.939   3.468  0.00  0.00    +0.200 A 
ATOM     30  C   LIG    1       -5.518   4.548   2.776  0.00  0.00    -0.060 A 
ATOM     31  C   LIG    1       -6.541   5.136   3.491  0.00  0.00    +0.180 A 
ATOM     32  C   LIG    1       -6.499   5.107   4.898  0.00  0.00    +0.000 A 
ATOM     33  C   LIG    1       -5.470   4.511   5.535  0.00  0.00    +0.330 A 
ATOM     34  N   LIG    1       -4.455   3.928   4.834  0.00  0.00    -0.280 N 
ATOM     35  N   LIG    1       -3.297   3.259   5.250  0.00  0.00    -0.320 NA
ATOM     36  C   LIG    1       -2.619   2.864   4.205  0.00  0.00    +0.330 A 
BRANCH  31  37
ATOM     37  O   LIG    1       -7.575   5.736   2.847  0.00  0.00    -0.300 OA
ATOM     38  C   LIG    1       -7.543   5.723   1.419  0.00  0.00    +0.270 C 
ENDBRANCH  31  37
ENDBRANCH  26  28
ENDBRANCH  23  24
ENDBRANCH   3  23
TORSDOF 10
