REMARK  Name = ZINCpk00000KfLMl.0
REMARK                            x       y       z     vdW  Elec       q    Type
REMARK                         _______ _______ _______ _____ _____    ______ ____
ROOT
ATOM      1  C   LIG    1       -3.435   2.518  -2.456  0.00  0.00    +0.500 C 
ATOM      2  N   LIG    1       -4.497   3.014  -3.122  0.00  0.00    -0.520 N 
ATOM      3  H   LIG    1       -4.867   3.875  -2.873  0.00  0.00    +0.430 HD
ATOM      4  O   LIG    1       -2.973   1.441  -2.767  0.00  0.00    -0.490 OA
ENDROOT
BRANCH   1  13
ATOM      5  C   LIG    1       -0.671   4.138   0.861  0.00  0.00    +0.090 C 
ATOM      6  C   LIG    1       -1.476   2.854   0.650  0.00  0.00    +0.170 C 
ATOM      7  C   LIG    1       -0.787   1.609   1.241  0.00  0.00    +0.090 C 
ATOM      8  C   LIG    1       -0.013   1.086   0.008  0.00  0.00    +0.080 C 
ATOM      9  C   LIG    1       -0.791   1.610  -1.176  0.00  0.00    +0.550 C 
ATOM     10  O   LIG    1       -0.632   1.247  -2.322  0.00  0.00    -0.480 OA
ATOM     11  S   LIG    1       -3.187   2.985   1.291  0.00  0.00    -0.230 S 
ATOM     12  C   LIG    1       -3.913   3.593  -0.280  0.00  0.00    +0.150 C 
ATOM     13  C   LIG    1       -2.822   3.303  -1.325  0.00  0.00    +0.270 C 
ATOM     14  N   LIG    1       -1.693   2.542  -0.780  0.00  0.00    -0.610 N 
ENDBRANCH   1  13
BRANCH   2  15
ATOM     15  N   LIG    1       -5.067   2.284  -4.174  0.00  0.00    -0.520 N 
ATOM     16  H   LIG    1       -4.697   1.423  -4.423  0.00  0.00    +0.440 HD
ATOM     17  C   LIG    1       -6.129   2.780  -4.840  0.00  0.00    +0.520 C 
ATOM     18  O   LIG    1       -6.591   3.857  -4.528  0.00  0.00    -0.510 OA
BRANCH  17  19
ATOM     19  C   LIG    1       -6.742   1.995  -5.971  0.00  0.00    +0.250 C 
BRANCH  19  20
ATOM     20  O   LIG    1       -7.845   2.724  -6.513  0.00  0.00    -0.280 OA
BRANCH  20  21
ATOM     21  C   LIG    1       -8.513   2.151  -7.549  0.00  0.00    +0.140 A 
ATOM     22  C   LIG    1       -8.111   0.916  -8.037  0.00  0.00    -0.070 A 
ATOM     23  C   LIG    1       -8.796   0.333  -9.086  0.00  0.00    +0.090 A 
ATOM     24  C   LIG    1       -9.874   0.986  -9.657  0.00  0.00    -0.130 A 
ATOM     25  C   LIG    1      -10.272   2.220  -9.176  0.00  0.00    +0.090 A 
ATOM     26 BR   LIG    1      -10.804   0.189 -11.098  0.00  0.00    -0.050 Br
ATOM     27  C   LIG    1       -9.594   2.804  -8.123  0.00  0.00    +0.000 A 
ENDBRANCH  20  21
ENDBRANCH  19  20
ENDBRANCH  17  19
ENDBRANCH   2  15
TORSDOF 5
