REMARK  Name = ZINCrH000004m13x.0
REMARK                            x       y       z     vdW  Elec       q    Type
REMARK                         _______ _______ _______ _____ _____    ______ ____
ROOT
ATOM      1  N   LIG    1       -0.669   2.380   0.415  0.00  0.00    -0.670 N 
ATOM      2  H   LIG    1       -0.779   1.882   1.240  0.00  0.00    +0.410 HD
ATOM      3  C   LIG    1       -1.473   3.427   0.146  0.00  0.00    +0.530 C 
ATOM      4  O   LIG    1       -1.389   3.999  -0.920  0.00  0.00    -0.490 OA
ENDROOT
BRANCH   3   5
ATOM      5  C   LIG    1       -2.479   3.887   1.170  0.00  0.00    +0.230 C 
ATOM      6  C   LIG    1       -3.889   3.802   0.579  0.00  0.00    +0.040 C 
ATOM      7  C   LIG    1       -4.890   4.400   1.571  0.00  0.00    +0.030 C 
ATOM      8  C   LIG    1       -4.555   5.874   1.811  0.00  0.00    +0.010 C 
ATOM      9  C   LIG    1       -3.152   5.982   2.416  0.00  0.00    +0.270 C 
ATOM     10  N   LIG    1       -2.203   5.283   1.538  0.00  0.00    -0.600 N 
ATOM     11  C   LIG    1       -1.101   5.909   1.080  0.00  0.00    +0.590 C 
ATOM     12  O   LIG    1       -0.310   5.311   0.375  0.00  0.00    -0.480 OA
BRANCH  11  13
ATOM     13  C   LIG    1       -0.856   7.311   1.430  0.00  0.00    -0.270 A 
ATOM     14  C   LIG    1        0.362   7.852   1.730  0.00  0.00    +0.090 A 
ATOM     15  C   LIG    1        0.305   9.195   2.019  0.00  0.00    +0.000 A 
ATOM     16  C   LIG    1       -0.918   9.735   1.968  0.00  0.00    -0.070 A 
ATOM     17  S   LIG    1       -2.084   8.565   1.540  0.00  0.00    +0.220 S 
ENDBRANCH  11  13
ENDBRANCH   3   5
BRANCH   1  21
ATOM     18  C   LIG    1        2.298   1.265  -2.300  0.00  0.00    +0.090 A 
ATOM     19  C   LIG    1        2.504   1.100  -0.940  0.00  0.00    -0.010 A 
ATOM     20  C   LIG    1        1.522   1.470  -0.041  0.00  0.00    -0.110 A 
ATOM     21  C   LIG    1        0.328   2.010  -0.498  0.00  0.00    +0.160 A 
ATOM     22  C   LIG    1        0.118   2.177  -1.860  0.00  0.00    -0.010 A 
ATOM     23  C   LIG    1        1.749   1.290   1.438  0.00  0.00    +0.090 C 
ATOM     24  C   LIG    1        1.101   1.805  -2.762  0.00  0.00    +0.110 A 
BRANCH  18  26
ATOM     25  C   LIG    1        4.469   0.354  -2.640  0.00  0.00    +0.230 C 
ATOM     26  O   LIG    1        3.266   0.900  -3.184  0.00  0.00    -0.310 OA
ENDBRANCH  18  26
BRANCH  24  27
ATOM     27  O   LIG    1        0.898   1.968  -4.096  0.00  0.00    -0.310 OA
ATOM     28  C   LIG    1       -0.354   2.528  -4.498  0.00  0.00    +0.240 C 
ENDBRANCH  24  27
ENDBRANCH   1  21
TORSDOF 5
