REMARK  Name = ZINCrH000004vKDO.0
REMARK                            x       y       z     vdW  Elec       q    Type
REMARK                         _______ _______ _______ _____ _____    ______ ____
ROOT
ATOM      1  C   LIG    1        3.645  -1.995   0.058  0.00  0.00    +0.510 C 
ATOM      2  N   LIG    1        3.622  -0.651  -0.036  0.00  0.00    -0.670 N 
ATOM      3  H   LIG    1        4.452  -0.155  -0.109  0.00  0.00    +0.410 HD
ATOM      4  O   LIG    1        2.606  -2.620   0.065  0.00  0.00    -0.500 OA
ENDROOT
BRANCH   1   8
ATOM      5  O   LIG    1        5.258  -2.591  -3.372  0.00  0.00    -0.520 OA
ATOM      6  C   LIG    1        5.212  -3.123  -2.283  0.00  0.00    +0.520 C 
ATOM      7  C   LIG    1        5.801  -2.423  -1.088  0.00  0.00    +0.090 C 
ATOM      8  C   LIG    1        4.962  -2.721   0.155  0.00  0.00    +0.070 C 
ATOM      9  C   LIG    1        4.712  -4.204   0.250  0.00  0.00    -0.110 A 
ATOM     10  C   LIG    1        4.634  -4.817   1.484  0.00  0.00    +0.060 A 
ATOM     11  C   LIG    1        4.405  -6.178   1.568  0.00  0.00    -0.010 A 
ATOM     12  C   LIG    1        4.251  -6.928   0.417  0.00  0.00    +0.050 A 
ATOM     13  C   LIG    1        4.327  -6.321  -0.821  0.00  0.00    -0.020 A 
ATOM     14  C   LIG    1        4.558  -4.954  -0.908  0.00  0.00    +0.170 A 
ATOM     15  N   LIG    1        4.636  -4.333  -2.158  0.00  0.00    -0.660 N 
ATOM     16  H   LIG    1        4.273  -4.776  -2.941  0.00  0.00    +0.410 HD
ENDBRANCH   1   8
BRANCH   2  17
ATOM     17  C   LIG    1        2.399   0.030  -0.029  0.00  0.00    +0.150 A 
ATOM     18  C   LIG    1        1.284  -0.536  -0.632  0.00  0.00    +0.030 A 
ATOM     19  C   LIG    1        0.078   0.138  -0.623  0.00  0.00    +0.040 A 
ATOM     20  C   LIG    1       -0.018   1.377  -0.015  0.00  0.00    +0.000 A 
ATOM     21  C   LIG    1        1.091   1.943   0.586  0.00  0.00    -0.100 A 
ATOM     22  C   LIG    1        2.299   1.274   0.581  0.00  0.00    +0.000 A 
BRANCH  21  23
ATOM     23  C   LIG    1        0.982   3.293   1.247  0.00  0.00    +0.270 C 
BRANCH  23  24
ATOM     24  O   LIG    1        0.066   4.110   0.514  0.00  0.00    -0.540 OA
ATOM     25  H   LIG    1       -0.828   3.746   0.459  0.00  0.00    +0.380 HD
ENDBRANCH  23  24
BRANCH  23  26
ATOM     26  C   LIG    1        0.476   3.120   2.680  0.00  0.00    +0.040 C 
BRANCH  26  27
ATOM     27  C   LIG    1        0.483   4.475   3.391  0.00  0.00    +0.460 C 
ATOM     28  F   LIG    1        1.787   4.982   3.415  0.00  0.00    -0.180 F 
ATOM     29  F   LIG    1        0.020   4.316   4.702  0.00  0.00    -0.190 F 
ATOM     30  F   LIG    1       -0.351   5.365   2.706  0.00  0.00    -0.170 F 
ENDBRANCH  26  27
ENDBRANCH  23  26
ENDBRANCH  21  23
ENDBRANCH   2  17
TORSDOF 6
