REMARK  Name = ZINCpk00000y6ze6.2
REMARK                            x       y       z     vdW  Elec       q    Type
REMARK                         _______ _______ _______ _____ _____    ______ ____
ROOT
ATOM      1  C   LIG    1        6.027  -1.617   0.003  0.00  0.00    -0.010 C 
ATOM      2  C   LIG    1        5.525  -2.244   1.307  0.00  0.00    +0.020 C 
ATOM      3  C   LIG    1        5.841  -3.743   1.298  0.00  0.00    +0.020 C 
ATOM      4  C   LIG    1        7.348  -3.940   1.120  0.00  0.00    +0.180 C 
ATOM      5  N   LIG    1        7.779  -3.323  -0.141  0.00  0.00    -0.500 NA
ATOM      6  C   LIG    1        7.529  -1.876  -0.138  0.00  0.00    +0.230 C 
ENDROOT
BRANCH   6   7
ATOM      7  C   LIG    1        8.022  -1.278  -1.429  0.00  0.00    +0.100 A 
ATOM      8  C   LIG    1        8.993  -0.343  -1.556  0.00  0.00    -0.130 A 
ATOM      9  C   LIG    1        9.145  -0.063  -2.918  0.00  0.00    +0.220 A 
ATOM     10  N   LIG    1        8.297  -0.803  -3.585  0.00  0.00    -0.300 NA
ATOM     11  N   LIG    1        7.580  -1.582  -2.668  0.00  0.00    -0.350 N 
ATOM     12  C   LIG    1        6.533  -2.553  -2.994  0.00  0.00    +0.340 C 
ENDBRANCH   6   7
BRANCH   5  13
ATOM     13  C   LIG    1        9.193  -3.612  -0.412  0.00  0.00    +0.150 C 
ATOM     14  C   LIG    1        9.941  -4.487   0.596  0.00  0.00    +0.010 C 
ATOM     15  C   LIG    1       10.233  -2.986   0.518  0.00  0.00    -0.010 C 
ENDBRANCH   5  13
BRANCH   1  16
ATOM     16  C   LIG    1        5.769  -0.109   0.029  0.00  0.00    +0.270 C 
BRANCH  16  18
ATOM     17  C   LIG    1        3.859   1.404   0.070  0.00  0.00    +0.610 C 
ATOM     18  N   LIG    1        4.325   0.139   0.046  0.00  0.00    -0.720 N 
ATOM     19  H   LIG    1        3.705  -0.606   0.039  0.00  0.00    +0.410 HD
ATOM     20  O   LIG    1        4.637   2.338   0.078  0.00  0.00    -0.540 OA
BRANCH  17  25
ATOM     21  C   LIG    1       -0.584   3.671   0.140  0.00  0.00    +0.330 C 
ATOM     22  N   LIG    1        0.465   2.649   0.120  0.00  0.00    -0.460 N 
ATOM     23  C   LIG    1        0.273   1.304   0.100  0.00  0.00    +0.400 A 
ATOM     24  N   LIG    1        1.431   0.710   0.081  0.00  0.00    -0.470 NA
ATOM     25  C   LIG    1        2.408   1.653   0.087  0.00  0.00    -0.070 A 
ATOM     26  C   LIG    1        1.800   2.874   0.112  0.00  0.00    +0.230 A 
ENDBRANCH  17  25
ENDBRANCH  16  18
ENDBRANCH   1  16
TORSDOF 5
