REMARK  Name = ZINCvU00000005Qp.0
REMARK                            x       y       z     vdW  Elec       q    Type
REMARK                         _______ _______ _______ _____ _____    ______ ____
ROOT
ATOM      1  C   LIG    1        1.277   3.247   0.728  0.00  0.00    +0.540 C 
ATOM      2  N   LIG    1        1.040   2.413  -0.304  0.00  0.00    -0.500 N 
ATOM      3  C   LIG    1        1.989   2.303  -1.329  0.00  0.00    +0.140 A 
ATOM      4  C   LIG    1        3.343   2.326  -1.033  0.00  0.00    +0.010 A 
ATOM      5  C   LIG    1        4.275   2.216  -2.050  0.00  0.00    +0.060 A 
ATOM      6  C   LIG    1        3.865   2.075  -3.362  0.00  0.00    +0.030 A 
ATOM      7  C   LIG    1        2.515   2.048  -3.668  0.00  0.00    +0.070 A 
ATOM      8  C   LIG    1        1.579   2.162  -2.656  0.00  0.00    -0.130 A 
ATOM      9  S   LIG    1       -0.147   2.133  -3.022  0.00  0.00    +0.020 S 
ATOM     10  C   LIG    1       -0.819   1.457  -1.536  0.00  0.00    -0.130 A 
ATOM     11  C   LIG    1       -1.991   0.723  -1.563  0.00  0.00    +0.070 A 
ATOM     12  C   LIG    1       -2.502   0.202  -0.387  0.00  0.00    +0.030 A 
ATOM     13  C   LIG    1       -1.844   0.415   0.809  0.00  0.00    +0.050 A 
ATOM     14  C   LIG    1       -0.671   1.148   0.842  0.00  0.00    +0.040 A 
ATOM     15  C   LIG    1       -0.149   1.673  -0.329  0.00  0.00    +0.140 A 
ATOM     16  O   LIG    1        0.431   3.412   1.582  0.00  0.00    -0.480 OA
ENDROOT
BRANCH   1  17
ATOM     17  C   LIG    1        2.593   3.976   0.822  0.00  0.00    +0.130 C 
BRANCH  17  18
ATOM     18  S   LIG    1        2.435   5.361   1.976  0.00  0.00    +0.040 S 
BRANCH  18  23
ATOM     19  C   LIG    1        7.486   6.081   0.690  0.00  0.00    +0.150 C 
ATOM     20  C   LIG    1        6.148   6.293   1.350  0.00  0.00    +0.000 A 
ATOM     21  C   LIG    1        5.849   7.265   2.229  0.00  0.00    +0.010 A 
ATOM     22  N   LIG    1        4.529   7.097   2.581  0.00  0.00    -0.430 N 
ATOM     23  C   LIG    1        4.069   6.015   1.894  0.00  0.00    +0.170 A 
ATOM     24  C   LIG    1        6.783   8.335   2.734  0.00  0.00    +0.150 C 
ATOM     25  N   LIG    1        5.051   5.540   1.164  0.00  0.00    -0.480 NA
BRANCH  22  26
ATOM     26  C   LIG    1        3.764   7.924   3.517  0.00  0.00    +0.290 C 
BRANCH  26  27
ATOM     27  C   LIG    1        3.897   7.352   4.929  0.00  0.00    +0.160 C 
ATOM     28  C   LIG    1        3.003   8.149   5.904  0.00  0.00    +0.020 C 
ATOM     29  C   LIG    1        3.892   8.231   7.174  0.00  0.00    +0.020 C 
ATOM     30  C   LIG    1        5.303   8.326   6.540  0.00  0.00    +0.200 C 
ATOM     31  O   LIG    1        5.250   7.480   5.381  0.00  0.00    -0.370 OA
ENDBRANCH  26  27
ENDBRANCH  22  26
ENDBRANCH  18  23
ENDBRANCH  17  18
ENDBRANCH   1  17
TORSDOF 5
