REMARK  Name = ZINC9u0000000C7R.0
REMARK                            x       y       z     vdW  Elec       q    Type
REMARK                         _______ _______ _______ _____ _____    ______ ____
ROOT
ATOM      1  C   LIG    1       -0.018   1.476   0.010  0.00  0.00    -0.170 A 
ATOM      2  C   LIG    1       -1.119   2.231   0.019  0.00  0.00    -0.020 A 
ATOM      3  C   LIG    1       -0.890   3.596   0.028  0.00  0.00    +0.040 A 
ATOM      4  C   LIG    1        0.397   3.950   0.018  0.00  0.00    +0.040 A 
ATOM      5 BR   LIG    1       -2.859   1.491   0.023  0.00  0.00    +0.040 Br
ATOM      6  S   LIG    1        1.405   2.510   0.002  0.00  0.00    +0.290 S 
ENDROOT
BRANCH   1   8
ATOM      7  O   LIG    1        1.065  -0.599  -0.011  0.00  0.00    -0.150 OA
ATOM      8  N   LIG    1        0.002  -0.004   0.002  0.00  0.00    +0.050 N 
ATOM      9  O   LIG    1       -1.044  -0.627   0.008  0.00  0.00    -0.120 OA
ENDBRANCH   1   8
TORSDOF 1
