REMARK  Name = ZINCpk00000e8Shi.0
REMARK                            x       y       z     vdW  Elec       q    Type
REMARK                         _______ _______ _______ _____ _____    ______ ____
ROOT
ATOM      1  C   LIG    1        1.521  -3.941  -1.654  0.00  0.00    +0.570 C 
ATOM      2  N   LIG    1        1.438  -2.619  -1.401  0.00  0.00    -0.720 N 
ATOM      3  H   LIG    1        1.465  -1.983  -2.133  0.00  0.00    +0.400 HD
ATOM      4  O   LIG    1        1.488  -4.738  -0.737  0.00  0.00    -0.530 OA
ENDROOT
BRANCH   1   8
ATOM      5  C   LIG    1        1.899  -5.318  -5.653  0.00  0.00    +0.160 A 
ATOM      6  C   LIG    1        1.862  -6.231  -4.606  0.00  0.00    -0.020 A 
ATOM      7  C   LIG    1        1.739  -5.789  -3.308  0.00  0.00    +0.140 A 
ATOM      8  C   LIG    1        1.653  -4.419  -3.044  0.00  0.00    -0.180 A 
ATOM      9  C   LIG    1        1.686  -3.504  -4.100  0.00  0.00    +0.090 A 
ATOM     10  C   LIG    1        1.813  -3.955  -5.395  0.00  0.00    -0.080 A 
BRANCH   5  11
ATOM     11  O   LIG    1        2.020  -5.758  -6.931  0.00  0.00    -0.310 OA
BRANCH  11  12
ATOM     12  C   LIG    1        2.052  -4.765  -7.959  0.00  0.00    +0.350 C 
BRANCH  12  14
ATOM     13  C   LIG    1        2.292  -5.943 -10.316  0.00  0.00    +0.080 C 
ATOM     14  C   LIG    1        2.185  -5.420  -9.270  0.00  0.00    -0.210 C 
ENDBRANCH  12  14
ENDBRANCH  11  12
ENDBRANCH   5  11
ENDBRANCH   1   8
BRANCH   2  15
ATOM     15  C   LIG    1        1.308  -2.144  -0.021  0.00  0.00    +0.360 C 
BRANCH  15  16
ATOM     16  C   LIG    1        1.235  -0.639  -0.013  0.00  0.00    +0.010 A 
ATOM     17  C   LIG    1        0.002  -0.004   0.002  0.00  0.00    +0.090 A 
ATOM     18  C   LIG    1       -0.017   1.383   0.010  0.00  0.00    +0.030 A 
ATOM     19  C   LIG    1        1.204   2.051   0.002  0.00  0.00    +0.270 A 
ATOM     20  N   LIG    1        2.332   1.358  -0.013  0.00  0.00    -0.300 NA
ATOM     21  N   LIG    1        2.344   0.075  -0.020  0.00  0.00    -0.180 NA
BRANCH  19  22
ATOM     22  O   LIG    1        1.238   3.408   0.008  0.00  0.00    -0.290 OA
BRANCH  22  23
ATOM     23  C   LIG    1        2.528   4.024  -0.001  0.00  0.00    +0.240 C 
BRANCH  23  24
ATOM     24  C   LIG    1        2.365   5.546   0.008  0.00  0.00    +0.200 C 
BRANCH  24  25
ATOM     25  O   LIG    1        1.760   5.953   1.237  0.00  0.00    -0.390 OA
ATOM     26  C   LIG    1        1.562   7.364   1.348  0.00  0.00    +0.200 C 
ENDBRANCH  24  25
ENDBRANCH  23  24
ENDBRANCH  22  23
ENDBRANCH  19  22
ENDBRANCH  15  16
ENDBRANCH   2  15
TORSDOF 10
