REMARK  Name = ZINCvU0000000C0J.0
REMARK                            x       y       z     vdW  Elec       q    Type
REMARK                         _______ _______ _______ _____ _____    ______ ____
ROOT
ATOM      1  O   LIG    1        2.540  -1.940  -4.917  0.00  0.00    -0.430 OA
ATOM      2  C   LIG    1        3.238  -0.954  -4.763  0.00  0.00    +0.460 A 
ATOM      3  C   LIG    1        4.196  -0.467  -5.788  0.00  0.00    -0.200 A 
ATOM      4  C   LIG    1        4.484  -1.244  -6.910  0.00  0.00    +0.140 A 
ATOM      5  C   LIG    1        5.385  -0.782  -7.845  0.00  0.00    -0.060 A 
ATOM      6  C   LIG    1        6.000   0.451  -7.669  0.00  0.00    +0.120 A 
ATOM      7  C   LIG    1        5.720   1.228  -6.567  0.00  0.00    +0.040 A 
ATOM      8 CL   LIG    1        5.751  -1.741  -9.245  0.00  0.00    -0.050 Cl
ATOM      9  C   LIG    1        4.810   0.784  -5.608  0.00  0.00    +0.150 A 
ATOM     10  O   LIG    1        4.547   1.570  -4.539  0.00  0.00    -0.180 OA
ATOM     11  C   LIG    1        3.862   1.066  -3.494  0.00  0.00    +0.090 A 
ATOM     12  C   LIG    1        3.660   1.642  -2.152  0.00  0.00    +0.570 C 
ATOM     13  O   LIG    1        4.110   2.706  -1.777  0.00  0.00    -0.480 OA
ATOM     14  N   LIG    1        2.903   0.815  -1.403  0.00  0.00    -0.590 N 
ATOM     15  C   LIG    1        2.569  -0.363  -2.219  0.00  0.00    +0.350 C 
ATOM     16  C   LIG    1        3.214  -0.134  -3.547  0.00  0.00    -0.240 A 
ENDROOT
BRANCH  15  17
ATOM     17  C   LIG    1        3.120  -1.612  -1.579  0.00  0.00    -0.090 A 
ATOM     18  C   LIG    1        4.374  -1.595  -1.000  0.00  0.00    +0.010 A 
ATOM     19  C   LIG    1        4.880  -2.738  -0.407  0.00  0.00    +0.030 A 
ATOM     20  C   LIG    1        4.136  -3.902  -0.403  0.00  0.00    +0.000 A 
ATOM     21  C   LIG    1        2.879  -3.923  -0.989  0.00  0.00    +0.110 A 
ATOM     22  C   LIG    1        2.372  -2.774  -1.578  0.00  0.00    +0.010 A 
BRANCH  21  23
ATOM     23  O   LIG    1        2.146  -5.066  -0.986  0.00  0.00    -0.500 OA
ATOM     24  H   LIG    1        2.296  -5.633  -1.755  0.00  0.00    +0.390 HD
ENDBRANCH  21  23
ENDBRANCH  15  17
BRANCH  14  25
ATOM     25  C   LIG    1        2.490   1.046  -0.016  0.00  0.00    +0.390 C 
BRANCH  25  26
ATOM     26  C   LIG    1        1.175   1.783   0.000  0.00  0.00    -0.130 A 
ATOM     27  C   LIG    1       -0.013   1.076   0.008  0.00  0.00    +0.060 A 
ATOM     28  C   LIG    1       -1.219   1.750   0.017  0.00  0.00    -0.020 A 
ATOM     29  C   LIG    1       -1.237   3.135   0.030  0.00  0.00    +0.110 A 
ATOM     30  C   LIG    1       -0.047   3.842   0.022  0.00  0.00    -0.020 A 
ATOM     31  F   LIG    1       -2.416   3.795   0.045  0.00  0.00    -0.140 F 
ATOM     32  C   LIG    1        1.158   3.165   0.007  0.00  0.00    +0.080 A 
ENDBRANCH  25  26
ENDBRANCH  14  25
TORSDOF 4
