REMARK  Name = ZINCvU0000000Jrq.0
REMARK                            x       y       z     vdW  Elec       q    Type
REMARK                         _______ _______ _______ _____ _____    ______ ____
ROOT
ATOM      1  O   LIG    1       -6.275   2.409   0.129  0.00  0.00    -0.320 OA
ENDROOT
BRANCH   1   2
ATOM      2  C   LIG    1       -7.357   3.161  -0.155  0.00  0.00    +0.520 C 
ATOM      3  O   LIG    1       -7.245   4.365  -0.278  0.00  0.00    -0.500 OA
BRANCH   2   4
ATOM      4  C   LIG    1       -8.673   2.524  -0.317  0.00  0.00    -0.100 C 
ATOM      5  C   LIG    1       -9.768   3.284  -0.605  0.00  0.00    +0.180 C 
BRANCH   5   6
ATOM      6  C   LIG    1      -11.050   2.639  -0.913  0.00  0.00    -0.100 A 
ATOM      7  C   LIG    1      -11.074   1.397  -1.560  0.00  0.00    +0.090 A 
ATOM      8  C   LIG    1      -12.281   0.794  -1.841  0.00  0.00    -0.020 A 
ATOM      9  C   LIG    1      -13.469   1.419  -1.495  0.00  0.00    +0.120 A 
ATOM     10  C   LIG    1      -13.453   2.652  -0.858  0.00  0.00    -0.020 A 
ATOM     11  F   LIG    1      -14.649   0.825  -1.779  0.00  0.00    -0.130 F 
ATOM     12  C   LIG    1      -12.254   3.264  -0.566  0.00  0.00    +0.080 A 
ENDBRANCH   5   6
BRANCH   4  13
ATOM     13  C   LIG    1       -8.809   1.063  -0.168  0.00  0.00    -0.150 A 
ATOM     14  C   LIG    1       -8.224   0.140  -0.962  0.00  0.00    +0.030 A 
ATOM     15  C   LIG    1       -8.499  -1.168  -0.623  0.00  0.00    +0.010 A 
ATOM     16  C   LIG    1       -9.300  -1.323   0.435  0.00  0.00    -0.040 A 
ATOM     17  S   LIG    1       -9.751   0.251   1.076  0.00  0.00    +0.130 S 
ENDBRANCH   4  13
ENDBRANCH   2   4
ENDBRANCH   1   2
BRANCH   1  18
ATOM     18  C   LIG    1       -5.008   3.105   0.274  0.00  0.00    +0.270 C 
BRANCH  18  21
ATOM     19  N   LIG    1       -2.654   2.530   0.767  0.00  0.00    -0.670 N 
ATOM     20  H   LIG    1       -2.452   3.479   0.763  0.00  0.00    +0.410 HD
ATOM     21  C   LIG    1       -3.921   2.109   0.589  0.00  0.00    +0.510 C 
ATOM     22  O   LIG    1       -4.188   0.930   0.681  0.00  0.00    -0.490 OA
BRANCH  19  26
ATOM     23  C   LIG    1        0.402  -0.244   1.337  0.00  0.00    -0.080 A 
ATOM     24  C   LIG    1       -0.671  -0.557   0.523  0.00  0.00    +0.030 A 
ATOM     25  C   LIG    1       -1.683   0.362   0.328  0.00  0.00    +0.010 A 
ATOM     26  C   LIG    1       -1.628   1.598   0.959  0.00  0.00    +0.140 A 
ATOM     27  C   LIG    1       -0.549   1.909   1.776  0.00  0.00    -0.010 A 
ATOM     28  C   LIG    1        0.463   0.987   1.963  0.00  0.00    +0.030 A 
BRANCH  23  30
ATOM     29  C   LIG    1        2.150  -1.582   0.196  0.00  0.00    +0.040 C 
ATOM     30  C   LIG    1        1.507  -1.248   1.543  0.00  0.00    -0.030 C 
ATOM     31  C   LIG    1        0.930  -2.522   2.163  0.00  0.00    +0.040 C 
ATOM     32  C   LIG    1        2.563  -0.658   2.480  0.00  0.00    +0.030 C 
ENDBRANCH  23  30
ENDBRANCH  19  26
ENDBRANCH  18  21
ENDBRANCH   1  18
TORSDOF 8
