REMARK  Name = ZINCrD0000074RX4.0
REMARK                            x       y       z     vdW  Elec       q    Type
REMARK                         _______ _______ _______ _____ _____    ______ ____
ROOT
ATOM      1  C   LIG    1       -3.198  -1.446  -0.800  0.00  0.00    +0.250 C 
ATOM      2  C   LIG    1       -3.743  -1.903   0.555  0.00  0.00    +0.030 C 
ATOM      3  C   LIG    1       -5.242  -2.193   0.426  0.00  0.00    +0.270 C 
ATOM      4  N   LIG    1       -5.445  -3.159  -0.663  0.00  0.00    -0.620 N 
ATOM      5  C   LIG    1       -4.882  -2.859  -1.986  0.00  0.00    +0.300 C 
ATOM      6  C   LIG    1       -6.135  -4.297  -0.451  0.00  0.00    +0.600 C 
ATOM      7  O   LIG    1       -6.033  -5.224  -1.233  0.00  0.00    -0.510 OA
ATOM      8  C   LIG    1       -3.387  -2.562  -1.830  0.00  0.00    +0.030 C 
ENDROOT
BRANCH   6   9
ATOM      9  C   LIG    1       -7.008  -4.418   0.720  0.00  0.00    -0.280 A 
ATOM     10  C   LIG    1       -7.629  -5.564   1.130  0.00  0.00    +0.170 A 
ATOM     11  C   LIG    1       -8.388  -5.395   2.264  0.00  0.00    -0.080 A 
ATOM     12  C   LIG    1       -8.398  -4.152   2.760  0.00  0.00    -0.150 A 
ATOM     13  C   LIG    1       -9.162  -3.729   3.989  0.00  0.00    +0.180 C 
ATOM     14  S   LIG    1       -7.431  -3.111   1.817  0.00  0.00    +0.340 S 
BRANCH  11  15
ATOM     15  N   LIG    1       -9.143  -6.505   2.887  0.00  0.00    +0.050 N 
ATOM     16  O   LIG    1       -9.805  -6.304   3.889  0.00  0.00    -0.150 OA
ATOM     17  O   LIG    1       -9.102  -7.619   2.398  0.00  0.00    -0.160 OA
ENDBRANCH  11  15
ENDBRANCH   6   9
BRANCH   1  19
ATOM     18  C   LIG    1       -1.382   0.083  -0.248  0.00  0.00    +0.560 C 
ATOM     19  N   LIG    1       -1.772  -1.136  -0.672  0.00  0.00    -0.730 N 
ATOM     20  H   LIG    1       -1.108  -1.808  -0.893  0.00  0.00    +0.400 HD
ATOM     21  O   LIG    1       -2.214   0.924   0.028  0.00  0.00    -0.530 OA
BRANCH  18  28
ATOM     22  C   LIG    1       -0.565   2.629   0.856  0.00  0.00    +0.110 C 
ATOM     23  C   LIG    1        0.463   1.621   0.411  0.00  0.00    -0.020 A 
ATOM     24  C   LIG    1        1.808   1.909   0.523  0.00  0.00    +0.000 A 
ATOM     25  C   LIG    1        2.753   0.984   0.115  0.00  0.00    +0.040 A 
ATOM     26  C   LIG    1        2.357  -0.234  -0.407  0.00  0.00    -0.010 A 
ATOM     27  C   LIG    1        1.015  -0.535  -0.525  0.00  0.00    +0.040 A 
ATOM     28  C   LIG    1        0.057   0.395  -0.120  0.00  0.00    -0.150 A 
ENDBRANCH  18  28
ENDBRANCH   1  19
TORSDOF 4
