REMARK  Name = ZINCqH0000037UMX.0
REMARK                            x       y       z     vdW  Elec       q    Type
REMARK                         _______ _______ _______ _____ _____    ______ ____
ROOT
ATOM      1  C   LIG    1       -2.449  -0.492   0.253  0.00  0.00    +0.100 C 
ATOM      2  C   LIG    1       -2.429   1.012   0.151  0.00  0.00    -0.090 A 
ATOM      3  C   LIG    1       -3.613   1.721   0.171  0.00  0.00    +0.040 A 
ATOM      4  C   LIG    1       -3.595   3.105   0.077  0.00  0.00    +0.080 A 
ATOM      5  C   LIG    1       -2.386   3.778  -0.036  0.00  0.00    +0.040 A 
ATOM      6  C   LIG    1       -1.201   3.070  -0.051  0.00  0.00    +0.050 A 
ATOM      7  C   LIG    1       -1.218   1.684   0.037  0.00  0.00    +0.150 A 
ENDROOT
BRANCH   7   8
ATOM      8  N   LIG    1       -0.017   0.966   0.017  0.00  0.00    -0.660 N 
ATOM      9  H   LIG    1        0.022   0.098  -0.414  0.00  0.00    +0.420 HD
ATOM     10  C   LIG    1        1.087   1.482   0.592  0.00  0.00    +0.610 C 
ATOM     11  O   LIG    1        1.060   2.604   1.061  0.00  0.00    -0.500 OA
BRANCH  10  12
ATOM     12  C   LIG    1        2.327   0.688   0.652  0.00  0.00    -0.000 A 
ATOM     13  N   LIG    1        2.503  -0.534   0.196  0.00  0.00    -0.200 NA
ATOM     14  N   LIG    1        3.700  -0.953   0.396  0.00  0.00    -0.410 N 
ATOM     15  H   LIG    1        4.027  -1.826   0.129  0.00  0.00    +0.450 HD
ATOM     16  C   LIG    1        4.456  -0.008   1.041  0.00  0.00    +0.060 A 
ATOM     17  C   LIG    1        5.771   0.053   1.490  0.00  0.00    +0.010 A 
ATOM     18  C   LIG    1        6.224   1.191   2.120  0.00  0.00    +0.060 A 
ATOM     19  C   LIG    1        5.383   2.279   2.312  0.00  0.00    +0.000 A 
ATOM     20  C   LIG    1        4.087   2.240   1.879  0.00  0.00    +0.090 A 
ATOM     21  C   LIG    1        3.609   1.100   1.240  0.00  0.00    -0.110 A 
ENDBRANCH  10  12
ENDBRANCH   7   8
BRANCH   4  22
ATOM     22  O   LIG    1       -4.761   3.803   0.097  0.00  0.00    -0.230 OA
BRANCH  22  23
ATOM     23  C   LIG    1       -5.398   3.945   1.284  0.00  0.00    +0.490 A 
ATOM     24  N   LIG    1       -4.925   3.318   2.349  0.00  0.00    -0.550 NA
ATOM     25  C   LIG    1       -5.519   3.438   3.524  0.00  0.00    +0.360 A 
ATOM     26  C   LIG    1       -6.657   4.223   3.629  0.00  0.00    -0.120 A 
ATOM     27  C   LIG    1       -7.128   4.861   2.492  0.00  0.00    +0.370 A 
ATOM     28  N   LIG    1       -6.481   4.702   1.349  0.00  0.00    -0.520 NA
ENDBRANCH  22  23
ENDBRANCH   4  22
TORSDOF 4
