REMARK  Name = ZINCwl0000000CPp.1
REMARK                            x       y       z     vdW  Elec       q    Type
REMARK                         _______ _______ _______ _____ _____    ______ ____
ROOT
ATOM      1  O   LIG    1        0.732   0.618  -2.037  0.00  0.00    -0.530 OA
ATOM      2  C   LIG    1       -0.315   1.175  -2.288  0.00  0.00    +0.500 C 
ATOM      3  N   LIG    1       -0.657   1.423  -3.567  0.00  0.00    -0.580 N 
ATOM      4  C   LIG    1       -1.925   2.093  -3.894  0.00  0.00    +0.280 C 
ATOM      5  C   LIG    1       -1.621   3.271  -4.833  0.00  0.00    +0.190 C 
ATOM      6  N   LIG    1       -0.860   2.783  -5.991  0.00  0.00    -0.510 NA
ATOM      7  C   LIG    1        0.443   2.242  -5.583  0.00  0.00    +0.190 C 
ATOM      8  C   LIG    1        0.226   1.027  -4.675  0.00  0.00    +0.310 C 
ENDROOT
BRANCH   6   9
ATOM      9  C   LIG    1       -0.700   3.841  -6.998  0.00  0.00    +0.250 C 
BRANCH   9  10
ATOM     10  C   LIG    1        0.031   5.009  -6.388  0.00  0.00    +0.490 C 
ATOM     11  N   LIG    1        0.197   6.144  -7.095  0.00  0.00    -0.610 N 
ATOM     12  C   LIG    1       -0.320   6.264  -8.467  0.00  0.00    +0.260 C 
ATOM     13  C   LIG    1       -1.137   7.563  -8.560  0.00  0.00    +0.220 C 
ATOM     14  O   LIG    1       -0.341   8.651  -8.085  0.00  0.00    -0.370 OA
ATOM     15  C   LIG    1        0.035   8.545  -6.710  0.00  0.00    +0.220 C 
ATOM     16  C   LIG    1        0.907   7.298  -6.520  0.00  0.00    +0.250 C 
ATOM     17  O   LIG    1        0.469   4.928  -5.260  0.00  0.00    -0.540 OA
ENDBRANCH   9  10
ENDBRANCH   6   9
BRANCH   2  18
ATOM     18  C   LIG    1       -1.235   1.590  -1.168  0.00  0.00    +0.300 C 
BRANCH  18  19
ATOM     19  N   LIG    1       -0.640   1.210   0.120  0.00  0.00    -0.500 N 
ATOM     20  H   LIG    1        0.250   1.671   0.229  0.00  0.00    +0.440 HD
ATOM     21  H   LIG    1       -0.507   0.211   0.148  0.00  0.00    +0.430 HD
BRANCH  19  22
ATOM     22  C   LIG    1       -1.537   1.615   1.212  0.00  0.00    +0.340 C 
BRANCH  22  23
ATOM     23  C   LIG    1       -0.874   1.337   2.536  0.00  0.00    -0.160 A 
ATOM     24  C   LIG    1       -0.147   0.174   2.714  0.00  0.00    +0.050 A 
ATOM     25  C   LIG    1        0.466  -0.079   3.926  0.00  0.00    +0.010 A 
ATOM     26  C   LIG    1        0.343   0.827   4.966  0.00  0.00    +0.140 A 
ATOM     27  C   LIG    1       -0.389   1.988   4.788  0.00  0.00    +0.010 A 
ATOM     28  F   LIG    1        0.938   0.578   6.154  0.00  0.00    -0.120 F 
ATOM     29  C   LIG    1       -0.997   2.242   3.573  0.00  0.00    +0.100 A 
ENDBRANCH  22  23
BRANCH  22  30
ATOM     30  C   LIG    1       -2.823   0.835   1.120  0.00  0.00    -0.280 A 
ATOM     31  C   LIG    1       -4.041   1.332   1.340  0.00  0.00    +0.090 A 
ATOM     32  C   LIG    1       -5.076   0.424   1.197  0.00  0.00    +0.020 A 
ATOM     33  C   LIG    1       -4.699  -0.811   0.861  0.00  0.00    +0.020 A 
ATOM     34  S   LIG    1       -2.948  -0.869   0.701  0.00  0.00    +0.110 S 
ENDBRANCH  22  30
ENDBRANCH  19  22
ENDBRANCH  18  19
ENDBRANCH   2  18
TORSDOF 7
