REMARK  Name = ZINCvU0000000EWJ.0
REMARK                            x       y       z     vdW  Elec       q    Type
REMARK                         _______ _______ _______ _____ _____    ______ ____
ROOT
ATOM      1  C   LIG    1        1.754  -4.554  -0.185  0.00  0.00    +0.160 A 
ATOM      2  N   LIG    1        0.569  -4.046  -0.371  0.00  0.00    -0.270 NA
ATOM      3  N   LIG    1        0.644  -2.764  -0.438  0.00  0.00    -0.300 NA
ATOM      4  C   LIG    1        1.893  -2.383  -0.297  0.00  0.00    +0.140 A 
ATOM      5  N   LIG    1        2.640  -3.514  -0.138  0.00  0.00    -0.450 N 
ENDROOT
BRANCH   1   6
ATOM      6  C   LIG    1        2.087  -6.018  -0.054  0.00  0.00    +0.260 C 
BRANCH   6   7
ATOM      7  N   LIG    1        1.597  -6.740  -1.236  0.00  0.00    -0.520 NA
ATOM      8  C   LIG    1        2.386  -6.396  -2.426  0.00  0.00    +0.190 C 
ATOM      9  C   LIG    1        0.169  -6.479  -1.458  0.00  0.00    +0.210 C 
ENDBRANCH   6   7
BRANCH   6  11
ATOM     10  C   LIG    1        1.832  -8.044   1.387  0.00  0.00    +0.040 C 
ATOM     11  C   LIG    1        1.418  -6.582   1.201  0.00  0.00    +0.040 C 
ENDBRANCH   6  11
ENDBRANCH   1   6
BRANCH   4  12
ATOM     12  S   LIG    1        2.491  -0.726  -0.319  0.00  0.00    +0.080 S 
BRANCH  12  13
ATOM     13  C   LIG    1        0.937   0.166  -0.575  0.00  0.00    +0.110 C 
BRANCH  13  14
ATOM     14  C   LIG    1        1.210   1.647  -0.628  0.00  0.00    +0.540 C 
ATOM     15  N   LIG    1        0.195   2.513  -0.818  0.00  0.00    -0.660 N 
ATOM     16  H   LIG    1       -0.700   2.182  -0.990  0.00  0.00    +0.420 HD
ATOM     17  O   LIG    1        2.344   2.059  -0.505  0.00  0.00    -0.500 OA
BRANCH  15  18
ATOM     18  C   LIG    1        0.433   3.891  -0.767  0.00  0.00    +0.170 A 
ATOM     19  C   LIG    1       -0.527   4.744  -0.239  0.00  0.00    +0.020 A 
ATOM     20  C   LIG    1       -0.288   6.104  -0.186  0.00  0.00    -0.010 A 
ATOM     21  C   LIG    1        0.903   6.618  -0.667  0.00  0.00    +0.040 A 
ATOM     22  C   LIG    1        1.860   5.771  -1.199  0.00  0.00    -0.010 A 
ATOM     23 CL   LIG    1        3.353   6.419  -1.802  0.00  0.00    -0.050 Cl
ATOM     24 CL   LIG    1       -1.486   7.170   0.480  0.00  0.00    -0.050 Cl
ATOM     25  C   LIG    1        1.628   4.409  -1.250  0.00  0.00    +0.050 A 
ENDBRANCH  15  18
ENDBRANCH  13  14
ENDBRANCH  12  13
ENDBRANCH   4  12
BRANCH   5  26
ATOM     26  C   LIG    1        4.091  -3.596   0.050  0.00  0.00    +0.360 C 
BRANCH  26  27
ATOM     27  C   LIG    1        4.412  -3.543   1.521  0.00  0.00    -0.130 A 
ATOM     28  C   LIG    1        4.639  -2.326   2.135  0.00  0.00    +0.040 A 
ATOM     29  C   LIG    1        4.928  -2.277   3.486  0.00  0.00    +0.010 A 
ATOM     30  C   LIG    1        5.000  -3.446   4.221  0.00  0.00    +0.030 A 
ATOM     31  C   LIG    1        4.777  -4.664   3.605  0.00  0.00    +0.010 A 
ATOM     32  C   LIG    1        4.483  -4.712   2.256  0.00  0.00    +0.020 A 
ENDBRANCH  26  27
ENDBRANCH   5  26
TORSDOF 9
