REMARK  Name = ZINCrD000000fn0E.0
REMARK                            x       y       z     vdW  Elec       q    Type
REMARK                         _______ _______ _______ _____ _____    ______ ____
ROOT
ATOM      1  N   LIG    1        2.863   1.401  -1.493  0.00  0.00    -0.590 N 
ATOM      2  C   LIG    1        3.892   2.094  -2.020  0.00  0.00    +0.590 C 
ATOM      3  O   LIG    1        4.484   2.912  -1.343  0.00  0.00    -0.500 OA
ENDROOT
BRANCH   2   4
ATOM      4  C   LIG    1        4.300   1.859  -3.419  0.00  0.00    +0.060 A 
ATOM      5  N   LIG    1        3.784   0.868  -4.104  0.00  0.00    -0.190 NA
ATOM      6  N   LIG    1        4.084   0.597  -5.318  0.00  0.00    -0.370 N 
ATOM      7  C   LIG    1        4.974   1.307  -6.041  0.00  0.00    +0.520 A 
ATOM      8  C   LIG    1        5.637   2.454  -5.405  0.00  0.00    -0.140 A 
ATOM      9  C   LIG    1        6.569   3.249  -6.064  0.00  0.00    +0.080 A 
ATOM     10  C   LIG    1        7.133   4.319  -5.402  0.00  0.00    +0.030 A 
ATOM     11  C   LIG    1        6.794   4.597  -4.084  0.00  0.00    +0.050 A 
ATOM     12  C   LIG    1        5.877   3.816  -3.411  0.00  0.00    +0.080 A 
ATOM     13  O   LIG    1        5.222   1.005  -7.194  0.00  0.00    -0.500 OA
ATOM     14  C   LIG    1        5.287   2.740  -4.064  0.00  0.00    -0.030 A 
BRANCH   6  15
ATOM     15  C   LIG    1        3.425  -0.545  -5.956  0.00  0.00    +0.310 C 
ATOM     16  C   LIG    1        4.334  -1.772  -5.868  0.00  0.00    +0.040 C 
ENDBRANCH   6  15
ENDBRANCH   2   4
BRANCH   1  17
ATOM     17  C   LIG    1        2.104   0.468  -2.329  0.00  0.00    +0.320 C 
BRANCH  17  19
ATOM     18  C   LIG    1        0.953   1.206  -4.352  0.00  0.00    +0.020 C 
ATOM     19  C   LIG    1        1.005   1.212  -3.043  0.00  0.00    -0.060 C 
ENDBRANCH  17  19
ENDBRANCH   1  17
BRANCH   1  20
ATOM     20  C   LIG    1        2.504   1.581  -0.084  0.00  0.00    +0.360 C 
BRANCH  20  21
ATOM     21  C   LIG    1        1.491   2.689   0.038  0.00  0.00    -0.150 A 
ATOM     22  C   LIG    1        0.164   2.390   0.281  0.00  0.00    +0.050 A 
ATOM     23  C   LIG    1       -0.767   3.407   0.388  0.00  0.00    -0.010 A 
ATOM     24  C   LIG    1       -0.369   4.724   0.262  0.00  0.00    +0.040 A 
ATOM     25  C   LIG    1        0.957   5.027   0.019  0.00  0.00    -0.030 A 
ATOM     26  C   LIG    1        1.889   4.009  -0.093  0.00  0.00    +0.120 A 
ATOM     27  F   LIG    1        3.186   4.303  -0.331  0.00  0.00    -0.110 F 
ENDBRANCH  20  21
ENDBRANCH   1  20
TORSDOF 6
