REMARK  Name = ZINCqH0000006lQM.0
REMARK                            x       y       z     vdW  Elec       q    Type
REMARK                         _______ _______ _______ _____ _____    ______ ____
ROOT
ATOM      1  N   LIG    1        1.780  -1.745  -0.187  0.00  0.00    -0.640 N 
ATOM      2  H   LIG    1        2.727  -1.916  -0.072  0.00  0.00    +0.410 HD
ATOM      3  C   LIG    1        0.905  -2.770  -0.190  0.00  0.00    +0.710 C 
ATOM      4  N   LIG    1        1.348  -4.034  -0.033  0.00  0.00    -0.680 N 
ATOM      5  H   LIG    1        2.300  -4.213   0.006  0.00  0.00    +0.410 HD
ATOM      6  O   LIG    1       -0.283  -2.556  -0.335  0.00  0.00    -0.540 OA
ENDROOT
BRANCH   4   7
ATOM      7  C   LIG    1        0.432  -5.088   0.076  0.00  0.00    +0.160 A 
ATOM      8  C   LIG    1        0.753  -6.342  -0.437  0.00  0.00    +0.040 A 
ATOM      9  C   LIG    1       -0.139  -7.388  -0.336  0.00  0.00    +0.070 A 
ATOM     10  C   LIG    1       -1.366  -7.194   0.280  0.00  0.00    -0.010 A 
ATOM     11  O   LIG    1       -2.427  -7.995   0.528  0.00  0.00    -0.210 OA
ATOM     12  C   LIG    1       -3.359  -7.269   1.165  0.00  0.00    +0.290 A 
ATOM     13  N   LIG    1       -2.944  -6.050   1.333  0.00  0.00    -0.470 NA
ATOM     14  C   LIG    1       -1.698  -5.933   0.800  0.00  0.00    +0.050 A 
ATOM     15  C   LIG    1       -0.786  -4.881   0.699  0.00  0.00    +0.090 A 
BRANCH  12  16
ATOM     16  C   LIG    1       -4.696  -7.794   1.621  0.00  0.00    +0.070 C 
ATOM     17  C   LIG    1       -4.935  -9.302   1.518  0.00  0.00    +0.060 C 
ATOM     18  C   LIG    1       -5.639  -8.348   0.551  0.00  0.00    +0.060 C 
ENDBRANCH  12  16
ENDBRANCH   4   7
BRANCH   1  22
ATOM     19  N   LIG    1        1.223   1.756  -0.553  0.00  0.00    -0.360 N 
ATOM     20  C   LIG    1       -0.045   1.306  -0.648  0.00  0.00    +0.250 A 
ATOM     21  C   LIG    1       -0.018  -0.041  -0.527  0.00  0.00    -0.090 A 
ATOM     22  C   LIG    1        1.319  -0.431  -0.351  0.00  0.00    +0.310 A 
ATOM     23  N   LIG    1        2.063   0.650  -0.367  0.00  0.00    -0.320 NA
BRANCH  19  24
ATOM     24  C   LIG    1        1.648   3.155  -0.632  0.00  0.00    +0.280 C 
ATOM     25  C   LIG    1        0.759   3.903  -1.628  0.00  0.00    +0.070 C 
BRANCH  24  26
ATOM     26  C   LIG    1        1.525   3.804   0.749  0.00  0.00    +0.170 C 
BRANCH  26  28
ATOM     27  C   LIG    1        1.980   5.831   1.944  0.00  0.00    +0.200 C 
ATOM     28  O   LIG    1        2.048   5.133   0.699  0.00  0.00    -0.390 OA
ENDBRANCH  26  28
ENDBRANCH  24  26
ENDBRANCH  19  24
ENDBRANCH   1  22
TORSDOF 6
