REMARK  Name = ZINCpe00000FUpW7.0
REMARK                            x       y       z     vdW  Elec       q    Type
REMARK                         _______ _______ _______ _____ _____    ______ ____
ROOT
ATOM      1  C   LIG    1        7.704   0.308  -1.510  0.00  0.00    +0.130 A 
ATOM      2  N   LIG    1        7.602   1.611  -1.502  0.00  0.00    -0.340 NA
ATOM      3  O   LIG    1        6.434   1.938  -1.490  0.00  0.00    +0.110 OA
ATOM      4  C   LIG    1        5.655   0.852  -1.489  0.00  0.00    +0.190 A 
ATOM      5  N   LIG    1        6.447  -0.191  -1.496  0.00  0.00    -0.430 NA
ENDROOT
BRANCH   1   7
ATOM      6  O   LIG    1        8.922  -1.692  -1.531  0.00  0.00    -0.490 OA
ATOM      7  C   LIG    1        8.963  -0.478  -1.526  0.00  0.00    +0.610 C 
ATOM      8  N   LIG    1       10.153   0.156  -1.533  0.00  0.00    -0.710 N 
ATOM      9  H   LIG    1       10.186   1.126  -1.529  0.00  0.00    +0.410 HD
BRANCH   8  10
ATOM     10  C   LIG    1       11.396  -0.619  -1.549  0.00  0.00    +0.340 C 
BRANCH  10  11
ATOM     11  C   LIG    1       12.574   0.321  -1.555  0.00  0.00    -0.130 A 
ATOM     12  C   LIG    1       13.106   0.753  -2.755  0.00  0.00    +0.070 A 
ATOM     13  C   LIG    1       14.183   1.619  -2.762  0.00  0.00    -0.020 A 
ATOM     14  C   LIG    1       14.736   2.045  -1.566  0.00  0.00    +0.110 A 
ATOM     15  C   LIG    1       14.206   1.607  -0.364  0.00  0.00    -0.020 A 
ATOM     16  F   LIG    1       15.793   2.887  -1.571  0.00  0.00    -0.140 F 
ATOM     17  C   LIG    1       13.125   0.746  -0.360  0.00  0.00    +0.070 A 
ENDBRANCH  10  11
ENDBRANCH   8  10
ENDBRANCH   1   7
BRANCH   4  18
ATOM     18  C   LIG    1        4.148   0.831  -1.475  0.00  0.00    +0.190 C 
BRANCH  18  19
ATOM     19  C   LIG    1        3.652   0.817  -0.028  0.00  0.00    +0.320 C 
BRANCH  19  20
ATOM     20  N   LIG    1        2.187   0.797  -0.015  0.00  0.00    -0.580 N 
ATOM     21  C   LIG    1        1.447   1.913  -0.002  0.00  0.00    +0.530 C 
ATOM     22  C   LIG    1       -0.019   1.538   0.011  0.00  0.00    +0.080 C 
ATOM     23  C   LIG    1        0.002  -0.004   0.002  0.00  0.00    +0.080 C 
ATOM     24  O   LIG    1        1.883   3.044   0.000  0.00  0.00    -0.470 OA
ATOM     25  C   LIG    1        1.478  -0.339  -0.014  0.00  0.00    +0.520 C 
ATOM     26  O   LIG    1        1.944  -1.458  -0.024  0.00  0.00    -0.470 OA
ENDBRANCH  19  20
ENDBRANCH  18  19
ENDBRANCH   4  18
TORSDOF 6
