REMARK  Name = ZINCrD00000dWhrt.0
REMARK                            x       y       z     vdW  Elec       q    Type
REMARK                         _______ _______ _______ _____ _____    ______ ____
ROOT
ATOM      1  C   LIG    1       -2.459   1.370   0.136  0.00  0.00    +0.290 C 
ATOM      2  N   LIG    1       -2.442  -0.095   0.128  0.00  0.00    -0.610 N 
ATOM      3  C   LIG    1       -1.304  -0.754  -0.168  0.00  0.00    +0.560 C 
ATOM      4  O   LIG    1       -1.310  -1.966  -0.262  0.00  0.00    -0.530 OA
ENDROOT
BRANCH   3   5
ATOM      5  C   LIG    1       -0.047  -0.002  -0.377  0.00  0.00    -0.110 A 
ATOM      6  C   LIG    1        1.143  -0.505   0.119  0.00  0.00    +0.120 A 
ATOM      7  C   LIG    1        2.334   0.212  -0.081  0.00  0.00    +0.120 A 
ATOM      8  N   LIG    1        3.500  -0.248   0.386  0.00  0.00    -0.470 NA
ATOM      9  C   LIG    1        4.616   0.414   0.204  0.00  0.00    +0.290 A 
ATOM     10  C   LIG    1        4.646   1.626  -0.483  0.00  0.00    -0.030 A 
ATOM     11  C   LIG    1        3.490   2.152  -0.987  0.00  0.00    +0.080 A 
ATOM     12  C   LIG    1        2.293   1.439  -0.789  0.00  0.00    -0.090 A 
ATOM     13  C   LIG    1        1.069   1.923  -1.282  0.00  0.00    +0.040 A 
ATOM     14  C   LIG    1       -0.073   1.216  -1.078  0.00  0.00    +0.040 A 
ENDBRANCH   3   5
BRANCH   2  15
ATOM     15  C   LIG    1       -3.662  -0.843   0.440  0.00  0.00    +0.250 C 
ATOM     16  C   LIG    1       -4.754  -0.482  -0.569  0.00  0.00    +0.010 C 
ATOM     17  C   LIG    1       -6.017  -1.292  -0.260  0.00  0.00    +0.280 C 
ATOM     18  N   LIG    1       -6.393  -1.067   1.143  0.00  0.00    -0.610 N 
ATOM     19  C   LIG    1       -5.387  -1.297   2.189  0.00  0.00    +0.280 C 
ATOM     20  C   LIG    1       -7.636  -0.657   1.463  0.00  0.00    +0.550 C 
ATOM     21  O   LIG    1       -7.933  -0.475   2.625  0.00  0.00    -0.530 OA
ATOM     22  C   LIG    1       -4.131  -0.487   1.852  0.00  0.00    +0.010 C 
BRANCH  20  23
ATOM     23  C   LIG    1       -8.656  -0.425   0.379  0.00  0.00    -0.070 C 
ATOM     24  C   LIG    1       -9.839  -1.392   0.303  0.00  0.00    +0.050 C 
ATOM     25  C   LIG    1      -10.050   0.038   0.808  0.00  0.00    -0.090 C 
ATOM     26  C   LIG    1      -10.786   1.011  -0.115  0.00  0.00    +0.070 C 
ATOM     27  C   LIG    1      -10.301   0.230   2.305  0.00  0.00    +0.080 C 
ENDBRANCH  20  23
ENDBRANCH   2  15
TORSDOF 3
