REMARK  Name = ZINCvU00000006Vr.0
REMARK                            x       y       z     vdW  Elec       q    Type
REMARK                         _______ _______ _______ _____ _____    ______ ____
ROOT
ATOM      1  C   LIG    1       -2.520  -0.406   0.020  0.00  0.00    +0.570 C 
ATOM      2  N   LIG    1       -3.704  -1.043   0.119  0.00  0.00    -0.650 N 
ATOM      3  H   LIG    1       -4.529  -0.534   0.122  0.00  0.00    +0.430 HD
ATOM      4  O   LIG    1       -1.492  -1.047  -0.084  0.00  0.00    -0.500 OA
ENDROOT
BRANCH   1  13
ATOM      5  C   LIG    1       -3.553   3.218   0.060  0.00  0.00    +0.160 A 
ATOM      6  N   LIG    1       -2.402   3.842   0.081  0.00  0.00    -0.450 NA
ATOM      7  C   LIG    1       -1.241   3.181   0.071  0.00  0.00    +0.130 A 
ATOM      8  C   LIG    1       -0.015   3.870   0.078  0.00  0.00    +0.040 A 
ATOM      9  C   LIG    1        1.152   3.171   0.068  0.00  0.00    +0.030 A 
ATOM     10  C   LIG    1        1.155   1.778   0.051  0.00  0.00    +0.020 A 
ATOM     11  C   LIG    1       -0.013   1.077   0.044  0.00  0.00    +0.060 A 
ATOM     12  C   LIG    1       -1.233   1.764   0.049  0.00  0.00    -0.060 A 
ATOM     13  C   LIG    1       -2.471   1.071   0.037  0.00  0.00    -0.080 A 
ATOM     14  C   LIG    1       -3.636   1.828   0.043  0.00  0.00    +0.020 A 
BRANCH   5  16
ATOM     15  C   LIG    1       -5.319   4.212  -1.369  0.00  0.00    +0.050 C 
ATOM     16  C   LIG    1       -4.824   4.027   0.067  0.00  0.00    +0.050 C 
ATOM     17  C   LIG    1       -5.891   3.294   0.883  0.00  0.00    +0.040 C 
ENDBRANCH   5  16
ENDBRANCH   1  13
BRANCH   2  18
ATOM     18  C   LIG    1       -3.742  -2.438   0.217  0.00  0.00    +0.160 A 
ATOM     19  C   LIG    1       -2.744  -3.114   0.904  0.00  0.00    +0.110 A 
ATOM     20  C   LIG    1       -2.787  -4.492   1.005  0.00  0.00    -0.160 A 
ATOM     21  C   LIG    1       -3.816  -5.201   0.413  0.00  0.00    +0.100 A 
ATOM     22  C   LIG    1       -4.811  -4.535  -0.279  0.00  0.00    +0.040 A 
ATOM     23  C   LIG    1       -4.780  -3.153  -0.380  0.00  0.00    +0.150 A 
BRANCH  23  24
ATOM     24  N   LIG    1       -5.788  -2.476  -1.081  0.00  0.00    -0.330 N 
ATOM     25  C   LIG    1       -6.795  -3.030  -1.783  0.00  0.00    +0.510 A 
ATOM     26  N   LIG    1       -7.520  -2.062  -2.285  0.00  0.00    -0.530 NA
ATOM     27  C   LIG    1       -7.011  -0.884  -1.927  0.00  0.00    +0.460 A 
ATOM     28  N   LIG    1       -5.954  -1.085  -1.184  0.00  0.00    -0.340 NA
ENDBRANCH  23  24
BRANCH  20  29
ATOM     29  C   LIG    1       -1.706  -5.224   1.757  0.00  0.00    +0.510 C 
ATOM     30  F   LIG    1       -1.688  -4.792   3.087  0.00  0.00    -0.170 F 
ATOM     31  F   LIG    1       -0.466  -4.961   1.165  0.00  0.00    -0.170 F 
ATOM     32  F   LIG    1       -1.959  -6.599   1.716  0.00  0.00    -0.170 F 
ENDBRANCH  20  29
ENDBRANCH   2  18
TORSDOF 5
