REMARK  Name = ZINCrH00000tj1bj.0
REMARK                            x       y       z     vdW  Elec       q    Type
REMARK                         _______ _______ _______ _____ _____    ______ ____
ROOT
ATOM      1  C   LIG    1       -3.280  -5.562  -1.194  0.00  0.00    +0.100 A 
ATOM      2  C   LIG    1       -1.981  -5.083  -1.203  0.00  0.00    -0.010 A 
ATOM      3  C   LIG    1       -1.322  -4.851  -0.009  0.00  0.00    -0.110 A 
ATOM      4  C   LIG    1       -1.955  -5.100   1.193  0.00  0.00    +0.040 A 
ATOM      5  C   LIG    1       -3.254  -5.574   1.209  0.00  0.00    -0.040 A 
ATOM      6  C   LIG    1       -3.920  -5.808   0.017  0.00  0.00    +0.110 A 
ENDROOT
BRANCH   1   8
ATOM      7  C   LIG    1       -3.212  -5.515  -3.571  0.00  0.00    +0.240 C 
ATOM      8  O   LIG    1       -3.930  -5.791  -2.367  0.00  0.00    -0.300 OA
ENDBRANCH   1   8
BRANCH   3   9
ATOM      9  C   LIG    1        0.092  -4.330  -0.021  0.00  0.00    +0.330 C 
BRANCH   9  10
ATOM     10  N   LIG    1        0.073  -2.865  -0.013  0.00  0.00    -0.720 N 
ATOM     11  H   LIG    1       -0.773  -2.391  -0.003  0.00  0.00    +0.400 HD
ATOM     12  C   LIG    1        1.232  -2.176  -0.021  0.00  0.00    +0.570 C 
ATOM     13  O   LIG    1        2.292  -2.770  -0.034  0.00  0.00    -0.520 OA
BRANCH  12  14
ATOM     14  C   LIG    1        1.213  -0.698  -0.013  0.00  0.00    -0.180 A 
ATOM     15  C   LIG    1        0.002  -0.004   0.002  0.00  0.00    +0.320 A 
ATOM     16  N   LIG    1       -0.016   1.313   0.009  0.00  0.00    -0.470 NA
ATOM     17  C   LIG    1        1.095   2.025   0.003  0.00  0.00    +0.330 A 
ATOM     18  C   LIG    1        2.336   1.412  -0.013  0.00  0.00    -0.160 A 
ATOM     19 BR   LIG    1        3.915   2.453  -0.021  0.00  0.00    -0.020 Br
ATOM     20  C   LIG    1        2.409   0.030  -0.021  0.00  0.00    +0.170 A 
ENDBRANCH  12  14
ENDBRANCH   9  10
ENDBRANCH   3   9
BRANCH   6  21
ATOM     21  O   LIG    1       -5.196  -6.279   0.031  0.00  0.00    -0.300 OA
BRANCH  21  22
ATOM     22  C   LIG    1       -5.789  -6.509   1.310  0.00  0.00    +0.260 C 
BRANCH  22  23
ATOM     23  C   LIG    1       -7.193  -7.026   1.128  0.00  0.00    -0.050 A 
ATOM     24  C   LIG    1       -8.267  -6.152   1.057  0.00  0.00    -0.010 A 
ATOM     25  C   LIG    1       -9.540  -6.662   0.885  0.00  0.00    +0.260 A 
ATOM     26  N   LIG    1       -9.740  -7.962   0.798  0.00  0.00    -0.480 NA
ATOM     27  C   LIG    1       -8.743  -8.823   0.865  0.00  0.00    +0.260 A 
ATOM     28  C   LIG    1       -7.442  -8.386   1.032  0.00  0.00    -0.010 A 
ENDBRANCH  22  23
ENDBRANCH  21  22
ENDBRANCH   6  21
TORSDOF 7
