REMARK  Name = ZINCvU0000000AwW.0
REMARK                            x       y       z     vdW  Elec       q    Type
REMARK                         _______ _______ _______ _____ _____    ______ ____
ROOT
ATOM      1  C   LIG    1       -3.119   7.790   0.361  0.00  0.00    +0.270 A 
ATOM      2  N   LIG    1       -3.422   6.533   0.270  0.00  0.00    -0.470 NA
ATOM      3  C   LIG    1       -2.419   5.679   0.206  0.00  0.00    +0.080 A 
ATOM      4  C   LIG    1       -1.209   6.240   0.250  0.00  0.00    -0.060 A 
ATOM      5  S   LIG    1       -1.420   7.984   0.373  0.00  0.00    +0.150 S 
ENDROOT
BRANCH   1   8
ATOM      6  C   LIG    1       -6.362   9.679   0.506  0.00  0.00    +0.120 C 
ATOM      7  C   LIG    1       -5.358   8.556   0.524  0.00  0.00    +0.510 C 
ATOM      8  N   LIG    1       -4.040   8.829   0.439  0.00  0.00    -0.480 N 
ATOM      9  O   LIG    1       -5.734   7.407   0.617  0.00  0.00    -0.460 OA
BRANCH   8  10
ATOM     10  C   LIG    1       -3.600  10.158   0.428  0.00  0.00    +0.120 A 
ATOM     11  C   LIG    1       -3.899  10.982  -0.649  0.00  0.00    +0.040 A 
ATOM     12  C   LIG    1       -3.463  12.293  -0.657  0.00  0.00    +0.060 A 
ATOM     13  C   LIG    1       -2.730  12.786   0.406  0.00  0.00    +0.050 A 
ATOM     14  C   LIG    1       -2.429  11.968   1.481  0.00  0.00    -0.020 A 
ATOM     15 CL   LIG    1       -1.508  12.591   2.814  0.00  0.00    -0.050 Cl
ATOM     16  C   LIG    1       -2.867  10.657   1.497  0.00  0.00    +0.030 A 
ENDBRANCH   8  10
ENDBRANCH   1   8
BRANCH   3  17
ATOM     17  C   LIG    1       -2.622   4.189   0.099  0.00  0.00    +0.350 C 
BRANCH  17  18
ATOM     18  O   LIG    1       -1.331   3.526   0.049  0.00  0.00    -0.350 OA
BRANCH  18  19
ATOM     19  C   LIG    1       -1.337   2.183  -0.048  0.00  0.00    +0.520 C 
ATOM     20  O   LIG    1       -2.392   1.581  -0.090  0.00  0.00    -0.480 OA
BRANCH  19  21
ATOM     21  C   LIG    1       -0.060   1.441  -0.104  0.00  0.00    -0.070 A 
ATOM     22  C   LIG    1        1.155   2.108  -0.187  0.00  0.00    +0.050 A 
ATOM     23  C   LIG    1        2.339   1.376  -0.243  0.00  0.00    +0.150 A 
ATOM     24  N   LIG    1        2.345   0.067  -0.220  0.00  0.00    -0.450 NA
ATOM     25  C   LIG    1        1.215  -0.641  -0.141  0.00  0.00    +0.130 A 
ATOM     26  C   LIG    1        1.243  -2.048  -0.117  0.00  0.00    +0.050 A 
ATOM     27  C   LIG    1        0.077  -2.745  -0.035  0.00  0.00    +0.030 A 
ATOM     28  C   LIG    1       -1.150  -2.088   0.025  0.00  0.00    +0.020 A 
ATOM     29  C   LIG    1       -1.216  -0.726   0.004  0.00  0.00    +0.050 A 
ATOM     30  C   LIG    1        3.651   2.112  -0.333  0.00  0.00    +0.130 C 
ATOM     31  C   LIG    1       -0.035   0.022  -0.079  0.00  0.00    -0.070 A 
ENDBRANCH  19  21
ENDBRANCH  18  19
ENDBRANCH  17  18
ENDBRANCH   3  17
TORSDOF 6
