REMARK  Name = ZINCqH0000007jCc.0
REMARK                            x       y       z     vdW  Elec       q    Type
REMARK                         _______ _______ _______ _____ _____    ______ ____
ROOT
ATOM      1  N   LIG    1        2.462   1.145  -0.075  0.00  0.00    -0.660 N 
ATOM      2  H   LIG    1        3.304   1.626  -0.100  0.00  0.00    +0.410 HD
ATOM      3  C   LIG    1        2.457  -0.201  -0.005  0.00  0.00    +0.600 C 
ATOM      4  O   LIG    1        1.406  -0.809  -0.061  0.00  0.00    -0.530 OA
ENDROOT
BRANCH   1   8
ATOM      5  C   LIG    1       -1.146   3.241  -0.182  0.00  0.00    +0.150 A 
ATOM      6  C   LIG    1       -1.044   2.000  -0.793  0.00  0.00    -0.100 A 
ATOM      7  C   LIG    1        0.149   1.303  -0.753  0.00  0.00    +0.110 A 
ATOM      8  C   LIG    1        1.250   1.849  -0.111  0.00  0.00    +0.080 A 
ATOM      9  C   LIG    1        1.151   3.099   0.498  0.00  0.00    +0.140 A 
ATOM     10  C   LIG    1       -0.048   3.791   0.461  0.00  0.00    -0.090 A 
BRANCH   5  12
ATOM     11  C   LIG    1       -3.413   3.296  -0.898  0.00  0.00    +0.250 C 
ATOM     12  O   LIG    1       -2.323   3.921  -0.219  0.00  0.00    -0.320 OA
ENDBRANCH   5  12
BRANCH   9  13
ATOM     13  O   LIG    1        2.229   3.636   1.129  0.00  0.00    -0.310 OA
ATOM     14  C   LIG    1        2.055   4.920   1.731  0.00  0.00    +0.250 C 
ENDBRANCH   9  13
ENDBRANCH   1   8
BRANCH   3  15
ATOM     15  C   LIG    1        3.727  -0.936   0.140  0.00  0.00    -0.300 A 
ATOM     16  C   LIG    1        3.875  -2.306   0.229  0.00  0.00    +0.170 A 
ATOM     17  N   LIG    1        5.191  -2.561   0.346  0.00  0.00    -0.310 N 
ATOM     18  N   LIG    1        5.880  -1.343   0.341  0.00  0.00    -0.290 NA
ATOM     19  C   LIG    1        2.768  -3.328   0.198  0.00  0.00    +0.180 C 
ATOM     20  C   LIG    1        5.020  -0.370   0.218  0.00  0.00    +0.290 A 
BRANCH  17  21
ATOM     21  C   LIG    1        5.773  -3.831   0.461  0.00  0.00    +0.130 A 
ATOM     22  C   LIG    1        6.810  -4.043   1.359  0.00  0.00    +0.030 A 
ATOM     23  C   LIG    1        7.377  -5.297   1.474  0.00  0.00    +0.030 A 
ATOM     24  C   LIG    1        6.921  -6.338   0.686  0.00  0.00    -0.080 A 
ATOM     25  C   LIG    1        5.892  -6.129  -0.213  0.00  0.00    +0.040 A 
ATOM     26  C   LIG    1        7.547  -7.704   0.809  0.00  0.00    +0.100 C 
ATOM     27  C   LIG    1        5.317  -4.879  -0.328  0.00  0.00    +0.010 A 
ENDBRANCH  17  21
ENDBRANCH   3  15
TORSDOF 5
