REMARK  Name = ZINCqH0000037LeF.0
REMARK                            x       y       z     vdW  Elec       q    Type
REMARK                         _______ _______ _______ _____ _____    ______ ____
ROOT
ATOM      1  C   LIG    1       -4.469   0.928   1.476  0.00  0.00    +0.590 C 
ATOM      2  N   LIG    1       -3.472   1.641   0.915  0.00  0.00    -0.730 N 
ATOM      3  H   LIG    1       -3.387   2.588   1.105  0.00  0.00    +0.390 HD
ATOM      4  O   LIG    1       -4.576  -0.260   1.238  0.00  0.00    -0.520 OA
ENDROOT
BRANCH   1  11
ATOM      5  C   LIG    1       -8.501   5.500   5.740  0.00  0.00    +0.090 C 
ATOM      6  C   LIG    1       -8.016   4.256   5.042  0.00  0.00    -0.040 A 
ATOM      7  C   LIG    1       -8.689   3.055   5.228  0.00  0.00    -0.020 A 
ATOM      8  C   LIG    1       -8.267   1.917   4.605  0.00  0.00    -0.020 A 
ATOM      9  C   LIG    1       -7.145   1.957   3.768  0.00  0.00    -0.130 A 
ATOM     10  C   LIG    1       -6.474   0.979   2.993  0.00  0.00    +0.070 A 
ATOM     11  C   LIG    1       -5.428   1.587   2.375  0.00  0.00    +0.000 A 
ATOM     12  N   LIG    1       -5.413   2.925   2.721  0.00  0.00    -0.580 N 
ATOM     13  H   LIG    1       -4.769   3.581   2.412  0.00  0.00    +0.420 HD
ATOM     14  C   LIG    1       -6.460   3.173   3.577  0.00  0.00    +0.130 A 
ATOM     15  C   LIG    1       -9.007   0.621   4.816  0.00  0.00    +0.090 C 
ATOM     16  C   LIG    1       -6.910   4.320   4.224  0.00  0.00    -0.030 A 
ENDBRANCH   1  11
BRANCH   2  17
ATOM     17  C   LIG    1       -2.517   0.984   0.019  0.00  0.00    +0.290 C 
ATOM     18  C   LIG    1       -3.090   0.948  -1.399  0.00  0.00    +0.040 C 
BRANCH  17  19
ATOM     19  C   LIG    1       -1.220   1.752   0.017  0.00  0.00    -0.110 A 
ATOM     20  C   LIG    1       -1.234   3.135   0.029  0.00  0.00    +0.050 A 
ATOM     21  C   LIG    1       -0.050   3.844   0.022  0.00  0.00    +0.000 A 
ATOM     22  C   LIG    1        1.169   3.170   0.007  0.00  0.00    +0.150 A 
ATOM     23  N   LIG    1        2.478   3.653  -0.002  0.00  0.00    -0.660 N 
ATOM     24  H   LIG    1        2.707   4.596   0.001  0.00  0.00    +0.410 HD
ATOM     25  C   LIG    1        3.386   2.662  -0.015  0.00  0.00    +0.530 C 
ATOM     26  C   LIG    1        2.620   1.356  -0.014  0.00  0.00    +0.140 C 
ATOM     27  O   LIG    1        4.592   2.790  -0.025  0.00  0.00    -0.500 OA
ATOM     28  C   LIG    1        1.169   1.781   0.001  0.00  0.00    -0.140 A 
ATOM     29  C   LIG    1       -0.013   1.076   0.008  0.00  0.00    +0.090 A 
ENDBRANCH  17  19
ENDBRANCH   2  17
TORSDOF 3
