REMARK  Name = ZINCpk00000xIepv.0
REMARK                            x       y       z     vdW  Elec       q    Type
REMARK                         _______ _______ _______ _____ _____    ______ ____
ROOT
ATOM      1  C   LIG    1       -4.110   2.209   6.572  0.00  0.00    -0.450 A 
ATOM      2  C   LIG    1       -4.248   1.207   7.548  0.00  0.00    +0.560 A 
ATOM      3  N   LIG    1       -4.596   1.566   8.819  0.00  0.00    -0.520 N 
ATOM      4  C   LIG    1       -4.818   2.849   9.145  0.00  0.00    +0.710 A 
ATOM      5  N   LIG    1       -4.707   3.848   8.255  0.00  0.00    -0.660 N 
ATOM      6  H   LIG    1       -4.876   4.761   8.536  0.00  0.00    +0.440 HD
ATOM      7  O   LIG    1       -5.130   3.116  10.289  0.00  0.00    -0.520 OA
ATOM      8  C   LIG    1       -4.362   3.599   6.974  0.00  0.00    +0.580 A 
ATOM      9  O   LIG    1       -4.262   4.507   6.170  0.00  0.00    -0.500 OA
ENDROOT
BRANCH   3  10
ATOM     10  C   LIG    1       -4.736   0.530   9.844  0.00  0.00    +0.170 C 
ATOM     11  C   LIG    1       -4.062   0.777  11.195  0.00  0.00    +0.100 C 
ATOM     12  C   LIG    1       -3.483  -0.259  10.228  0.00  0.00    +0.060 C 
ENDBRANCH   3  10
BRANCH   2  13
ATOM     13  N   LIG    1       -4.032  -0.099   7.233  0.00  0.00    -0.800 N 
ATOM     14  H   LIG    1       -4.477  -0.799   7.736  0.00  0.00    +0.410 HD
ATOM     15  H   LIG    1       -3.434  -0.330   6.505  0.00  0.00    +0.440 HD
ENDBRANCH   2  13
BRANCH   1  16
ATOM     16  C   LIG    1       -3.746   1.890   5.246  0.00  0.00    +0.440 C 
ATOM     17  O   LIG    1       -3.428   0.753   4.961  0.00  0.00    -0.500 OA
BRANCH  16  18
ATOM     18  C   LIG    1       -3.753   2.959   4.184  0.00  0.00    +0.290 C 
BRANCH  18  19
ATOM     19  N   LIG    1       -3.341   2.379   2.904  0.00  0.00    -0.730 N 
ATOM     20  H   LIG    1       -3.116   1.437   2.848  0.00  0.00    +0.410 HD
BRANCH  19  27
ATOM     21  C   LIG    1       -2.878   2.634   0.542  0.00  0.00    +0.060 A 
ATOM     22  C   LIG    1       -2.804   3.435  -0.584  0.00  0.00    -0.010 A 
ATOM     23  C   LIG    1       -3.129   4.777  -0.501  0.00  0.00    +0.000 A 
ATOM     24  C   LIG    1       -3.518   5.325   0.708  0.00  0.00    -0.020 A 
ATOM     25  C   LIG    1       -3.590   4.531   1.839  0.00  0.00    -0.020 A 
ATOM     26 CL   LIG    1       -3.919   7.011   0.806  0.00  0.00    -0.070 Cl
ATOM     27  C   LIG    1       -3.270   3.184   1.761  0.00  0.00    +0.210 A 
BRANCH  21  29
ATOM     28  C   LIG    1       -2.170   0.818  -0.821  0.00  0.00    +0.240 C 
ATOM     29  O   LIG    1       -2.563   1.313   0.461  0.00  0.00    -0.320 OA
ENDBRANCH  21  29
ENDBRANCH  19  27
ENDBRANCH  18  19
ENDBRANCH  16  18
ENDBRANCH   1  16
TORSDOF 7
