REMARK  Name = ZINCrD00000hQ6l0.0
REMARK                            x       y       z     vdW  Elec       q    Type
REMARK                         _______ _______ _______ _____ _____    ______ ____
ROOT
ATOM      1  N   LIG    1        1.128  -1.854   2.983  0.00  0.00    -0.740 N 
ATOM      2  H   LIG    1        2.034  -1.522   3.084  0.00  0.00    +0.390 HD
ATOM      3  C   LIG    1        0.332  -1.357   2.016  0.00  0.00    +0.710 C 
ATOM      4  N   LIG    1        0.824  -0.472   1.126  0.00  0.00    -0.630 N 
ATOM      5  C   LIG    1        0.004  -0.008  -0.001  0.00  0.00    +0.300 C 
ATOM      6  C   LIG    1       -0.021   1.524   0.006  0.00  0.00    +0.030 C 
ATOM      7  C   LIG    1        1.414   2.054  -0.002  0.00  0.00    +0.250 C 
ATOM      8  C   LIG    1        2.142   1.578   1.257  0.00  0.00    +0.010 C 
ATOM      9  C   LIG    1        2.192   0.046   1.265  0.00  0.00    +0.270 C 
ATOM     10  O   LIG    1       -0.831  -1.706   1.946  0.00  0.00    -0.590 OA
ENDROOT
BRANCH   7  11
ATOM     11  N   LIG    1        1.394   3.519  -0.029  0.00  0.00    -0.710 N 
ATOM     12  H   LIG    1        0.625   3.999   0.316  0.00  0.00    +0.410 HD
BRANCH  11  13
ATOM     13  C   LIG    1        2.476   4.219  -0.549  0.00  0.00    +0.340 A 
ATOM     14  C   LIG    1        3.585   3.532  -1.041  0.00  0.00    -0.040 A 
ATOM     15  C   LIG    1        4.635   4.276  -1.554  0.00  0.00    +0.070 A 
ATOM     16  C   LIG    1        4.524   5.660  -1.537  0.00  0.00    +0.150 A 
ATOM     17  N   LIG    1        3.440   6.228  -1.048  0.00  0.00    -0.200 NA
ATOM     18  N   LIG    1        2.461   5.544  -0.576  0.00  0.00    -0.310 NA
ENDBRANCH  11  13
ENDBRANCH   7  11
BRANCH   1  19
ATOM     19  C   LIG    1        0.625  -2.896   3.881  0.00  0.00    +0.290 C 
BRANCH  19  21
ATOM     20  C   LIG    1        2.939  -3.808   4.119  0.00  0.00    +0.030 C 
ATOM     21  C   LIG    1        1.720  -3.281   4.879  0.00  0.00    -0.070 C 
ATOM     22  C   LIG    1        2.120  -2.052   5.697  0.00  0.00    +0.030 C 
BRANCH  21  23
ATOM     23  C   LIG    1        1.195  -4.370   5.817  0.00  0.00    +0.090 C 
BRANCH  23  24
ATOM     24  C   LIG    1        2.273  -4.749   6.799  0.00  0.00    -0.080 A 
ATOM     25  C   LIG    1        3.156  -5.768   6.496  0.00  0.00    +0.000 A 
ATOM     26  C   LIG    1        4.148  -6.113   7.395  0.00  0.00    +0.000 A 
ATOM     27  C   LIG    1        4.250  -5.446   8.601  0.00  0.00    +0.000 A 
ATOM     28  C   LIG    1        3.364  -4.430   8.907  0.00  0.00    +0.000 A 
ATOM     29  C   LIG    1        2.375  -4.082   8.005  0.00  0.00    +0.000 A 
ENDBRANCH  23  24
ENDBRANCH  21  23
ENDBRANCH  19  21
ENDBRANCH   1  19
TORSDOF 6
