REMARK  Name = ZINCrH000004sIP7.0
REMARK                            x       y       z     vdW  Elec       q    Type
REMARK                         _______ _______ _______ _____ _____    ______ ____
ROOT
ATOM      1  N   LIG    1        1.387  -2.057  -0.034  0.00  0.00    -0.490 N 
ATOM      2  C   LIG    1        2.777  -2.519  -0.146  0.00  0.00    +0.210 C 
ATOM      3  C   LIG    1        2.799  -4.042  -0.293  0.00  0.00    +0.040 C 
ATOM      4  C   LIG    1        2.126  -4.678   0.927  0.00  0.00    +0.240 C 
ATOM      5  C   LIG    1        0.697  -4.143   1.048  0.00  0.00    +0.040 C 
ATOM      6  C   LIG    1        0.735  -2.617   1.156  0.00  0.00    +0.210 C 
ENDROOT
BRANCH   1  15
ATOM      7  C   LIG    1       -1.703  -1.864  -0.428  0.00  0.00    +0.160 C 
ATOM      8  C   LIG    1       -1.242  -0.431  -0.357  0.00  0.00    +0.120 A 
ATOM      9  N   LIG    1       -2.006   0.619  -0.446  0.00  0.00    -0.250 NA
ATOM     10  N   LIG    1       -1.230   1.779  -0.337  0.00  0.00    -0.390 N 
ATOM     11  C   LIG    1        0.077   1.406  -0.173  0.00  0.00    +0.330 A 
ATOM     12  N   LIG    1        1.208   2.086  -0.023  0.00  0.00    -0.520 NA
ATOM     13  C   LIG    1        2.368   1.480   0.120  0.00  0.00    +0.360 A 
ATOM     14  C   LIG    1        2.470   0.100   0.122  0.00  0.00    -0.130 A 
ATOM     15  C   LIG    1        1.323  -0.670  -0.031  0.00  0.00    +0.230 A 
ATOM     16  C   LIG    1       -1.730   3.155  -0.390  0.00  0.00    +0.360 C 
ATOM     17  C   LIG    1        0.093  -0.000  -0.182  0.00  0.00    -0.230 A 
ENDBRANCH   1  15
BRANCH   4  18
ATOM     18  N   LIG    1        2.093  -6.133   0.766  0.00  0.00    -0.480 N 
ATOM     19  C   LIG    1        1.478  -6.830  -0.256  0.00  0.00    +0.050 A 
ATOM     20  C   LIG    1        0.750  -6.458  -1.377  0.00  0.00    +0.010 A 
ATOM     21  C   LIG    1        0.259  -7.428  -2.225  0.00  0.00    +0.030 A 
ATOM     22  C   LIG    1        0.487  -8.772  -1.964  0.00  0.00    +0.000 A 
ATOM     23  C   LIG    1        1.202  -9.156  -0.864  0.00  0.00    +0.060 A 
ATOM     24  C   LIG    1        1.709  -8.190   0.009  0.00  0.00    +0.050 A 
ATOM     25  N   LIG    1        2.438  -8.253   1.153  0.00  0.00    -0.490 NA
ATOM     26  C   LIG    1        2.666  -7.050   1.592  0.00  0.00    +0.280 A 
ATOM     27  C   LIG    1        3.449  -6.719   2.837  0.00  0.00    +0.190 C 
ENDBRANCH   4  18
TORSDOF 2
