REMARK  Name = ZINCvU00000008u8.0
REMARK                            x       y       z     vdW  Elec       q    Type
REMARK                         _______ _______ _______ _____ _____    ______ ____
ROOT
ATOM      1  C   LIG    1       -0.133   7.485  -2.779  0.00  0.00    +0.170 A 
ATOM      2  N   LIG    1        1.115   7.863  -2.612  0.00  0.00    -0.280 NA
ATOM      3  N   LIG    1        1.470   8.651  -3.563  0.00  0.00    -0.260 NA
ATOM      4  C   LIG    1        0.472   8.825  -4.398  0.00  0.00    +0.240 A 
ATOM      5  N   LIG    1       -0.586   8.079  -3.925  0.00  0.00    -0.410 N 
ENDROOT
BRANCH   5   6
ATOM      6  C   LIG    1       -1.859   7.957  -4.497  0.00  0.00    +0.090 A 
ATOM      7  C   LIG    1       -2.869   8.841  -4.142  0.00  0.00    +0.030 A 
ATOM      8  C   LIG    1       -4.123   8.718  -4.707  0.00  0.00    +0.030 A 
ATOM      9  C   LIG    1       -4.374   7.715  -5.625  0.00  0.00    +0.050 A 
ATOM     10  C   LIG    1       -3.370   6.833  -5.981  0.00  0.00    +0.030 A 
ATOM     11  C   LIG    1       -2.113   6.954  -5.423  0.00  0.00    -0.050 A 
ATOM     12  C   LIG    1       -1.018   5.996  -5.816  0.00  0.00    +0.100 C 
ENDBRANCH   5   6
BRANCH   4  13
ATOM     13  C   LIG    1        0.482   9.660  -5.618  0.00  0.00    -0.070 A 
ATOM     14  C   LIG    1        1.691  10.110  -6.162  0.00  0.00    +0.120 A 
ATOM     15  C   LIG    1        1.646  10.888  -7.306  0.00  0.00    -0.020 A 
ATOM     16  C   LIG    1        0.420  11.193  -7.870  0.00  0.00    +0.270 A 
ATOM     17  N   LIG    1       -0.704  10.754  -7.335  0.00  0.00    -0.480 NA
ATOM     18  C   LIG    1       -0.713  10.007  -6.250  0.00  0.00    +0.280 A 
ENDBRANCH   4  13
BRANCH   1  19
ATOM     19  S   LIG    1       -1.048   6.408  -1.727  0.00  0.00    +0.020 S 
BRANCH  19  20
ATOM     20  C   LIG    1        0.207   6.051  -0.473  0.00  0.00    +0.160 C 
BRANCH  20  24
ATOM     21  C   LIG    1       -1.432   3.412   2.466  0.00  0.00    +0.120 A 
ATOM     22  C   LIG    1       -1.532   4.783   2.630  0.00  0.00    -0.030 A 
ATOM     23  C   LIG    1       -1.002   5.634   1.677  0.00  0.00    -0.060 A 
ATOM     24  C   LIG    1       -0.368   5.119   0.562  0.00  0.00    -0.090 A 
ATOM     25  C   LIG    1       -0.259   3.750   0.395  0.00  0.00    -0.010 A 
ATOM     26  C   LIG    1       -1.117   7.126   1.854  0.00  0.00    +0.100 C 
ATOM     27  C   LIG    1       -0.787   2.893   1.346  0.00  0.00    +0.100 A 
BRANCH  21  29
ATOM     28  C   LIG    1       -2.604   3.176   4.522  0.00  0.00    +0.240 C 
ATOM     29  O   LIG    1       -1.957   2.574   3.399  0.00  0.00    -0.300 OA
ENDBRANCH  21  29
BRANCH  27  30
ATOM     30  O   LIG    1       -0.682   1.547   1.184  0.00  0.00    -0.300 OA
ATOM     31  C   LIG    1       -0.013   1.086   0.008  0.00  0.00    +0.240 C 
ENDBRANCH  27  30
ENDBRANCH  20  24
ENDBRANCH  19  20
ENDBRANCH   1  19
TORSDOF 7
