REMARK  Name = ZINCrH000004tVMi.0
REMARK                            x       y       z     vdW  Elec       q    Type
REMARK                         _______ _______ _______ _____ _____    ______ ____
ROOT
ATOM      1  O   LIG    1        1.741   7.073   4.596  0.00  0.00    -0.530 OA
ATOM      2  C   LIG    1        1.473   5.909   4.387  0.00  0.00    +0.520 C 
ATOM      3  N   LIG    1        2.304   5.149   3.646  0.00  0.00    -0.620 N 
ATOM      4  C   LIG    1        3.540   5.711   3.082  0.00  0.00    +0.300 C 
ATOM      5  C   LIG    1        3.583   5.389   1.584  0.00  0.00    +0.170 C 
ATOM      6  N   LIG    1        3.415   3.943   1.393  0.00  0.00    -0.530 NA
ATOM      7  C   LIG    1        2.101   3.491   1.870  0.00  0.00    +0.170 C 
ATOM      8  C   LIG    1        1.998   3.735   3.379  0.00  0.00    +0.280 C 
ENDROOT
BRANCH   6   9
ATOM      9  C   LIG    1        3.621   3.570  -0.013  0.00  0.00    +0.230 C 
BRANCH   9  10
ATOM     10  C   LIG    1        5.095   3.591  -0.328  0.00  0.00    -0.070 A 
ATOM     11  C   LIG    1        5.625   4.608  -1.061  0.00  0.00    +0.030 A 
ATOM     12  C   LIG    1        6.986   4.643  -1.362  0.00  0.00    +0.010 A 
ATOM     13  C   LIG    1        7.827   3.662  -0.931  0.00  0.00    +0.050 A 
ATOM     14  C   LIG    1        7.316   2.598  -0.172  0.00  0.00    -0.110 A 
ATOM     15  C   LIG    1        8.133   1.558   0.299  0.00  0.00    +0.300 A 
ATOM     16  N   LIG    1        7.610   0.583   1.005  0.00  0.00    -0.490 NA
ATOM     17  C   LIG    1        6.319   0.526   1.304  0.00  0.00    +0.220 A 
ATOM     18  C   LIG    1        5.443   1.485   0.894  0.00  0.00    +0.000 A 
ATOM     19  C   LIG    1        5.930   2.563   0.133  0.00  0.00    -0.000 A 
ENDBRANCH   9  10
ENDBRANCH   6   9
BRANCH   2  20
ATOM     20  C   LIG    1        0.211   5.312   4.955  0.00  0.00    +0.120 C 
BRANCH  20  21
ATOM     21  C   LIG    1       -0.533   6.364   5.737  0.00  0.00    -0.070 A 
ATOM     22  C   LIG    1       -0.284   6.526   7.087  0.00  0.00    +0.040 A 
ATOM     23  C   LIG    1       -0.963   7.493   7.803  0.00  0.00    +0.020 A 
ATOM     24  C   LIG    1       -1.901   8.291   7.172  0.00  0.00    -0.030 A 
ATOM     25  C   LIG    1       -2.154   8.124   5.822  0.00  0.00    +0.020 A 
ATOM     26 CL   LIG    1       -2.760   9.501   8.073  0.00  0.00    -0.070 Cl
ATOM     27  C   LIG    1       -1.470   7.160   5.105  0.00  0.00    +0.040 A 
ENDBRANCH  20  21
ENDBRANCH   2  20
TORSDOF 4
