REMARK  Name = ZINCnE000001ORNd.0
REMARK                            x       y       z     vdW  Elec       q    Type
REMARK                         _______ _______ _______ _____ _____    ______ ____
ROOT
ATOM      1  C   UNK A  0       -0.199   1.571   5.016  0.00  0.00    +0.140 C 
ATOM      2  C   UNK A  0       -0.891   1.611   3.678  0.00  0.00    +0.170 A 
ATOM      3  C   UNK A  0       -0.242   1.109   2.559  0.00  0.00    -0.050 A 
ATOM      4  C   UNK A  0       -0.864   1.143   1.344  0.00  0.00    +0.020 A 
ATOM      5  C   UNK A  0       -2.164   1.698   1.256  0.00  0.00    -0.130 A 
ATOM      6  C   UNK A  0       -2.757   2.180   2.432  0.00  0.00    +0.070 A 
ATOM      7  S   UNK A  0       -4.361   2.805   2.063  0.00  0.00    +0.170 S 
ATOM      8  C   UNK A  0       -4.179   2.412   0.362  0.00  0.00    -0.220 A 
ATOM      9  C   UNK A  0       -2.991   1.845   0.133  0.00  0.00    -0.010 A 
ATOM     10  C   UNK A  0       -2.567   1.394  -1.242  0.00  0.00    +0.140 C 
ATOM     11  C   UNK A  0       -0.177   0.604   0.116  0.00  0.00    +0.110 C 
ATOM     12  N   UNK A  0       -2.098   2.119   3.590  0.00  0.00    -0.460 NA
ENDROOT
BRANCH   8  13
ATOM     13  C   UNK A  0       -5.198   2.662  -0.667  0.00  0.00    +0.580 C 
ATOM     14  N   LEU A  1       -6.368   3.242  -0.330  0.00  0.00    -0.680 N 
ATOM     15  H   LEU A  1       -6.537   3.494   0.591  0.00  0.00    +0.390 HD
ATOM     16  O   UNK A  0       -4.987   2.346  -1.822  0.00  0.00    -0.520 OA
BRANCH  14  17
ATOM     17  CA  LEU A  1       -7.384   3.491  -1.355  0.00  0.00    +0.170 C 
BRANCH  17  18
ATOM     18  C   LEU A  1       -7.096   4.803  -2.039  0.00  0.00    +0.490 C 
ATOM     19  OXT LEU A  1       -6.544   5.701  -1.427  0.00  0.00    -0.690 OA
ATOM     20  O   LEU A  1       -7.416   4.966  -3.204  0.00  0.00    -0.690 OA
ENDBRANCH  17  18
BRANCH  17  21
ATOM     21  CB  LEU A  1       -8.765   3.549  -0.701  0.00  0.00    +0.030 C 
BRANCH  21  22
ATOM     22  CG  LEU A  1       -9.110   2.179  -0.114  0.00  0.00    -0.030 C 
ATOM     23  CD2 LEU A  1       -9.241   1.158  -1.246  0.00  0.00    +0.010 C 
ATOM     24  CD1 LEU A  1      -10.434   2.268   0.647  0.00  0.00    +0.010 C 
ENDBRANCH  21  22
ENDBRANCH  17  21
ENDBRANCH  14  17
ENDBRANCH   8  13
TORSDOF 5
