REMARK  Name = ZINCkj000005hSTx.1
REMARK                            x       y       z     vdW  Elec       q    Type
REMARK                         _______ _______ _______ _____ _____    ______ ____
ROOT
ATOM      1  C   LIG    1        2.033   1.648   1.247  0.00  0.00    +0.360 C 
ENDROOT
BRANCH   1   4
ATOM      2  C   LIG    1        5.233   3.480   1.513  0.00  0.00    -0.030 A 
ATOM      3  C   LIG    1        3.870   3.412   1.717  0.00  0.00    +0.080 A 
ATOM      4  C   LIG    1        3.447   2.170   1.236  0.00  0.00    -0.260 A 
ATOM      5  C   LIG    1        4.536   1.515   0.764  0.00  0.00    +0.260 A 
ATOM      6  N   LIG    1        5.622   2.300   0.921  0.00  0.00    -0.400 N 
ATOM      7  C   LIG    1        6.991   1.951   0.532  0.00  0.00    +0.350 C 
BRANCH   2   8
ATOM      8  C   LIG    1        6.106   4.604   1.863  0.00  0.00    +0.530 C 
ATOM      9  O   LIG    1        5.639   5.598   2.385  0.00  0.00    -0.490 OA
BRANCH   8  11
ATOM     10  C   LIG    1        8.233   5.685   1.979  0.00  0.00    +0.290 C 
ATOM     11  O   LIG    1        7.429   4.535   1.605  0.00  0.00    -0.360 OA
ENDBRANCH   8  11
ENDBRANCH   2   8
ENDBRANCH   1   4
BRANCH   1  12
ATOM     12  N   LIG    1        1.359   2.034   0.000  0.00  0.00    -0.500 N 
ATOM     13  H   LIG    1        1.346   3.040  -0.077  0.00  0.00    +0.430 HD
ATOM     14  H   LIG    1        1.856   1.643  -0.786  0.00  0.00    +0.430 HD
BRANCH  12  15
ATOM     15  C   LIG    1       -0.019   1.526   0.010  0.00  0.00    +0.280 C 
ATOM     16  C   LIG    1        0.002  -0.004   0.002  0.00  0.00    +0.100 C 
BRANCH  15  17
ATOM     17  C   LIG    1       -0.748   2.025  -1.210  0.00  0.00    +0.120 A 
ATOM     18  N   LIG    1       -0.274   2.038  -2.426  0.00  0.00    -0.470 NA
ATOM     19  C   LIG    1       -1.198   2.547  -3.255  0.00  0.00    +0.180 A 
ATOM     20  C   LIG    1       -2.281   2.869  -2.524  0.00  0.00    +0.180 A 
ATOM     21  N   LIG    1       -1.996   2.538  -1.226  0.00  0.00    -0.440 N 
ATOM     22  C   LIG    1       -2.881   2.709  -0.071  0.00  0.00    +0.340 C 
ENDBRANCH  15  17
ENDBRANCH  12  15
ENDBRANCH   1  12
TORSDOF 6
