REMARK  Name = ZINCqH00000029Wl.0
REMARK                            x       y       z     vdW  Elec       q    Type
REMARK                         _______ _______ _______ _____ _____    ______ ____
ROOT
ATOM      1  C   LIG    1       -1.791   0.976   5.887  0.00  0.00    +0.530 C 
ATOM      2  N   LIG    1       -2.938   1.682   5.905  0.00  0.00    -0.730 N 
ATOM      3  H   LIG    1       -3.395   1.887   5.074  0.00  0.00    +0.400 HD
ATOM      4  O   LIG    1       -1.220   0.719   6.926  0.00  0.00    -0.520 OA
ENDROOT
BRANCH   1  10
ATOM      5  C   LIG    1       -0.718   1.572   1.248  0.00  0.00    +0.510 C 
ATOM      6  N   LIG    1       -0.242   1.246   2.466  0.00  0.00    -0.610 N 
ATOM      7  C   LIG    1        0.964   0.418   2.601  0.00  0.00    +0.260 C 
ATOM      8  C   LIG    1        0.644  -0.777   3.505  0.00  0.00    +0.010 C 
ATOM      9  C   LIG    1        0.078  -0.269   4.833  0.00  0.00    +0.050 C 
ATOM     10  C   LIG    1       -1.218   0.504   4.575  0.00  0.00    -0.020 C 
ATOM     11  C   LIG    1       -0.915   1.717   3.684  0.00  0.00    +0.300 C 
ATOM     12  O   LIG    1       -1.714   2.256   1.150  0.00  0.00    -0.540 OA
BRANCH   5  14
ATOM     13  C   LIG    1       -0.753   1.593  -1.232  0.00  0.00    +0.040 C 
ATOM     14  C   LIG    1       -0.013   1.086   0.008  0.00  0.00    +0.040 C 
ENDBRANCH   5  14
ENDBRANCH   1  10
BRANCH   2  15
ATOM     15  C   LIG    1       -3.496   2.141   7.180  0.00  0.00    +0.380 C 
BRANCH  15  16
ATOM     16  C   LIG    1       -4.983   2.335   7.037  0.00  0.00    -0.110 A 
ATOM     17  C   LIG    1       -5.499   2.897   5.884  0.00  0.00    +0.050 A 
ATOM     18  C   LIG    1       -6.863   3.071   5.750  0.00  0.00    -0.010 A 
ATOM     19  C   LIG    1       -7.713   2.692   6.776  0.00  0.00    +0.110 A 
ATOM     20  C   LIG    1       -7.195   2.134   7.932  0.00  0.00    -0.010 A 
ATOM     21  F   LIG    1       -9.047   2.866   6.647  0.00  0.00    -0.140 F 
ATOM     22  C   LIG    1       -5.831   1.956   8.062  0.00  0.00    +0.070 A 
ENDBRANCH  15  16
BRANCH  15  23
ATOM     23  C   LIG    1       -2.853   3.448   7.568  0.00  0.00    -0.190 A 
ATOM     24  C   LIG    1       -2.492   3.790   8.805  0.00  0.00    +0.020 A 
ATOM     25  C   LIG    1       -1.917   5.044   8.920  0.00  0.00    +0.010 A 
ATOM     26  C   LIG    1       -1.819   5.723   7.776  0.00  0.00    -0.050 A 
ATOM     27  S   LIG    1       -2.472   4.759   6.459  0.00  0.00    +0.110 S 
ENDBRANCH  15  23
ENDBRANCH   2  15
TORSDOF 5
