REMARK  Name = ZINCnE000001TDSq.0
REMARK                            x       y       z     vdW  Elec       q    Type
REMARK                         _______ _______ _______ _____ _____    ______ ____
ROOT
ATOM      1  N   LIG    1        5.288   2.429   1.348  0.00  0.00    -1.120 NA
ATOM      2  H   LIG    1        4.698   2.660   2.082  0.00  0.00    +0.420 HD
ENDROOT
BRANCH   1   3
ATOM      3  S   LIG    1        6.860   2.007   1.651  0.00  0.00    +2.730 S 
ATOM      4  O   LIG    1        7.101   0.809   0.926  0.00  0.00    -0.950 OA
ATOM      5  O   LIG    1        7.041   2.114   3.057  0.00  0.00    -0.950 OA
BRANCH   3   9
ATOM      6  C   LIG    1        9.120   5.186   0.708  0.00  0.00    -0.180 A 
ATOM      7  C   LIG    1        9.309   4.678  -0.543  0.00  0.00    +0.000 A 
ATOM      8  S   LIG    1        8.501   3.188  -0.718  0.00  0.00    +0.200 S 
ATOM      9  C   LIG    1        7.881   3.244   0.922  0.00  0.00    -0.830 A 
ATOM     10  C   LIG    1        8.293   4.343   1.541  0.00  0.00    +0.220 A 
BRANCH   6  12
ATOM     11  O   LIG    1        9.487   6.853   2.300  0.00  0.00    -0.680 OA
ATOM     12  C   LIG    1        9.698   6.457   1.162  0.00  0.00    +0.540 C 
ATOM     13  O   LIG    1       10.391   7.120   0.401  0.00  0.00    -0.680 OA
ENDBRANCH   6  12
ENDBRANCH   3   9
ENDBRANCH   1   3
BRANCH   1  14
ATOM     14  C   LIG    1        4.787   2.451  -0.029  0.00  0.00    +0.410 C 
BRANCH  14  15
ATOM     15  C   LIG    1        3.281   2.498  -0.015  0.00  0.00    +0.030 A 
ATOM     16  C   LIG    1        2.549   3.620  -0.002  0.00  0.00    +0.000 A 
ATOM     17  C   LIG    1        1.145   3.191   0.008  0.00  0.00    -0.130 A 
ATOM     18  C   LIG    1       -0.078   3.861   0.024  0.00  0.00    +0.110 A 
ATOM     19  C   LIG    1       -1.250   3.137   0.031  0.00  0.00    -0.110 A 
ATOM     20  C   LIG    1       -1.216   1.749   0.017  0.00  0.00    +0.080 A 
ATOM     21  C   LIG    1       -0.013   1.076   0.008  0.00  0.00    +0.040 A 
ATOM     22 BR   LIG    1       -2.913   4.037   0.052  0.00  0.00    -0.040 Br
ATOM     23  C   LIG    1        1.180   1.787   0.000  0.00  0.00    +0.070 A 
ATOM     24  O   LIG    1        2.478   1.420  -0.014  0.00  0.00    -0.180 OA
ENDBRANCH  14  15
ENDBRANCH   1  14
TORSDOF 5
