REMARK  Name = ZINCrH000004m0WP.0
REMARK                            x       y       z     vdW  Elec       q    Type
REMARK                         _______ _______ _______ _____ _____    ______ ____
ROOT
ATOM      1  N   LIG    1        2.361   3.886  -0.009  0.00  0.00    -0.680 N 
ATOM      2  H   LIG    1        3.207   3.412   0.015  0.00  0.00    +0.410 HD
ATOM      3  C   LIG    1        2.345   5.231  -0.095  0.00  0.00    +0.710 C 
ATOM      4  N   LIG    1        3.503   5.913  -0.205  0.00  0.00    -0.620 N 
ATOM      5  C   LIG    1        4.782   5.201  -0.326  0.00  0.00    +0.260 C 
ATOM      6  C   LIG    1        5.514   5.720  -1.573  0.00  0.00    +0.030 C 
ATOM      7  C   LIG    1        5.648   7.242  -1.482  0.00  0.00    +0.040 C 
ATOM      8  C   LIG    1        4.256   7.877  -1.442  0.00  0.00    +0.180 C 
ATOM      9  C   LIG    1        3.510   7.382  -0.199  0.00  0.00    +0.290 C 
ATOM     10  O   LIG    1        1.287   5.829  -0.074  0.00  0.00    -0.560 OA
ENDROOT
BRANCH   1  14
ATOM     11  C   LIG    1       -1.227   1.764   0.149  0.00  0.00    +0.080 A 
ATOM     12  C   LIG    1       -0.081   1.154  -0.336  0.00  0.00    -0.020 A 
ATOM     13  C   LIG    1        1.107   1.857  -0.390  0.00  0.00    -0.090 A 
ATOM     14  C   LIG    1        1.156   3.173   0.046  0.00  0.00    +0.160 A 
ATOM     15  C   LIG    1        0.009   3.785   0.537  0.00  0.00    +0.040 A 
ATOM     16  C   LIG    1        2.351   1.193  -0.923  0.00  0.00    +0.110 C 
ATOM     17  C   LIG    1       -1.179   3.081   0.590  0.00  0.00    +0.090 A 
ATOM     18  F   LIG    1       -2.295   3.675   1.067  0.00  0.00    -0.130 F 
BRANCH  11  20
ATOM     19  C   LIG    1       -2.373  -0.278  -0.269  0.00  0.00    +0.250 C 
ATOM     20  O   LIG    1       -2.398   1.073   0.197  0.00  0.00    -0.310 OA
ENDBRANCH  11  20
ENDBRANCH   1  14
BRANCH   8  21
ATOM     21  O   LIG    1        4.381   9.299  -1.389  0.00  0.00    -0.290 OA
BRANCH  21  22
ATOM     22  C   LIG    1        3.384  10.027  -1.952  0.00  0.00    +0.300 A 
ATOM     23  N   LIG    1        2.359   9.409  -2.514  0.00  0.00    -0.510 NA
ATOM     24  C   LIG    1        1.368  10.078  -3.073  0.00  0.00    +0.300 A 
ATOM     25  C   LIG    1        1.366  11.458  -3.090  0.00  0.00    -0.030 A 
ATOM     26  C   LIG    1        2.423  12.147  -2.510  0.00  0.00    +0.090 A 
ATOM     27  C   LIG    1        3.446  11.417  -1.927  0.00  0.00    +0.030 A 
ATOM     28  F   LIG    1        4.491  12.045  -1.346  0.00  0.00    -0.120 F 
ENDBRANCH  21  22
ENDBRANCH   8  21
TORSDOF 4
