REMARK  Name = ZINCvU00000006PB.0
REMARK                            x       y       z     vdW  Elec       q    Type
REMARK                         _______ _______ _______ _____ _____    ______ ____
ROOT
ATOM      1  O   LIG    1        3.522   6.009  -5.697  0.00  0.00    -0.430 OA
ATOM      2  C   LIG    1        4.195   5.020  -5.920  0.00  0.00    +0.600 C 
ATOM      3  N   LIG    1        4.360   4.088  -4.961  0.00  0.00    -0.630 N 
ATOM      4  H   LIG    1        4.897   3.299  -5.138  0.00  0.00    +0.430 HD
ENDROOT
BRANCH   2   5
ATOM      5  C   LIG    1        4.827   4.843  -7.231  0.00  0.00    -0.060 A 
ATOM      6  C   LIG    1        4.742   5.707  -8.286  0.00  0.00    -0.090 A 
ATOM      7  C   LIG    1        5.494   5.144  -9.329  0.00  0.00    -0.040 A 
ATOM      8  C   LIG    1        5.999   3.977  -8.871  0.00  0.00    +0.230 A 
ATOM      9  O   LIG    1        5.600   3.802  -7.604  0.00  0.00    -0.160 OA
BRANCH   6  10
ATOM     10  C   LIG    1        3.987   7.010  -8.322  0.00  0.00    -0.240 C 
BRANCH  10  11
ATOM     11  S   LIG    1        5.076   8.355  -7.777  0.00  0.00    +2.500 S 
ATOM     12  O   LIG    1        6.105   8.582  -8.731  0.00  0.00    -0.930 OA
ATOM     13  O   LIG    1        5.375   8.225  -6.394  0.00  0.00    -0.910 OA
BRANCH  11  14
ATOM     14  C   LIG    1        4.071   9.800  -7.871  0.00  0.00    -0.660 A 
ATOM     15  C   LIG    1        4.035  10.542  -9.036  0.00  0.00    +0.110 A 
ATOM     16  C   LIG    1        3.243  11.672  -9.111  0.00  0.00    -0.010 A 
ATOM     17  C   LIG    1        2.495  12.066  -8.017  0.00  0.00    +0.070 A 
ATOM     18  C   LIG    1        2.536  11.327  -6.850  0.00  0.00    -0.010 A 
ATOM     19  C   LIG    1        3.324  10.194  -6.777  0.00  0.00    +0.130 A 
ENDBRANCH  11  14
ENDBRANCH  10  11
ENDBRANCH   6  10
ENDBRANCH   2   5
BRANCH   3  20
ATOM     20  C   LIG    1        3.761   4.255  -3.719  0.00  0.00    +0.270 A 
ATOM     21  N   LIG    1        3.027   5.268  -3.380  0.00  0.00    -0.470 NA
ATOM     22  C   LIG    1        2.531   5.263  -2.156  0.00  0.00    +0.250 A 
ATOM     23  C   LIG    1        2.870   4.200  -1.424  0.00  0.00    -0.230 A 
ATOM     24  S   LIG    1        3.885   3.156  -2.416  0.00  0.00    +0.140 S 
BRANCH  23  25
ATOM     25  C   LIG    1        2.453   3.936  -0.001  0.00  0.00    +0.190 C 
BRANCH  25  26
ATOM     26  C   LIG    1        1.157   3.165   0.008  0.00  0.00    -0.070 A 
ATOM     27  C   LIG    1        1.175   1.783   0.000  0.00  0.00    +0.020 A 
ATOM     28  C   LIG    1       -0.013   1.076   0.008  0.00  0.00    +0.030 A 
ATOM     29  C   LIG    1       -1.219   1.750   0.017  0.00  0.00    +0.020 A 
ATOM     30  C   LIG    1       -1.237   3.134   0.031  0.00  0.00    -0.030 A 
ATOM     31 CL   LIG    1       -2.752   3.982   0.050  0.00  0.00    -0.070 Cl
ATOM     32  C   LIG    1       -0.048   3.841   0.023  0.00  0.00    +0.030 A 
ENDBRANCH  25  26
ENDBRANCH  23  25
ENDBRANCH   3  20
TORSDOF 7
