REMARK  Name = ZINCvU0000000I6v.0
REMARK                            x       y       z     vdW  Elec       q    Type
REMARK                         _______ _______ _______ _____ _____    ______ ____
ROOT
ATOM      1  N   LIG    1        5.268   3.615   2.300  0.00  0.00    -0.740 N 
ATOM      2  H   LIG    1        5.619   3.860   1.429  0.00  0.00    +0.400 HD
ATOM      3  C   LIG    1        4.069   3.009   2.397  0.00  0.00    +0.710 C 
ATOM      4  N   LIG    1        3.402   2.651   1.281  0.00  0.00    -0.740 N 
ATOM      5  H   LIG    1        3.816   2.764   0.412  0.00  0.00    +0.400 HD
ATOM      6  O   LIG    1        3.588   2.784   3.491  0.00  0.00    -0.580 OA
ENDROOT
BRANCH   1   8
ATOM      7  C   LIG    1        6.862   2.671   3.896  0.00  0.00    +0.050 C 
ATOM      8  C   LIG    1        6.043   3.904   3.509  0.00  0.00    +0.380 C 
BRANCH   8   9
ATOM      9  C   LIG    1        6.972   5.061   3.246  0.00  0.00    +0.170 A 
ATOM     10  N   LIG    1        7.721   5.222   2.195  0.00  0.00    -0.370 NA
ATOM     11  O   LIG    1        8.352   6.254   2.277  0.00  0.00    +0.090 OA
ATOM     12  C   LIG    1        8.063   6.870   3.433  0.00  0.00    +0.230 A 
ATOM     13  N   LIG    1        7.180   6.110   4.057  0.00  0.00    -0.460 NA
BRANCH  12  14
ATOM     14  C   LIG    1        8.624   8.150   3.916  0.00  0.00    -0.030 A 
ATOM     15  C   LIG    1        8.221   8.672   5.146  0.00  0.00    +0.100 A 
ATOM     16  C   LIG    1        8.751   9.864   5.593  0.00  0.00    +0.040 A 
ATOM     17  C   LIG    1        9.674  10.548   4.820  0.00  0.00    -0.010 A 
ATOM     18  C   LIG    1       10.074  10.037   3.596  0.00  0.00    +0.040 A 
ATOM     19 CL   LIG    1       10.332  12.051   5.386  0.00  0.00    -0.050 Cl
ATOM     20  C   LIG    1        9.554   8.844   3.141  0.00  0.00    +0.090 A 
ENDBRANCH  12  14
ENDBRANCH   8   9
ENDBRANCH   1   8
BRANCH   4  21
ATOM     21  C   LIG    1        2.051   2.093   1.383  0.00  0.00    +0.300 C 
BRANCH  21  22
ATOM     22  C   LIG    1        1.476   1.892  -0.021  0.00  0.00    -0.060 C 
ATOM     23  C   LIG    1        0.010   1.421   0.072  0.00  0.00    +0.050 C 
ATOM     24  C   LIG    1        0.099  -0.122  -0.038  0.00  0.00    +0.030 C 
ATOM     25  C   LIG    1        1.226  -0.325  -1.081  0.00  0.00    +0.020 C 
ATOM     26  C   LIG    1        2.249   0.782  -0.754  0.00  0.00    +0.060 C 
BRANCH  22  27
ATOM     27  S   LIG    1        1.572   3.441  -0.960  0.00  0.00    -0.100 S 
BRANCH  27  28
ATOM     28  C   LIG    1        0.426   4.485  -0.122  0.00  0.00    -0.080 A 
ATOM     29  C   LIG    1       -0.182   4.052   1.050  0.00  0.00    -0.010 A 
ATOM     30  C   LIG    1       -1.075   4.875   1.707  0.00  0.00    +0.030 A 
ATOM     31  C   LIG    1       -1.374   6.124   1.194  0.00  0.00    +0.010 A 
ATOM     32  C   LIG    1       -0.776   6.555   0.024  0.00  0.00    +0.030 A 
ATOM     33  C   LIG    1        0.123   5.740  -0.635  0.00  0.00    +0.030 A 
ENDBRANCH  27  28
ENDBRANCH  22  27
ENDBRANCH  21  22
ENDBRANCH   4  21
TORSDOF 7
