REMARK  Name = ZINCrH00000No4Cd.0
REMARK                            x       y       z     vdW  Elec       q    Type
REMARK                         _______ _______ _______ _____ _____    ______ ____
ROOT
ATOM      1  C   LIG    1        0.441  -0.197   4.266  0.00  0.00    -0.080 A 
ATOM      2  C   LIG    1        1.267   0.916   4.174  0.00  0.00    +0.140 A 
ATOM      3  N   LIG    1        0.952   1.552   3.035  0.00  0.00    -0.480 NA
ATOM      4  C   LIG    1       -0.006   0.910   2.422  0.00  0.00    +0.260 A 
ATOM      5  N   LIG    1       -0.360  -0.171   3.141  0.00  0.00    -0.550 N 
ATOM      6  H   LIG    1       -1.049  -0.813   2.911  0.00  0.00    +0.420 HD
ENDROOT
BRANCH   4   7
ATOM      7  C   LIG    1       -0.626   1.322   1.112  0.00  0.00    +0.100 C 
ATOM      8  C   LIG    1        0.064   0.579  -0.037  0.00  0.00    +0.010 C 
ATOM      9  C   LIG    1       -0.623   0.943  -1.356  0.00  0.00    +0.220 C 
ATOM     10  O   LIG    1       -2.011   0.613  -1.276  0.00  0.00    -0.380 OA
ATOM     11  C   LIG    1       -2.719   1.314  -0.251  0.00  0.00    +0.220 C 
ATOM     12  C   LIG    1       -2.117   0.965   1.113  0.00  0.00    -0.010 C 
ENDBRANCH   4   7
BRANCH   2  13
ATOM     13  C   LIG    1        2.302   1.325   5.152  0.00  0.00    -0.000 A 
ATOM     14  C   LIG    1        3.173   0.376   5.687  0.00  0.00    +0.050 A 
ATOM     15  C   LIG    1        4.137   0.760   6.597  0.00  0.00    +0.020 A 
ATOM     16  C   LIG    1        4.242   2.084   6.981  0.00  0.00    +0.000 A 
ATOM     17  C   LIG    1        3.380   3.035   6.453  0.00  0.00    +0.090 A 
ATOM     18  C   LIG    1        2.413   2.661   5.535  0.00  0.00    +0.020 A 
BRANCH  17  19
ATOM     19  O   LIG    1        3.488   4.336   6.832  0.00  0.00    -0.500 OA
ATOM     20  H   LIG    1        4.086   4.858   6.280  0.00  0.00    +0.390 HD
ENDBRANCH  17  19
ENDBRANCH   2  13
BRANCH   1  22
ATOM     21  O   LIG    1        1.110  -1.034   6.331  0.00  0.00    -0.510 OA
ATOM     22  C   LIG    1        0.420  -1.193   5.340  0.00  0.00    +0.590 C 
ATOM     23  N   LIG    1       -0.362  -2.284   5.232  0.00  0.00    -0.730 N 
ATOM     24  H   LIG    1       -0.912  -2.411   4.443  0.00  0.00    +0.390 HD
BRANCH  23  25
ATOM     25  C   LIG    1       -0.383  -3.280   6.306  0.00  0.00    +0.240 C 
ATOM     26  C   LIG    1        0.769  -4.267   6.109  0.00  0.00    +0.000 C 
ATOM     27  C   LIG    1        0.747  -5.307   7.231  0.00  0.00    +0.020 C 
ATOM     28  C   LIG    1       -0.583  -6.063   7.200  0.00  0.00    +0.010 C 
ATOM     29  C   LIG    1       -1.735  -5.076   7.397  0.00  0.00    +0.020 C 
ATOM     30  C   LIG    1       -1.713  -4.036   6.275  0.00  0.00    +0.010 C 
ENDBRANCH  23  25
ENDBRANCH   1  22
TORSDOF 5
