REMARK  Name = ZINCqH0000002MDM.0
REMARK                            x       y       z     vdW  Elec       q    Type
REMARK                         _______ _______ _______ _____ _____    ______ ____
ROOT
ATOM      1  C   LIG    1       -1.970   9.674  -1.372  0.00  0.00    +0.070 C 
ENDROOT
BRANCH   1   4
ATOM      2  N   LIG    1       -3.276  11.434  -2.518  0.00  0.00    -0.720 N 
ATOM      3  H   LIG    1       -2.997  11.048  -3.363  0.00  0.00    +0.410 HD
ATOM      4  C   LIG    1       -2.865  10.886  -1.357  0.00  0.00    +0.530 C 
ATOM      5  O   LIG    1       -3.215  11.369  -0.301  0.00  0.00    -0.530 OA
BRANCH   2   6
ATOM      6  C   LIG    1       -4.146  12.613  -2.504  0.00  0.00    +0.200 C 
ATOM      7  C   LIG    1       -3.437  13.761  -1.784  0.00  0.00    +0.070 C 
BRANCH   6   8
ATOM      8  C   LIG    1       -4.458  13.024  -3.920  0.00  0.00    +0.460 C 
ATOM      9  O   LIG    1       -5.543  13.482  -4.191  0.00  0.00    -0.490 OA
BRANCH   8  10
ATOM     10  O   LIG    1       -3.531  12.883  -4.879  0.00  0.00    -0.360 OA
ATOM     11  C   LIG    1       -3.901  13.300  -6.220  0.00  0.00    +0.280 C 
ENDBRANCH   8  10
ENDBRANCH   6   8
BRANCH   6  12
ATOM     12  C   LIG    1       -5.447  12.278  -1.771  0.00  0.00    +0.060 C 
BRANCH  12  14
ATOM     13  C   LIG    1       -7.395  10.715  -1.684  0.00  0.00    +0.020 C 
ATOM     14  C   LIG    1       -6.094  11.050  -2.416  0.00  0.00    +0.000 C 
ENDBRANCH  12  14
ENDBRANCH   6  12
ENDBRANCH   2   6
ENDBRANCH   1   4
BRANCH   1  15
ATOM     15  C   LIG    1       -1.653   9.256   0.065  0.00  0.00    +0.210 C 
BRANCH  15  16
ATOM     16  C   LIG    1       -0.759   8.043   0.050  0.00  0.00    +0.200 A 
ATOM     17  N   LIG    1        0.545   8.065   0.038  0.00  0.00    -0.470 NA
ATOM     18  C   LIG    1        1.000   6.803   0.033  0.00  0.00    +0.180 A 
ATOM     19  C   LIG    1       -0.079   5.979   0.034  0.00  0.00    -0.010 A 
ATOM     20  O   LIG    1       -1.175   6.770   0.048  0.00  0.00    -0.190 OA
BRANCH  19  21
ATOM     21  C   LIG    1       -0.059   4.501   0.026  0.00  0.00    -0.010 A 
ATOM     22  C   LIG    1        1.157   3.817   0.011  0.00  0.00    +0.060 A 
ATOM     23  C   LIG    1        1.170   2.438   0.004  0.00  0.00    +0.040 A 
ATOM     24  C   LIG    1       -0.021   1.732   0.012  0.00  0.00    -0.030 A 
ATOM     25  C   LIG    1       -1.232   2.405   0.021  0.00  0.00    +0.030 A 
ATOM     26 CL   LIG    1        0.002  -0.004   0.002  0.00  0.00    -0.060 Cl
ATOM     27  C   LIG    1       -1.256   3.784   0.034  0.00  0.00    +0.050 A 
ENDBRANCH  19  21
ENDBRANCH  15  16
ENDBRANCH   1  15
TORSDOF 9
