REMARK  Name = ZINCpk00000eaSj9.0
REMARK                            x       y       z     vdW  Elec       q    Type
REMARK                         _______ _______ _______ _____ _____    ______ ____
ROOT
ATOM      1  C   LIG    1        1.041   5.549   4.406  0.00  0.00    +0.170 C 
ATOM      2  C   LIG    1        1.079   4.055   4.207  0.00  0.00    +0.160 A 
ATOM      3  C   LIG    1        0.547   3.359   3.139  0.00  0.00    -0.290 A 
ATOM      4  C   LIG    1        0.816   1.989   3.359  0.00  0.00    +0.280 A 
ATOM      5  N   LIG    1        1.461   1.879   4.488  0.00  0.00    -0.280 NA
ATOM      6  N   LIG    1        1.634   3.155   5.038  0.00  0.00    -0.320 N 
ENDROOT
BRANCH   3   7
ATOM      7  C   LIG    1       -0.162   3.937   1.984  0.00  0.00    +0.600 C 
ATOM      8  N   LIG    1       -1.095   3.213   1.335  0.00  0.00    -0.600 N 
ATOM      9  C   LIG    1       -1.511   1.894   1.837  0.00  0.00    +0.260 C 
ATOM     10  C   LIG    1       -1.419   0.884   0.689  0.00  0.00    +0.190 C 
ATOM     11  N   LIG    1       -2.187   1.382  -0.460  0.00  0.00    -0.530 NA
ATOM     12  C   LIG    1       -1.623   2.638  -0.975  0.00  0.00    +0.170 C 
ATOM     13  C   LIG    1       -1.724   3.720   0.106  0.00  0.00    +0.230 C 
ATOM     14  C   LIG    1       -0.997   4.982  -0.361  0.00  0.00    +0.050 C 
ATOM     15  O   LIG    1        0.096   5.067   1.615  0.00  0.00    -0.540 OA
BRANCH  11  16
ATOM     16  C   LIG    1       -2.266   0.368  -1.520  0.00  0.00    +0.240 C 
BRANCH  16  17
ATOM     17  C   LIG    1       -0.870   0.120  -2.095  0.00  0.00    +0.130 C 
BRANCH  17  18
ATOM     18  O   LIG    1       -0.034  -0.451  -1.086  0.00  0.00    -0.570 OA
ATOM     19  H   LIG    1        0.868  -0.634  -1.381  0.00  0.00    +0.380 HD
ENDBRANCH  17  18
ENDBRANCH  16  17
ENDBRANCH  11  16
ENDBRANCH   3   7
BRANCH   6  20
ATOM     20  C   LIG    1        2.282   3.446   6.247  0.00  0.00    +0.100 A 
ATOM     21  C   LIG    1        1.696   4.312   7.159  0.00  0.00    +0.050 A 
ATOM     22  C   LIG    1        2.333   4.592   8.352  0.00  0.00    +0.030 A 
ATOM     23  C   LIG    1        3.560   4.020   8.634  0.00  0.00    +0.060 A 
ATOM     24  C   LIG    1        4.151   3.160   7.726  0.00  0.00    +0.010 A 
ATOM     25  C   LIG    1        3.515   2.871   6.532  0.00  0.00    +0.120 A 
ATOM     26  F   LIG    1        4.092   2.031   5.645  0.00  0.00    -0.120 F 
ENDBRANCH   6  20
TORSDOF 5
