REMARK  Name = ZINCpe000000TX6d.0
REMARK                            x       y       z     vdW  Elec       q    Type
REMARK                         _______ _______ _______ _____ _____    ______ ____
ROOT
ATOM      1  N   LIG    1        3.649   3.114  -0.841  0.00  0.00    -0.530 NA
ATOM      2  C   LIG    1        2.415   3.736  -1.339  0.00  0.00    +0.180 C 
ATOM      3  C   LIG    1        1.255   3.376  -0.412  0.00  0.00    +0.290 C 
ATOM      4  N   LIG    1        1.201   1.913  -0.268  0.00  0.00    -0.600 N 
ATOM      5  C   LIG    1        2.437   1.204   0.095  0.00  0.00    +0.240 C 
ATOM      6  C   LIG    1        2.220  -0.305  -0.036  0.00  0.00    +0.050 C 
ATOM      7  C   LIG    1        0.050   1.241  -0.469  0.00  0.00    +0.500 C 
ATOM      8  O   LIG    1        0.043   0.029  -0.436  0.00  0.00    -0.500 OA
ATOM      9  C   LIG    1        3.551   1.649  -0.857  0.00  0.00    +0.170 C 
ENDROOT
BRANCH   1  10
ATOM     10  C   LIG    1        4.816   3.572  -1.607  0.00  0.00    +0.240 C 
BRANCH  10  16
ATOM     11  C   LIG    1        5.140   5.903  -0.739  0.00  0.00    +0.150 A 
ATOM     12  C   LIG    1        5.084   7.279  -0.900  0.00  0.00    -0.080 A 
ATOM     13  C   LIG    1        4.628   7.816  -2.088  0.00  0.00    +0.040 A 
ATOM     14  C   LIG    1        4.233   6.983  -3.118  0.00  0.00    -0.040 A 
ATOM     15  C   LIG    1        4.294   5.611  -2.962  0.00  0.00    +0.050 A 
ATOM     16  C   LIG    1        4.750   5.069  -1.776  0.00  0.00    -0.130 A 
BRANCH  11  17
ATOM     17  O   LIG    1        5.583   5.372   0.431  0.00  0.00    -0.300 OA
BRANCH  17  19
ATOM     18  C   LIG    1        6.436   5.513   2.688  0.00  0.00    +0.070 C 
ATOM     19  C   LIG    1        5.969   6.290   1.456  0.00  0.00    +0.170 C 
ENDBRANCH  17  19
ENDBRANCH  11  17
ENDBRANCH  10  16
ENDBRANCH   1  10
BRANCH   7  20
ATOM     20  C   LIG    1       -1.226   1.995  -0.741  0.00  0.00    +0.360 C 
BRANCH  20  21
ATOM     21  N   LIG    1       -2.324   1.044  -0.930  0.00  0.00    -0.300 N 
ATOM     22  C   LIG    1       -3.488   1.022  -0.253  0.00  0.00    +0.400 A 
ATOM     23  N   LIG    1       -4.182   0.018  -0.731  0.00  0.00    -0.300 NA
ATOM     24  N   LIG    1       -3.481  -0.547  -1.653  0.00  0.00    -0.070 NA
ATOM     25  N   LIG    1       -2.361   0.074  -1.779  0.00  0.00    -0.060 NA
ENDBRANCH  20  21
ENDBRANCH   7  20
TORSDOF 6
