REMARK  Name = ZINCnE00000hdbTy.1
REMARK                            x       y       z     vdW  Elec       q    Type
REMARK                         _______ _______ _______ _____ _____    ______ ____
ROOT
ATOM      1  N   LIG    1        0.088   1.302   0.066  0.00  0.00    -0.670 NA
ATOM      2  C   LIG    1        0.065  -0.046   0.043  0.00  0.00    +0.670 C 
ATOM      3  N   LIG    1       -1.113  -0.700   0.029  0.00  0.00    -0.610 N 
ATOM      4  C   LIG    1       -2.444  -0.076   0.143  0.00  0.00    +0.240 C 
ATOM      5  C   LIG    1       -3.362  -1.197   0.689  0.00  0.00    +0.000 C 
ATOM      6  C   LIG    1       -2.799  -2.445  -0.040  0.00  0.00    +0.020 C 
ATOM      7  C   LIG    1       -1.284  -2.154  -0.107  0.00  0.00    +0.220 C 
ATOM      8  O   LIG    1        1.108  -0.671   0.034  0.00  0.00    -0.630 OA
ENDROOT
BRANCH   1  10
ATOM      9  C   LIG    1        1.499   3.350   0.103  0.00  0.00    -0.370 A 
ATOM     10  C   LIG    1        1.298   1.974   0.080  0.00  0.00    +0.230 A 
ATOM     11  S   LIG    1        2.874   1.286   0.079  0.00  0.00    +0.180 S 
ATOM     12  N   LIG    1        3.714   2.757   0.098  0.00  0.00    -0.560 NA
ATOM     13  C   LIG    1        2.845   3.715   0.112  0.00  0.00    +0.180 A 
ATOM     14  C   LIG    1        3.267   5.162   0.137  0.00  0.00    +0.120 C 
BRANCH   9  15
ATOM     15  C   LIG    1        0.402   4.322   0.119  0.00  0.00    +0.590 C 
ATOM     16  O   LIG    1       -0.055   4.707   1.178  0.00  0.00    -0.520 OA
BRANCH  15  18
ATOM     17  C   LIG    1       -1.186   5.750  -0.951  0.00  0.00    +0.240 C 
ATOM     18  O   LIG    1       -0.101   4.790  -1.042  0.00  0.00    -0.360 OA
ENDBRANCH  15  18
ENDBRANCH   9  15
ENDBRANCH   1  10
BRANCH   7  19
ATOM     19  C   LIG    1       -0.721  -2.620  -1.451  0.00  0.00    -0.020 C 
ATOM     20  C   LIG    1       -1.458  -1.913  -2.607  0.00  0.00    +0.020 C 
ATOM     21  C   LIG    1       -1.570  -2.998  -3.707  0.00  0.00    -0.010 C 
ATOM     22  C   LIG    1       -1.844  -4.285  -2.890  0.00  0.00    +0.000 C 
ATOM     23  C   LIG    1       -0.966  -4.128  -1.631  0.00  0.00    +0.000 C 
ENDBRANCH   7  19
TORSDOF 4
