REMARK  Name = ZINCqH00000011Pf.0
REMARK                            x       y       z     vdW  Elec       q    Type
REMARK                         _______ _______ _______ _____ _____    ______ ____
ROOT
ATOM      1  C   LIG    1       -1.205   1.591   0.017  0.00  0.00    +0.560 C 
ATOM      2  N   LIG    1       -0.011   0.966   0.007  0.00  0.00    -0.670 N 
ATOM      3  H   LIG    1        0.029  -0.003   0.007  0.00  0.00    +0.410 HD
ATOM      4  O   LIG    1       -1.258   2.802  -0.067  0.00  0.00    -0.520 OA
ENDROOT
BRANCH   1   8
ATOM      5  C   LIG    1       -4.784  -0.674   0.343  0.00  0.00    -0.040 A 
ATOM      6  C   LIG    1       -4.848   0.705   0.247  0.00  0.00    +0.010 A 
ATOM      7  C   LIG    1       -3.689   1.447   0.141  0.00  0.00    +0.090 A 
ATOM      8  C   LIG    1       -2.451   0.803   0.130  0.00  0.00    -0.140 A 
ATOM      9  C   LIG    1       -2.394  -0.589   0.222  0.00  0.00    +0.050 A 
ATOM     10  C   LIG    1       -3.560  -1.318   0.333  0.00  0.00    +0.000 A 
BRANCH   5  12
ATOM     11  C   LIG    1       -6.927  -1.230  -0.773  0.00  0.00    +0.040 C 
ATOM     12  C   LIG    1       -6.054  -1.477   0.459  0.00  0.00    -0.040 C 
ATOM     13  C   LIG    1       -6.814  -1.052   1.716  0.00  0.00    +0.040 C 
ATOM     14  C   LIG    1       -5.709  -2.965   0.549  0.00  0.00    +0.030 C 
ENDBRANCH   5  12
ENDBRANCH   1   8
BRANCH   2  15
ATOM     15  C   LIG    1        1.172   1.716  -0.008  0.00  0.00    +0.120 A 
ATOM     16  C   LIG    1        1.226   2.914  -0.708  0.00  0.00    +0.070 A 
ATOM     17  C   LIG    1        2.389   3.656  -0.718  0.00  0.00    -0.020 A 
ATOM     18  C   LIG    1        3.510   3.199  -0.037  0.00  0.00    +0.200 A 
ATOM     19  C   LIG    1        3.458   1.998   0.659  0.00  0.00    +0.000 A 
ATOM     20  C   LIG    1        2.292   1.259   0.674  0.00  0.00    +0.020 A 
BRANCH  18  21
ATOM     21  N   LIG    1        4.692   3.948  -0.053  0.00  0.00    -0.930 N 
ATOM     22  C   LIG    1        5.752   3.923   0.966  0.00  0.00    +0.260 C 
ATOM     23  C   LIG    1        7.114   4.252   0.318  0.00  0.00    +0.090 C 
ATOM     24  C   LIG    1        6.817   5.481  -0.589  0.00  0.00    -0.300 C 
ATOM     25  S   LIG    1        5.155   5.040  -1.229  0.00  0.00    +2.560 S 
ATOM     26  O   LIG    1        4.247   6.126  -1.104  0.00  0.00    -0.940 OA
ATOM     27  O   LIG    1        5.249   4.279  -2.425  0.00  0.00    -0.940 OA
ENDBRANCH  18  21
ENDBRANCH   2  15
TORSDOF 4
