REMARK  Name = ZINCpe00000yrgGQ.0
REMARK                            x       y       z     vdW  Elec       q    Type
REMARK                         _______ _______ _______ _____ _____    ______ ____
ROOT
ATOM      1  C   LIG    1       -4.212   3.971   2.353  0.00  0.00    +0.580 C 
ATOM      2  N   LIG    1       -5.255   4.564   2.969  0.00  0.00    -0.600 N 
ATOM      3  C   LIG    1       -5.443   4.671   4.423  0.00  0.00    +0.250 C 
ATOM      4  C   LIG    1       -6.755   5.450   4.658  0.00  0.00    +0.040 C 
ATOM      5  C   LIG    1       -6.946   6.223   3.326  0.00  0.00    +0.250 C 
ATOM      6  C   LIG    1       -6.398   5.205   2.295  0.00  0.00    +0.270 C 
ATOM      7  O   LIG    1       -4.114   4.018   1.143  0.00  0.00    -0.510 OA
ENDROOT
BRANCH   1  11
ATOM      8  C   LIG    1       -4.191   0.103   4.408  0.00  0.00    +0.280 A 
ATOM      9  N   LIG    1       -4.504   1.173   3.705  0.00  0.00    -0.520 NA
ATOM     10  C   LIG    1       -3.450   2.003   3.711  0.00  0.00    +0.030 A 
ATOM     11  C   LIG    1       -3.183   3.263   3.154  0.00  0.00    +0.040 A 
ATOM     12  C   LIG    1       -1.926   3.837   3.373  0.00  0.00    +0.000 A 
ATOM     13  C   LIG    1       -0.988   3.177   4.110  0.00  0.00    +0.350 A 
ATOM     14  N   LIG    1       -1.232   1.972   4.646  0.00  0.00    -0.470 N 
ATOM     15  H   LIG    1       -0.542   1.531   5.166  0.00  0.00    +0.430 HD
ATOM     16  C   LIG    1       -2.436   1.358   4.472  0.00  0.00    +0.230 A 
ATOM     17  N   LIG    1       -2.951   0.200   4.871  0.00  0.00    -0.560 NA
BRANCH   8  19
ATOM     18  C   LIG    1       -6.450  -0.814   3.955  0.00  0.00    +0.040 C 
ATOM     19  C   LIG    1       -5.109  -1.068   4.646  0.00  0.00    +0.150 C 
ENDBRANCH   8  19
ENDBRANCH   1  11
BRANCH   5  20
ATOM     20  N   LIG    1       -8.363   6.506   3.082  0.00  0.00    -0.720 N 
ATOM     21  H   LIG    1       -9.046   6.001   3.551  0.00  0.00    +0.410 HD
ATOM     22  C   LIG    1       -8.717   7.468   2.207  0.00  0.00    +0.520 C 
ATOM     23  O   LIG    1       -7.863   8.098   1.621  0.00  0.00    -0.530 OA
BRANCH  22  24
ATOM     24  C   LIG    1      -10.174   7.759   1.956  0.00  0.00    +0.080 C 
BRANCH  24  25
ATOM     25  C   LIG    1      -10.299   8.885   0.928  0.00  0.00    +0.190 C 
BRANCH  25  26
ATOM     26  O   LIG    1      -11.681   9.161   0.690  0.00  0.00    -0.400 OA
ATOM     27  C   LIG    1      -11.910  10.204  -0.260  0.00  0.00    +0.200 C 
ENDBRANCH  25  26
ENDBRANCH  24  25
ENDBRANCH  22  24
ENDBRANCH   5  20
TORSDOF 6
