REMARK  Name = ZINCtj0000001maV.0
REMARK                            x       y       z     vdW  Elec       q    Type
REMARK                         _______ _______ _______ _____ _____    ______ ____
ROOT
ATOM      1  C   LIG    1        4.900   5.444  -0.284  0.00  0.00    +0.090 A 
ATOM      2  C   LIG    1        3.721   6.170  -0.173  0.00  0.00    +0.010 A 
ATOM      3  C   LIG    1        2.512   5.511  -0.077  0.00  0.00    +0.060 A 
ATOM      4  C   LIG    1        2.474   4.123  -0.090  0.00  0.00    +0.120 A 
ATOM      5  C   LIG    1        3.654   3.397  -0.195  0.00  0.00    +0.020 A 
ATOM      6  C   LIG    1        4.862   4.055  -0.297  0.00  0.00    -0.020 A 
ENDROOT
BRANCH   1  10
ATOM      7  C   LIG    1        8.614   6.915  -1.606  0.00  0.00    -0.030 C 
ATOM      8  C   LIG    1        8.566   5.914  -0.448  0.00  0.00    +0.060 C 
ATOM      9  C   LIG    1        7.237   5.157  -0.490  0.00  0.00    +0.200 C 
ATOM     10  N   LIG    1        6.125   6.111  -0.382  0.00  0.00    -0.480 N 
ATOM     11  C   LIG    1        6.123   7.053  -1.508  0.00  0.00    +0.200 C 
ATOM     12  C   LIG    1        7.420   7.866  -1.497  0.00  0.00    +0.030 C 
BRANCH   7  13
ATOM     13  C   LIG    1        9.915   7.717  -1.534  0.00  0.00    +0.250 C 
BRANCH  13  15
ATOM     14  C   LIG    1       11.203   9.448  -2.582  0.00  0.00    +0.310 C 
ATOM     15  N   LIG    1       10.016   8.592  -2.710  0.00  0.00    -0.390 N 
ATOM     16  C   LIG    1       10.132   7.771  -3.922  0.00  0.00    +0.320 C 
ATOM     17  H   LIG    1        9.191   9.169  -2.772  0.00  0.00    +0.420 HD
ENDBRANCH  13  15
ENDBRANCH   7  13
ENDBRANCH   1  10
BRANCH   4  18
ATOM     18  N   LIG    1        1.248   3.455   0.009  0.00  0.00    -0.640 N 
ATOM     19  H   LIG    1        1.191   2.614   0.489  0.00  0.00    +0.430 HD
ATOM     20  C   LIG    1        0.147   3.981  -0.563  0.00  0.00    +0.520 C 
ATOM     21  O   LIG    1        0.200   5.073  -1.091  0.00  0.00    -0.490 OA
BRANCH  20  22
ATOM     22  C   LIG    1       -1.138   3.220  -0.548  0.00  0.00    +0.500 C 
ATOM     23  N   LIG    1       -2.239   3.746  -1.120  0.00  0.00    -0.480 N 
ATOM     24  H   LIG    1       -2.197   4.618  -1.542  0.00  0.00    +0.450 HD
ATOM     25  O   LIG    1       -1.192   2.131  -0.015  0.00  0.00    -0.520 OA
BRANCH  23  26
ATOM     26  N   LIG    1       -3.445   3.033  -1.105  0.00  0.00    -0.510 N 
ATOM     27  H   LIG    1       -3.487   2.160  -0.683  0.00  0.00    +0.450 HD
BRANCH  26  28
ATOM     28  C   LIG    1       -4.580   3.575  -1.695  0.00  0.00    +0.350 A 
ATOM     29  C   LIG    1       -5.780   2.867  -1.681  0.00  0.00    +0.180 A 
ATOM     30  N   LIG    1       -6.856   3.385  -2.242  0.00  0.00    -0.390 NA
ATOM     31  C   LIG    1       -6.796   4.575  -2.816  0.00  0.00    +0.160 A 
ATOM     32  C   LIG    1       -5.608   5.281  -2.832  0.00  0.00    +0.290 A 
ATOM     33  N   LIG    1       -4.527   4.770  -2.268  0.00  0.00    -0.510 NA
ENDBRANCH  26  28
ENDBRANCH  23  26
ENDBRANCH  20  22
ENDBRANCH   4  18
TORSDOF 7
