REMARK  Name = ZINCpe00000MJIJ1.0
REMARK                            x       y       z     vdW  Elec       q    Type
REMARK                         _______ _______ _______ _____ _____    ______ ____
ROOT
ATOM      1  C   LIG    1       -0.262   6.673  -2.482  0.00  0.00    +0.590 C 
ATOM      2  N   LIG    1        0.278   5.974  -1.465  0.00  0.00    -0.610 N 
ATOM      3  C   LIG    1        0.717   6.535  -0.174  0.00  0.00    +0.250 C 
ATOM      4  C   LIG    1        1.775   5.535   0.354  0.00  0.00    +0.190 C 
ATOM      5  C   LIG    1        1.176   4.178  -0.101  0.00  0.00    +0.190 C 
ATOM      6  C   LIG    1        0.526   4.525  -1.458  0.00  0.00    +0.260 C 
ATOM      7  O   LIG    1       -0.501   6.122  -3.540  0.00  0.00    -0.510 OA
ENDROOT
BRANCH   1  13
ATOM      8  C   LIG    1       -0.406   9.002  -3.383  0.00  0.00    +0.380 A 
ATOM      9  N   LIG    1       -0.678  10.286  -3.227  0.00  0.00    -0.540 NA
ATOM     10  C   LIG    1       -1.104  10.772  -2.077  0.00  0.00    +0.340 A 
ATOM     11  C   LIG    1       -1.284   9.953  -0.977  0.00  0.00    -0.070 A 
ATOM     12  C   LIG    1       -1.019   8.600  -1.085  0.00  0.00    +0.140 A 
ATOM     13  C   LIG    1       -0.564   8.107  -2.313  0.00  0.00    -0.210 A 
BRANCH   8  14
ATOM     14  O   LIG    1        0.028   8.546  -4.582  0.00  0.00    -0.280 OA
BRANCH  14  16
ATOM     15  C   LIG    1        1.581  10.091  -5.601  0.00  0.00    +0.020 C 
ATOM     16  C   LIG    1        0.167   9.508  -5.630  0.00  0.00    +0.170 C 
ATOM     17  C   LIG    1       -0.079   8.832  -6.980  0.00  0.00    +0.060 C 
ENDBRANCH  14  16
ENDBRANCH   8  14
ENDBRANCH   1  13
BRANCH   4  18
ATOM     18  O   LIG    1        1.874   5.598   1.778  0.00  0.00    -0.550 OA
ATOM     19  H   LIG    1        2.244   6.428   2.110  0.00  0.00    +0.390 HD
ENDBRANCH   4  18
BRANCH   5  20
ATOM     20  O   LIG    1        2.205   3.201  -0.269  0.00  0.00    -0.280 OA
BRANCH  20  21
ATOM     21  C   LIG    1        1.843   1.894  -0.148  0.00  0.00    -0.030 A 
ATOM     22  C   LIG    1        2.666   0.823  -0.272  0.00  0.00    +0.210 A 
ATOM     23  N   LIG    1        1.917  -0.294  -0.082  0.00  0.00    -0.370 N 
ATOM     24  N   LIG    1        0.598   0.110   0.165  0.00  0.00    -0.270 NA
ATOM     25  C   LIG    1        2.401  -1.676  -0.127  0.00  0.00    +0.370 C 
ATOM     26  C   LIG    1        0.554   1.417   0.125  0.00  0.00    +0.180 A 
ENDBRANCH  20  21
ENDBRANCH   5  20
TORSDOF 6
