REMARK  Name = ZINCqH0000036Zl5.0
REMARK                            x       y       z     vdW  Elec       q    Type
REMARK                         _______ _______ _______ _____ _____    ______ ____
ROOT
ATOM      1  C   LIG    1        5.189   1.750  -1.821  0.00  0.00    +0.500 C 
ATOM      2  N   LIG    1        5.725   0.677  -2.436  0.00  0.00    -0.670 N 
ATOM      3  H   LIG    1        6.096  -0.049  -1.909  0.00  0.00    +0.410 HD
ATOM      4  O   LIG    1        4.644   2.614  -2.475  0.00  0.00    -0.490 OA
ENDROOT
BRANCH   1  15
ATOM      5  C   LIG    1        4.566  -0.517  -0.075  0.00  0.00    +0.100 C 
ATOM      6  C   LIG    1        4.256   0.925   0.332  0.00  0.00    +0.160 C 
ATOM      7  O   LIG    1        2.946   1.284  -0.121  0.00  0.00    -0.300 OA
ATOM      8  C   LIG    1        2.634   2.608  -0.104  0.00  0.00    +0.060 A 
ATOM      9  C   LIG    1        1.305   2.996  -0.182  0.00  0.00    +0.020 A 
ATOM     10  C   LIG    1        0.973   4.337  -0.170  0.00  0.00    +0.020 A 
ATOM     11  C   LIG    1        1.964   5.296  -0.081  0.00  0.00    +0.020 A 
ATOM     12  C   LIG    1        3.291   4.917  -0.003  0.00  0.00    +0.020 A 
ATOM     13  C   LIG    1        3.631   3.573  -0.013  0.00  0.00    +0.060 A 
ATOM     14  O   LIG    1        4.942   3.215   0.069  0.00  0.00    -0.280 OA
ATOM     15  C   LIG    1        5.268   1.877  -0.321  0.00  0.00    +0.190 C 
ENDBRANCH   1  15
BRANCH   2  16
ATOM     16  C   LIG    1        5.746   0.609  -3.833  0.00  0.00    +0.140 A 
ATOM     17  C   LIG    1        4.678   1.104  -4.570  0.00  0.00    +0.030 A 
ATOM     18  C   LIG    1        4.701   1.035  -5.949  0.00  0.00    +0.030 A 
ATOM     19  C   LIG    1        5.787   0.475  -6.597  0.00  0.00    +0.020 A 
ATOM     20  C   LIG    1        6.852  -0.019  -5.866  0.00  0.00    -0.070 A 
ATOM     21  C   LIG    1        6.838   0.052  -4.487  0.00  0.00    +0.010 A 
BRANCH  20  22
ATOM     22  C   LIG    1        8.033  -0.629  -6.575  0.00  0.00    +0.220 C 
BRANCH  22  23
ATOM     23  O   LIG    1        9.001   0.386  -6.849  0.00  0.00    -0.380 OA
BRANCH  23  24
ATOM     24  C   LIG    1       10.167  -0.089  -7.524  0.00  0.00    +0.190 C 
BRANCH  24  25
ATOM     25  C   LIG    1       11.128   1.077  -7.765  0.00  0.00    -0.050 C 
ATOM     26  C   LIG    1       11.426   1.459  -9.216  0.00  0.00    +0.020 C 
ATOM     27  C   LIG    1       12.493   0.753  -8.376  0.00  0.00    +0.030 C 
ENDBRANCH  24  25
ENDBRANCH  23  24
ENDBRANCH  22  23
ENDBRANCH  20  22
ENDBRANCH   2  16
TORSDOF 6
