REMARK  Name = ZINCzw00000004dW.0
REMARK                            x       y       z     vdW  Elec       q    Type
REMARK                         _______ _______ _______ _____ _____    ______ ____
ROOT
ATOM      1  C   LIG    1        6.373   3.468   4.333  0.00  0.00    +0.180 C 
ATOM      2  C   LIG    1        5.876   4.490   5.357  0.00  0.00    +0.120 C 
ENDROOT
BRANCH   1   3
ATOM      3  C   LIG    1        5.424   3.428   3.163  0.00  0.00    +0.500 C 
ATOM      4  N   LIG    1        4.132   3.096   3.354  0.00  0.00    -0.640 N 
ATOM      5  H   LIG    1        3.796   2.953   4.253  0.00  0.00    +0.420 HD
ATOM      6  O   LIG    1        5.823   3.695   2.049  0.00  0.00    -0.510 OA
BRANCH   4   7
ATOM      7  C   LIG    1        3.275   2.957   2.256  0.00  0.00    +0.100 A 
ATOM      8  C   LIG    1        1.934   3.297   2.373  0.00  0.00    +0.060 A 
ATOM      9  C   LIG    1        1.091   3.159   1.288  0.00  0.00    +0.040 A 
ATOM     10  C   LIG    1        1.581   2.682   0.086  0.00  0.00    +0.130 A 
ATOM     11  C   LIG    1        2.916   2.342  -0.033  0.00  0.00    -0.660 A 
ATOM     12  C   LIG    1        3.763   2.473   1.050  0.00  0.00    +0.130 A 
BRANCH  11  13
ATOM     13  S   LIG    1        3.536   1.733  -1.566  0.00  0.00    +2.690 S 
ATOM     14  O   LIG    1        4.700   0.980  -1.258  0.00  0.00    -0.950 OA
ATOM     15  O   LIG    1        2.422   1.192  -2.263  0.00  0.00    -0.940 OA
BRANCH  13  16
ATOM     16  N   LIG    1        4.044   3.042  -2.444  0.00  0.00    -1.000 NA
ATOM     17  C   LIG    1        3.128   3.744  -3.357  0.00  0.00    +0.270 C 
ATOM     18  C   LIG    1        3.196   5.247  -3.042  0.00  0.00    +0.220 C 
ATOM     19  O   LIG    1        4.562   5.670  -3.064  0.00  0.00    -0.370 OA
ATOM     20  C   LIG    1        5.384   5.044  -2.076  0.00  0.00    +0.210 C 
ATOM     21  C   LIG    1        5.427   3.534  -2.338  0.00  0.00    +0.280 C 
ENDBRANCH  13  16
ENDBRANCH  11  13
ENDBRANCH   4   7
ENDBRANCH   1   3
BRANCH   1  22
ATOM     22  N   LIG    1        7.711   3.855   3.865  0.00  0.00    -0.500 N 
ATOM     23  H   LIG    1        7.683   4.799   3.511  0.00  0.00    +0.430 HD
ATOM     24  H   LIG    1        8.004   3.228   3.130  0.00  0.00    +0.430 HD
BRANCH  22  25
ATOM     25  C   LIG    1        8.661   3.778   4.982  0.00  0.00    +0.370 C 
BRANCH  25  32
ATOM     26  C   LIG    1        9.858   6.712   4.981  0.00  0.00    +0.160 C 
ATOM     27  C   LIG    1       10.563   5.469   4.502  0.00  0.00    +0.110 A 
ATOM     28  N   LIG    1       11.776   5.416   4.014  0.00  0.00    -0.270 NA
ATOM     29  N   LIG    1       12.058   4.083   3.687  0.00  0.00    -0.300 N 
ATOM     30  C   LIG    1       10.973   3.340   4.001  0.00  0.00    +0.150 A 
ATOM     31  C   LIG    1       10.835   1.850   3.823  0.00  0.00    +0.160 C 
ATOM     32  C   LIG    1       10.034   4.174   4.503  0.00  0.00    -0.320 A 
BRANCH  29  33
ATOM     33  C   LIG    1       13.255   3.604   3.135  0.00  0.00    +0.120 A 
ATOM     34  C   LIG    1       14.474   4.086   3.594  0.00  0.00    +0.030 A 
ATOM     35  C   LIG    1       15.651   3.608   3.052  0.00  0.00    +0.040 A 
ATOM     36  C   LIG    1       15.617   2.660   2.047  0.00  0.00    +0.040 A 
ATOM     37  C   LIG    1       14.404   2.182   1.585  0.00  0.00    +0.040 A 
ATOM     38  C   LIG    1       13.224   2.651   2.126  0.00  0.00    +0.010 A 
ENDBRANCH  29  33
ENDBRANCH  25  32
ENDBRANCH  22  25
ENDBRANCH   1  22
TORSDOF 8
