REMARK  Name = ZINCrH000004rjPV.0
REMARK                            x       y       z     vdW  Elec       q    Type
REMARK                         _______ _______ _______ _____ _____    ______ ____
ROOT
ATOM      1  N   LIG    1       -2.077   3.876   0.936  0.00  0.00    -0.540 N 
ATOM      2  C   LIG    1       -2.780   4.947   0.515  0.00  0.00    +0.530 C 
ATOM      3  O   LIG    1       -3.392   5.623   1.315  0.00  0.00    -0.490 OA
ENDROOT
BRANCH   2   4
ATOM      4  C   LIG    1       -2.805   5.303  -0.949  0.00  0.00    +0.000 C 
ATOM      5  C   LIG    1       -1.441   5.858  -1.363  0.00  0.00    -0.020 C 
ATOM      6  C   LIG    1       -1.466   6.220  -2.849  0.00  0.00    +0.030 C 
ATOM      7  C   LIG    1       -2.544   7.278  -3.098  0.00  0.00    -0.020 C 
ATOM      8  C   LIG    1       -2.231   8.528  -2.273  0.00  0.00    +0.010 C 
ATOM      9  C   LIG    1       -2.205   8.166  -0.787  0.00  0.00    -0.010 C 
ATOM     10  C   LIG    1       -3.570   7.611  -0.374  0.00  0.00    +0.030 C 
ATOM     11  C   LIG    1       -3.908   6.723  -2.684  0.00  0.00    +0.020 C 
ATOM     12  C   LIG    1       -1.128   7.109  -0.538  0.00  0.00    +0.020 C 
ATOM     13  C   LIG    1       -3.882   6.361  -1.198  0.00  0.00    +0.020 C 
ENDBRANCH   2   4
BRANCH   1  18
ATOM     14  C   LIG    1       -2.403   2.220   6.352  0.00  0.00    +0.100 C 
ATOM     15  C   LIG    1       -2.317   2.659   4.913  0.00  0.00    -0.100 A 
ATOM     16  C   LIG    1       -3.154   3.656   4.445  0.00  0.00    +0.040 A 
ATOM     17  C   LIG    1       -3.076   4.061   3.127  0.00  0.00    +0.030 A 
ATOM     18  C   LIG    1       -2.158   3.467   2.271  0.00  0.00    +0.140 A 
ATOM     19  C   LIG    1       -1.323   2.463   2.743  0.00  0.00    -0.050 A 
ATOM     20  C   LIG    1       -1.401   2.065   4.064  0.00  0.00    +0.040 A 
ENDBRANCH   1  18
BRANCH   1  21
ATOM     21  C   LIG    1       -1.229   3.140  -0.006  0.00  0.00    +0.290 C 
ATOM     22  C   LIG    1       -1.601   1.692   0.012  0.00  0.00    +0.080 C 
ATOM     23  C   LIG    1       -0.657   0.793  -0.014  0.00  0.00    -0.460 C 
ATOM     24  S   LIG    1        0.899   1.652  -0.071  0.00  0.00    +2.440 S 
ATOM     25  O   LIG    1        1.305   1.616  -1.432  0.00  0.00    -0.920 OA
ATOM     26  O   LIG    1        1.687   1.082   0.965  0.00  0.00    -0.920 OA
ATOM     27  C   LIG    1        0.257   3.308   0.401  0.00  0.00    -0.290 C 
ENDBRANCH   1  21
TORSDOF 3
