REMARK  Name = ZINCrg00000a92Kr.0
REMARK                            x       y       z     vdW  Elec       q    Type
REMARK                         _______ _______ _______ _____ _____    ______ ____
ROOT
ATOM      1  C   LIG    1        7.330  -0.135  -3.193  0.00  0.00    +0.600 C 
ATOM      2  N   LIG    1        6.026  -0.403  -2.981  0.00  0.00    -0.630 N 
ATOM      3  C   LIG    1        5.108  -1.476  -3.409  0.00  0.00    +0.340 C 
ATOM      4  C   LIG    1        4.287  -1.131  -2.154  0.00  0.00    +0.090 C 
ATOM      5  C   LIG    1        4.943   0.260  -2.229  0.00  0.00    +0.270 C 
ATOM      6  O   LIG    1        8.025  -0.933  -3.792  0.00  0.00    -0.550 OA
ENDROOT
BRANCH   1  11
ATOM      7  C   LIG    1        7.657   3.425  -2.052  0.00  0.00    -0.150 A 
ATOM      8  C   LIG    1        9.011   3.498  -1.766  0.00  0.00    +0.090 A 
ATOM      9  C   LIG    1        9.822   2.396  -1.942  0.00  0.00    -0.080 A 
ATOM     10  C   LIG    1        9.284   1.202  -2.403  0.00  0.00    +0.280 A 
ATOM     11  C   LIG    1        7.914   1.125  -2.698  0.00  0.00    -0.220 A 
ATOM     12  C   LIG    1        7.105   2.250  -2.515  0.00  0.00    +0.090 A 
BRANCH  10  13
ATOM     13  N   LIG    1       10.098   0.090  -2.576  0.00  0.00    -0.860 N 
ATOM     14  H   LIG    1       11.029   0.124  -2.307  0.00  0.00    +0.400 HD
ATOM     15  H   LIG    1        9.735  -0.721  -2.965  0.00  0.00    +0.410 HD
ENDBRANCH  10  13
BRANCH   7  16
ATOM     16  C   LIG    1        6.782   4.636  -1.855  0.00  0.00    +0.070 C 
BRANCH  16  18
ATOM     17  C   LIG    1        5.335   5.866  -0.232  0.00  0.00    +0.000 C 
ATOM     18  C   LIG    1        6.222   4.636  -0.431  0.00  0.00    +0.000 C 
ENDBRANCH  16  18
ENDBRANCH   7  16
ENDBRANCH   1  11
BRANCH   4  19
ATOM     19  O   LIG    1        4.660  -1.883  -0.997  0.00  0.00    -0.520 OA
ATOM     20  H   LIG    1        4.166  -1.648  -0.200  0.00  0.00    +0.380 HD
ENDBRANCH   4  19
BRANCH   4  21
ATOM     21  C   LIG    1        2.776  -1.112  -2.392  0.00  0.00    +0.280 C 
BRANCH  21  22
ATOM     22  N   LIG    1        2.095  -0.660  -1.176  0.00  0.00    -0.720 N 
ATOM     23  H   LIG    1        2.612  -0.429  -0.388  0.00  0.00    +0.400 HD
ATOM     24  C   LIG    1        0.751  -0.564  -1.152  0.00  0.00    +0.520 C 
ATOM     25  O   LIG    1        0.105  -0.853  -2.137  0.00  0.00    -0.530 OA
BRANCH  24  26
ATOM     26  C   LIG    1        0.051  -0.099   0.099  0.00  0.00    +0.090 C 
ATOM     27  C   LIG    1       -1.391  -0.648   0.129  0.00  0.00    +0.050 C 
ATOM     28  C   LIG    1       -1.251  -1.891   1.051  0.00  0.00    +0.010 C 
ATOM     29  C   LIG    1       -0.166  -1.400   2.043  0.00  0.00    +0.210 C 
ATOM     30  C   LIG    1        0.024   1.431   0.140  0.00  0.00    +0.080 C 
ATOM     31  O   LIG    1        0.732  -0.604   1.253  0.00  0.00    -0.370 OA
ENDBRANCH  24  26
ENDBRANCH  21  22
ENDBRANCH   4  21
TORSDOF 8
