REMARK  Name = ZINCtV00000L6kkp.0
REMARK                            x       y       z     vdW  Elec       q    Type
REMARK                         _______ _______ _______ _____ _____    ______ ____
ROOT
ATOM      1  C   LIG    1       -4.794   1.684  -5.519  0.00  0.00    +0.190 A 
ATOM      2  C   LIG    1       -4.629   1.127  -6.730  0.00  0.00    -0.100 A 
ATOM      3  S   LIG    1       -6.223   0.809  -7.412  0.00  0.00    +0.090 S 
ATOM      4  C   LIG    1       -6.975   1.482  -5.969  0.00  0.00    +0.320 A 
ATOM      5  N   LIG    1       -6.052   1.864  -5.141  0.00  0.00    -0.510 NA
ENDROOT
BRANCH   1   9
ATOM      6  C   LIG    1       -0.061   2.463  -3.845  0.00  0.00    +0.130 C 
ATOM      7  C   LIG    1       -1.565   2.414  -3.941  0.00  0.00    +0.030 A 
ATOM      8  C   LIG    1       -2.271   1.928  -4.980  0.00  0.00    -0.040 A 
ATOM      9  C   LIG    1       -3.645   2.078  -4.665  0.00  0.00    -0.110 A 
ATOM     10  C   LIG    1       -3.713   2.650  -3.433  0.00  0.00    +0.060 A 
ATOM     11  C   LIG    1       -4.975   2.999  -2.688  0.00  0.00    +0.140 C 
ATOM     12  N   LIG    1       -2.439   2.852  -2.990  0.00  0.00    -0.440 N 
BRANCH  12  13
ATOM     13  C   LIG    1       -2.069   3.449  -1.705  0.00  0.00    +0.300 C 
BRANCH  13  14
ATOM     14  C   LIG    1       -1.944   2.349  -0.649  0.00  0.00    +0.150 C 
ATOM     15  C   LIG    1       -1.608   2.963   0.734  0.00  0.00    +0.020 C 
ATOM     16  C   LIG    1       -0.913   1.760   1.431  0.00  0.00    +0.020 C 
ATOM     17  C   LIG    1       -0.189   1.074   0.254  0.00  0.00    +0.190 C 
ATOM     18  O   LIG    1       -0.837   1.487  -0.955  0.00  0.00    -0.370 OA
ENDBRANCH  13  14
ENDBRANCH  12  13
ENDBRANCH   1   9
BRANCH   4  19
ATOM     19  N   LIG    1       -8.340   1.588  -5.752  0.00  0.00    -0.630 N 
ATOM     20  H   LIG    1       -8.673   1.880  -4.889  0.00  0.00    +0.420 HD
BRANCH  19  21
ATOM     21  C   LIG    1       -9.237   1.274  -6.777  0.00  0.00    +0.220 A 
ATOM     22  C   LIG    1       -8.881   1.486  -8.102  0.00  0.00    -0.020 A 
ATOM     23  C   LIG    1       -9.770   1.175  -9.113  0.00  0.00    +0.100 A 
ATOM     24  C   LIG    1      -11.013   0.652  -8.806  0.00  0.00    +0.000 A 
ATOM     25  C   LIG    1      -11.370   0.440  -7.487  0.00  0.00    +0.110 A 
ATOM     26  C   LIG    1      -10.485   0.744  -6.472  0.00  0.00    -0.220 A 
BRANCH  26  27
ATOM     27  C   LIG    1      -10.873   0.507  -5.035  0.00  0.00    +0.510 C 
ATOM     28  F   LIG    1      -10.842   1.719  -4.338  0.00  0.00    -0.180 F 
ATOM     29  F   LIG    1       -9.973  -0.391  -4.451  0.00  0.00    -0.170 F 
ATOM     30  F   LIG    1      -12.165  -0.028  -4.984  0.00  0.00    -0.170 F 
ENDBRANCH  26  27
ENDBRANCH  19  21
ENDBRANCH   4  19
TORSDOF 6
