REMARK  Name = ZINCrD0000072xBH.0
REMARK                            x       y       z     vdW  Elec       q    Type
REMARK                         _______ _______ _______ _____ _____    ______ ____
ROOT
ATOM      1  C   LIG    1        0.002  -0.004   0.002  0.00  0.00    +0.160 A 
ATOM      2  C   LIG    1       -0.017   1.385   0.010  0.00  0.00    -0.010 A 
ATOM      3  C   LIG    1        1.166   2.092   0.002  0.00  0.00    +0.120 A 
ATOM      4  C   LIG    1        2.385   1.410  -0.013  0.00  0.00    -0.080 A 
ATOM      5  C   LIG    1        2.399   0.014  -0.021  0.00  0.00    +0.080 A 
ATOM      6  C   LIG    1        1.212  -0.686  -0.013  0.00  0.00    -0.070 A 
ENDROOT
BRANCH   4   7
ATOM      7  C   LIG    1        3.655   2.165  -0.022  0.00  0.00    +0.170 A 
ATOM      8  N   LIG    1        3.748   3.452  -0.017  0.00  0.00    -0.470 NA
ATOM      9  C   LIG    1        4.978   3.994  -0.026  0.00  0.00    +0.090 A 
ATOM     10  C   LIG    1        5.344   5.359  -0.022  0.00  0.00    +0.070 A 
ATOM     11  C   LIG    1        6.655   5.723  -0.033  0.00  0.00    +0.030 A 
ATOM     12  C   LIG    1        7.659   4.766  -0.047  0.00  0.00    +0.040 A 
ATOM     13  C   LIG    1        7.334   3.427  -0.051  0.00  0.00    +0.060 A 
ATOM     14  C   LIG    1        5.997   3.034  -0.041  0.00  0.00    -0.170 A 
ATOM     15  S   LIG    1        5.255   1.436  -0.034  0.00  0.00    +0.060 S 
ENDBRANCH   4   7
BRANCH   1  16
ATOM     16  O   LIG    1       -1.166  -0.697   0.009  0.00  0.00    -0.300 OA
BRANCH  16  17
ATOM     17  C   LIG    1       -1.074  -2.123   0.001  0.00  0.00    +0.330 C 
BRANCH  17  20
ATOM     18  C   LIG    1       -4.300  -3.493  -1.125  0.00  0.00    +0.630 A 
ATOM     19  N   LIG    1       -3.076  -2.969  -1.130  0.00  0.00    -0.620 NA
ATOM     20  C   LIG    1       -2.459  -2.716   0.011  0.00  0.00    +0.430 A 
ATOM     21  N   LIG    1       -3.052  -2.987   1.161  0.00  0.00    -0.620 NA
ATOM     22  C   LIG    1       -4.278  -3.506   1.173  0.00  0.00    +0.630 A 
ATOM     23  N   LIG    1       -4.901  -3.762   0.029  0.00  0.00    -0.650 NA
BRANCH  18  25
ATOM     24  C   LIG    1       -4.279  -3.462  -3.589  0.00  0.00    +0.310 C 
ATOM     25  N   LIG    1       -4.943  -3.758  -2.317  0.00  0.00    -0.580 N 
ATOM     26  C   LIG    1       -6.289  -4.334  -2.311  0.00  0.00    +0.300 C 
ENDBRANCH  18  25
BRANCH  22  27
ATOM     27  N   LIG    1       -4.898  -3.784   2.375  0.00  0.00    -0.800 N 
ATOM     28  H   LIG    1       -4.442  -3.597   3.210  0.00  0.00    +0.420 HD
ATOM     29  H   LIG    1       -5.789  -4.166   2.383  0.00  0.00    +0.420 HD
ENDBRANCH  22  27
ENDBRANCH  17  20
ENDBRANCH  16  17
ENDBRANCH   1  16
TORSDOF 6
