REMARK  Name = ZINCrH000004rRLx.0
REMARK                            x       y       z     vdW  Elec       q    Type
REMARK                         _______ _______ _______ _____ _____    ______ ____
ROOT
ATOM      1  N   LIG    1        5.946   3.082   0.273  0.00  0.00    -0.720 N 
ATOM      2  H   LIG    1        5.787   2.125   0.254  0.00  0.00    +0.410 HD
ATOM      3  C   LIG    1        7.204   3.554   0.374  0.00  0.00    +0.600 C 
ATOM      4  O   LIG    1        7.404   4.754   0.397  0.00  0.00    -0.510 OA
ENDROOT
BRANCH   3   5
ATOM      5  C   LIG    1        8.338   2.619   0.455  0.00  0.00    -0.040 A 
ATOM      6  C   LIG    1        9.675   2.947   0.561  0.00  0.00    +0.040 A 
ATOM      7  C   LIG    1       10.357   1.717   0.606  0.00  0.00    +0.060 A 
ATOM      8  N   LIG    1        9.456   0.760   0.530  0.00  0.00    -0.250 NA
ATOM      9  N   LIG    1        8.273   1.253   0.448  0.00  0.00    -0.370 N 
ATOM     10  H   LIG    1        7.456   0.734   0.386  0.00  0.00    +0.450 HD
BRANCH   7  11
ATOM     11  C   LIG    1       11.826   1.532   0.719  0.00  0.00    -0.000 A 
ATOM     12  C   LIG    1       12.667   2.640   0.787  0.00  0.00    +0.050 A 
ATOM     13  C   LIG    1       14.031   2.463   0.897  0.00  0.00    +0.030 A 
ATOM     14  C   LIG    1       14.565   1.186   0.930  0.00  0.00    -0.030 A 
ATOM     15  C   LIG    1       13.733   0.082   0.858  0.00  0.00    +0.030 A 
ATOM     16 CL   LIG    1       16.282   0.970   1.061  0.00  0.00    -0.070 Cl
ATOM     17  C   LIG    1       12.368   0.249   0.753  0.00  0.00    +0.060 A 
ENDBRANCH   7  11
ENDBRANCH   3   5
BRANCH   1  18
ATOM     18  C   LIG    1        4.818   4.013   0.192  0.00  0.00    +0.320 C 
BRANCH  18  21
ATOM     19  N   LIG    1        2.355   3.889  -0.001  0.00  0.00    -0.660 N 
ATOM     20  H   LIG    1        2.341   4.857  -0.061  0.00  0.00    +0.420 HD
ATOM     21  C   LIG    1        3.531   3.236   0.086  0.00  0.00    +0.510 C 
ATOM     22  O   LIG    1        3.554   2.024   0.080  0.00  0.00    -0.520 OA
BRANCH  19  28
ATOM     23  C   LIG    1       -2.385   3.563   1.260  0.00  0.00    +0.090 C 
ATOM     24  C   LIG    1       -1.159   2.988   0.600  0.00  0.00    -0.070 A 
ATOM     25  C   LIG    1       -1.220   1.751  -0.014  0.00  0.00    -0.010 A 
ATOM     26  C   LIG    1       -0.095   1.217  -0.616  0.00  0.00    +0.030 A 
ATOM     27  C   LIG    1        1.091   1.924  -0.614  0.00  0.00    +0.020 A 
ATOM     28  C   LIG    1        1.155   3.170  -0.003  0.00  0.00    +0.140 A 
ATOM     29  C   LIG    1        0.025   3.700   0.605  0.00  0.00    -0.110 A 
ATOM     30  C   LIG    1        0.090   5.051   1.270  0.00  0.00    +0.090 C 
ENDBRANCH  19  28
ENDBRANCH  18  21
ENDBRANCH   1  18
TORSDOF 5
