REMARK  Name = ZINCpe00000VVGbU.0
REMARK                            x       y       z     vdW  Elec       q    Type
REMARK                         _______ _______ _______ _____ _____    ______ ____
ROOT
ATOM      1  C   LIG    1       -3.626   0.259   0.357  0.00  0.00    +0.150 C 
ATOM      2  C   LIG    1       -4.596   0.067  -0.811  0.00  0.00    +0.160 C 
ATOM      3  N   LIG    1       -5.205  -1.268  -0.721  0.00  0.00    -0.510 NA
ATOM      4  C   LIG    1       -5.916  -1.431   0.556  0.00  0.00    +0.150 C 
ATOM      5  C   LIG    1       -4.933  -1.223   1.711  0.00  0.00    +0.230 C 
ATOM      6  O   LIG    1       -4.326   0.067   1.589  0.00  0.00    -0.370 OA
ENDROOT
BRANCH   3   7
ATOM      7  C   LIG    1       -6.102  -1.516  -1.858  0.00  0.00    +0.180 C 
ATOM      8  C   LIG    1       -7.284  -0.546  -1.795  0.00  0.00    +0.020 C 
BRANCH   7   9
ATOM      9  C   LIG    1       -6.611  -2.933  -1.797  0.00  0.00    +0.520 C 
ATOM     10  N   LIG    1       -7.455  -3.387  -2.744  0.00  0.00    -0.730 N 
ATOM     11  H   LIG    1       -7.735  -2.802  -3.465  0.00  0.00    +0.400 HD
ATOM     12  O   LIG    1       -6.261  -3.664  -0.895  0.00  0.00    -0.520 OA
BRANCH  10  13
ATOM     13  C   LIG    1       -7.950  -4.765  -2.685  0.00  0.00    +0.400 C 
BRANCH  13  14
ATOM     14  C   LIG    1       -8.870  -5.019  -3.851  0.00  0.00    -0.040 A 
ATOM     15  C   LIG    1       -8.500  -5.482  -5.058  0.00  0.00    -0.030 A 
ATOM     16  C   LIG    1       -9.674  -5.568  -5.841  0.00  0.00    -0.070 A 
ATOM     17  C   LIG    1      -10.691  -5.152  -5.066  0.00  0.00    +0.180 A 
ATOM     18  O   LIG    1      -10.199  -4.826  -3.859  0.00  0.00    -0.170 OA
ENDBRANCH  13  14
ENDBRANCH  10  13
ENDBRANCH   7   9
ENDBRANCH   3   7
BRANCH   1  19
ATOM     19  C   LIG    1       -3.049   1.675   0.314  0.00  0.00    +0.360 C 
BRANCH  19  23
ATOM     20  C   LIG    1       -0.816   2.630   4.704  0.00  0.00    +0.180 C 
ATOM     21  C   LIG    1       -1.077   2.239   3.272  0.00  0.00    +0.220 A 
ATOM     22  N   LIG    1       -2.244   2.247   2.683  0.00  0.00    -0.300 NA
ATOM     23  N   LIG    1       -2.034   1.822   1.361  0.00  0.00    -0.370 N 
ATOM     24  C   LIG    1       -0.718   1.572   1.248  0.00  0.00    +0.270 A 
ATOM     25  C   LIG    1       -0.013   1.086   0.008  0.00  0.00    +0.190 C 
ATOM     26  N   LIG    1       -0.156   1.830   2.401  0.00  0.00    -0.540 NA
ENDBRANCH  19  23
ENDBRANCH   1  19
TORSDOF 6
