REMARK  Name = ZINCrH000004rdqK.0
REMARK                            x       y       z     vdW  Elec       q    Type
REMARK                         _______ _______ _______ _____ _____    ______ ____
ROOT
ATOM      1  C   LIG    1        3.667  -2.182  -0.590  0.00  0.00    +0.340 C 
ENDROOT
BRANCH   1   2
ATOM      2  N   LIG    1        2.407  -2.863  -0.280  0.00  0.00    -0.510 N 
ATOM      3  C   LIG    1        2.368  -4.186  -0.042  0.00  0.00    +0.510 A 
ATOM      4  S   LIG    1        0.661  -4.553   0.273  0.00  0.00    -0.010 S 
ATOM      5  C   LIG    1        0.118  -2.877   0.066  0.00  0.00    -0.170 A 
ATOM      6  C   LIG    1       -1.290  -2.352   0.184  0.00  0.00    +0.170 C 
ATOM      7  O   LIG    1        3.303  -4.966  -0.047  0.00  0.00    -0.460 OA
ATOM      8  C   LIG    1        1.225  -2.178  -0.217  0.00  0.00    +0.130 A 
BRANCH   8   9
ATOM      9  C   LIG    1        1.169  -0.720  -0.459  0.00  0.00    -0.060 A 
ATOM     10  C   LIG    1        2.019   0.139   0.240  0.00  0.00    +0.060 A 
ATOM     11  C   LIG    1        1.964   1.498   0.010  0.00  0.00    -0.010 A 
ATOM     12  C   LIG    1        1.067   2.011  -0.913  0.00  0.00    +0.120 A 
ATOM     13  C   LIG    1        0.221   1.163  -1.610  0.00  0.00    +0.000 A 
ATOM     14  F   LIG    1        1.017   3.343  -1.135  0.00  0.00    -0.130 F 
ATOM     15  C   LIG    1        0.268  -0.198  -1.388  0.00  0.00    +0.080 A 
ENDBRANCH   8   9
ENDBRANCH   1   2
BRANCH   1  18
ATOM     16  N   LIG    1        5.570  -1.207   0.653  0.00  0.00    -0.720 N 
ATOM     17  H   LIG    1        5.965  -0.970  -0.200  0.00  0.00    +0.410 HD
ATOM     18  C   LIG    1        4.382  -1.842   0.693  0.00  0.00    +0.500 C 
ATOM     19  O   LIG    1        3.888  -2.139   1.760  0.00  0.00    -0.520 OA
BRANCH  16  20
ATOM     20  C   LIG    1        6.265  -0.876   1.899  0.00  0.00    +0.320 C 
BRANCH  20  25
ATOM     21  C   LIG    1       11.233   1.816   0.679  0.00  0.00    +0.110 C 
ATOM     22  C   LIG    1        9.938   1.113   0.998  0.00  0.00    -0.110 A 
ATOM     23  C   LIG    1        8.780   1.846   1.177  0.00  0.00    +0.050 A 
ATOM     24  C   LIG    1        7.592   1.202   1.468  0.00  0.00    +0.030 A 
ATOM     25  C   LIG    1        7.561  -0.175   1.581  0.00  0.00    -0.090 A 
ATOM     26  C   LIG    1        8.719  -0.910   1.407  0.00  0.00    +0.010 A 
ATOM     27  C   LIG    1        9.908  -0.267   1.110  0.00  0.00    +0.100 A 
ATOM     28  F   LIG    1       11.039  -0.984   0.935  0.00  0.00    -0.130 F 
ENDBRANCH  20  25
ENDBRANCH  16  20
ENDBRANCH   1  18
TORSDOF 5
