REMARK  Name = ZINCpk00000KfLT3.0
REMARK                            x       y       z     vdW  Elec       q    Type
REMARK                         _______ _______ _______ _____ _____    ______ ____
ROOT
ATOM      1  C   LIG    1       -1.409  -0.245   2.989  0.00  0.00    +0.160 C 
ATOM      2  C   LIG    1       -1.407   0.319   4.412  0.00  0.00    +0.190 C 
ATOM      3  N   LIG    1       -2.787   0.368   4.917  0.00  0.00    -0.530 NA
ATOM      4  C   LIG    1       -3.393  -0.971   4.907  0.00  0.00    +0.160 C 
ATOM      5  C   LIG    1       -3.376  -1.522   3.478  0.00  0.00    +0.230 C 
ATOM      6  O   LIG    1       -2.030  -1.533   2.993  0.00  0.00    -0.360 OA
ENDROOT
BRANCH   1   7
ATOM      7  C   LIG    1        0.030  -0.373   2.487  0.00  0.00    +0.370 C 
BRANCH   7  11
ATOM      8  C   LIG    1        0.028  -3.225  -1.639  0.00  0.00    +0.190 C 
ATOM      9  C   LIG    1        0.022  -2.048  -0.698  0.00  0.00    +0.220 A 
ATOM     10  N   LIG    1        0.036  -2.120   0.607  0.00  0.00    -0.300 NA
ATOM     11  N   LIG    1        0.023  -0.799   1.086  0.00  0.00    -0.370 N 
ATOM     12  C   LIG    1        0.002  -0.004   0.002  0.00  0.00    +0.270 A 
ATOM     13  C   LIG    1       -0.018   1.503   0.010  0.00  0.00    +0.190 C 
ATOM     14  N   LIG    1       -0.003  -0.767  -1.061  0.00  0.00    -0.540 NA
ENDBRANCH   7  11
ENDBRANCH   1   7
BRANCH   3  15
ATOM     15  C   LIG    1       -2.835   0.957   6.262  0.00  0.00    +0.360 C 
BRANCH  15  16
ATOM     16  C   LIG    1       -4.269   1.217   6.645  0.00  0.00    +0.190 A 
ATOM     17  N   LIG    1       -5.071   0.387   7.264  0.00  0.00    -0.470 NA
ATOM     18  C   LIG    1       -6.245   1.046   7.394  0.00  0.00    +0.250 A 
ATOM     19  N   LIG    1       -6.087   2.226   6.852  0.00  0.00    -0.370 NA
ATOM     20  O   LIG    1       -4.958   2.340   6.424  0.00  0.00    +0.090 OA
BRANCH  18  21
ATOM     21  C   LIG    1       -7.479   0.527   8.032  0.00  0.00    -0.140 A 
ATOM     22  C   LIG    1       -7.659  -0.694   8.599  0.00  0.00    +0.260 A 
ATOM     23  O   LIG    1       -8.915  -0.768   9.060  0.00  0.00    -0.170 OA
ATOM     24  C   LIG    1       -9.579   0.372   8.816  0.00  0.00    +0.180 A 
ATOM     25  C   LIG    1       -8.758   1.230   8.187  0.00  0.00    -0.030 A 
ENDBRANCH  18  21
ENDBRANCH  15  16
ENDBRANCH   3  15
TORSDOF 5
