REMARK  Name = ZINCqH00000032TD.0
REMARK                            x       y       z     vdW  Elec       q    Type
REMARK                         _______ _______ _______ _____ _____    ______ ____
ROOT
ATOM      1  C   LIG    1       -3.046   0.799   1.567  0.00  0.00    -0.660 A 
ATOM      2  C   LIG    1       -3.568   0.034   0.540  0.00  0.00    +0.110 A 
ATOM      3  C   LIG    1       -4.410  -1.026   0.823  0.00  0.00    +0.020 A 
ATOM      4  C   LIG    1       -4.741  -1.317   2.132  0.00  0.00    +0.050 A 
ATOM      5  C   LIG    1       -4.223  -0.546   3.165  0.00  0.00    +0.130 A 
ATOM      6  C   LIG    1       -3.373   0.514   2.878  0.00  0.00    +0.130 A 
ENDROOT
BRANCH   5   7
ATOM      7  N   LIG    1       -4.557  -0.838   4.491  0.00  0.00    -0.660 N 
ATOM      8  H   LIG    1       -4.708  -1.757   4.763  0.00  0.00    +0.420 HD
ATOM      9  C   LIG    1       -4.667   0.158   5.393  0.00  0.00    +0.600 C 
ATOM     10  O   LIG    1       -4.572   1.317   5.034  0.00  0.00    -0.480 OA
BRANCH   9  11
ATOM     11  C   LIG    1       -4.903  -0.156   6.809  0.00  0.00    -0.040 A 
ATOM     12  C   LIG    1       -5.026   0.762   7.803  0.00  0.00    +0.080 A 
ATOM     13  C   LIG    1       -5.251   0.001   9.031  0.00  0.00    -0.150 A 
ATOM     14  C   LIG    1       -5.452   0.349  10.369  0.00  0.00    +0.070 A 
ATOM     15  C   LIG    1       -5.633  -0.632  11.304  0.00  0.00    +0.000 A 
ATOM     16  C   LIG    1       -5.618  -1.969  10.932  0.00  0.00    +0.060 A 
ATOM     17  C   LIG    1       -5.421  -2.333   9.617  0.00  0.00    +0.030 A 
ATOM     18  C   LIG    1       -5.235  -1.354   8.649  0.00  0.00    +0.070 A 
ATOM     19  O   LIG    1       -5.025  -1.399   7.319  0.00  0.00    -0.190 OA
ENDBRANCH   9  11
ENDBRANCH   5   7
BRANCH   1  20
ATOM     20  S   LIG    1       -1.968   2.145   1.202  0.00  0.00    +2.690 S 
ATOM     21  O   LIG    1       -2.250   2.533  -0.136  0.00  0.00    -0.950 OA
ATOM     22  O   LIG    1       -2.052   3.037   2.305  0.00  0.00    -0.940 OA
BRANCH  20  23
ATOM     23  N   LIG    1       -0.423   1.548   1.200  0.00  0.00    -1.000 NA
BRANCH  23  25
ATOM     24  C   LIG    1       -0.036  -0.488  -0.099  0.00  0.00    +0.010 C 
ATOM     25  C   LIG    1        0.160   1.029  -0.040  0.00  0.00    +0.290 C 
ENDBRANCH  23  25
BRANCH  23  26
ATOM     26  C   LIG    1        0.361   1.540   2.437  0.00  0.00    +0.280 C 
ATOM     27  C   LIG    1        1.235   2.794   2.495  0.00  0.00    +0.020 C 
ENDBRANCH  23  26
ENDBRANCH  20  23
ENDBRANCH   1  20
TORSDOF 6
