REMARK  Name = ZINCpe000000UpC6.0
REMARK                            x       y       z     vdW  Elec       q    Type
REMARK                         _______ _______ _______ _____ _____    ______ ____
ROOT
ATOM      1  C   LIG    1       -1.315   4.187  -1.117  0.00  0.00    +0.250 C 
ATOM      2  C   LIG    1       -1.511   4.561  -2.587  0.00  0.00    +0.040 C 
ATOM      3  C   LIG    1       -2.293   5.875  -2.675  0.00  0.00    +0.010 C 
ATOM      4  C   LIG    1       -3.632   5.712  -1.951  0.00  0.00    +0.020 C 
ATOM      5  C   LIG    1       -3.375   5.304  -0.498  0.00  0.00    +0.160 C 
ATOM      6  N   LIG    1       -2.625   4.042  -0.469  0.00  0.00    -0.510 NA
ENDROOT
BRANCH   1  12
ATOM      7  C   LIG    1        0.795   2.733  -0.668  0.00  0.00    -0.290 A 
ATOM      8  C   LIG    1        1.080   1.383  -0.710  0.00  0.00    +0.280 A 
ATOM      9  N   LIG    1       -0.044   0.746  -1.074  0.00  0.00    -0.460 N 
ATOM     10  H   LIG    1       -0.142  -0.212  -1.186  0.00  0.00    +0.450 HD
ATOM     11  N   LIG    1       -1.050   1.699  -1.270  0.00  0.00    -0.260 NA
ATOM     12  C   LIG    1       -0.563   2.884  -1.026  0.00  0.00    +0.140 A 
BRANCH   7  15
ATOM     13  C   LIG    1        3.920   4.587   0.433  0.00  0.00    +0.300 C 
ATOM     14  N   LIG    1        3.011   3.523  -0.000  0.00  0.00    -0.620 N 
ATOM     15  C   LIG    1        1.733   3.815  -0.315  0.00  0.00    +0.590 C 
ATOM     16  O   LIG    1        1.354   4.970  -0.309  0.00  0.00    -0.540 OA
ATOM     17  C   LIG    1        3.490   2.142  -0.091  0.00  0.00    +0.290 C 
ENDBRANCH   7  15
ENDBRANCH   1  12
BRANCH   6  18
ATOM     18  C   LIG    1       -2.480   3.548   0.907  0.00  0.00    +0.150 C 
BRANCH  18  19
ATOM     19  C   LIG    1       -3.855   3.488   1.575  0.00  0.00    +0.220 C 
BRANCH  19  20
ATOM     20  O   LIG    1       -4.693   2.578   0.860  0.00  0.00    -0.530 OA
ATOM     21  H   LIG    1       -4.353   1.674   0.826  0.00  0.00    +0.370 HD
ENDBRANCH  19  20
BRANCH  19  22
ATOM     22  C   LIG    1       -3.700   3.010   3.020  0.00  0.00    +0.290 C 
BRANCH  22  23
ATOM     23  N   LIG    1       -4.999   3.066   3.695  0.00  0.00    -0.360 N 
ATOM     24  C   LIG    1       -5.613   2.041   4.322  0.00  0.00    +0.220 A 
ATOM     25  C   LIG    1       -6.785   2.502   4.816  0.00  0.00    -0.120 A 
ATOM     26  C   LIG    1       -6.896   3.853   4.471  0.00  0.00    +0.230 A 
ATOM     27  N   LIG    1       -5.826   4.192   3.799  0.00  0.00    -0.290 NA
ENDBRANCH  22  23
ENDBRANCH  19  22
ENDBRANCH  18  19
ENDBRANCH   6  18
TORSDOF 7
