REMARK  Name = ZINCvU0000000FBU.0
REMARK                            x       y       z     vdW  Elec       q    Type
REMARK                         _______ _______ _______ _____ _____    ______ ____
ROOT
ATOM      1  N   LIG    1       -1.185   1.883   0.018  0.00  0.00    -0.510 N 
ATOM      2  C   LIG    1       -0.014   1.212   0.009  0.00  0.00    +0.570 A 
ATOM      3  C   LIG    1        1.244   1.980   0.001  0.00  0.00    -0.160 A 
ATOM      4  C   LIG    1        2.482   1.339  -0.015  0.00  0.00    +0.130 A 
ATOM      5  C   LIG    1        3.638   2.091  -0.023  0.00  0.00    +0.020 A 
ATOM      6  C   LIG    1        3.574   3.475  -0.014  0.00  0.00    +0.100 A 
ATOM      7  C   LIG    1        2.353   4.122   0.002  0.00  0.00    +0.000 A 
ATOM      8  C   LIG    1        1.181   3.381   0.009  0.00  0.00    +0.170 A 
ATOM      9  N   LIG    1       -0.064   4.008   0.025  0.00  0.00    -0.440 N 
ATOM     10  C   LIG    1       -0.410   5.332   0.035  0.00  0.00    +0.210 A 
ATOM     11  N   LIG    1       -1.719   5.408   0.048  0.00  0.00    -0.280 NA
ATOM     12  N   LIG    1       -2.229   4.105   0.046  0.00  0.00    -0.310 NA
ATOM     13  O   LIG    1        0.002  -0.004   0.002  0.00  0.00    -0.490 OA
ATOM     14  C   LIG    1       -1.215   3.269   0.031  0.00  0.00    +0.460 A 
ENDROOT
BRANCH   1  15
ATOM     15  C   LIG    1       -2.444   1.134   0.019  0.00  0.00    +0.310 C 
BRANCH  15  16
ATOM     16  C   LIG    1       -2.876   0.865   1.462  0.00  0.00    +0.010 C 
BRANCH  16  18
ATOM     17  C   LIG    1       -4.559  -0.294   2.900  0.00  0.00    +0.020 C 
ATOM     18  C   LIG    1       -4.191   0.084   1.463  0.00  0.00    -0.020 C 
ATOM     19  C   LIG    1       -5.300   0.950   0.864  0.00  0.00    +0.030 C 
ENDBRANCH  16  18
ENDBRANCH  15  16
ENDBRANCH   1  15
BRANCH  10  20
ATOM     20  S   LIG    1        0.707   6.695   0.032  0.00  0.00    +0.070 S 
BRANCH  20  21
ATOM     21  C   LIG    1       -0.402   8.131   0.051  0.00  0.00    -0.010 C 
ATOM     22  C   LIG    1       -1.184   8.155   1.366  0.00  0.00    +0.100 C 
BRANCH  21  23
ATOM     23  C   LIG    1        0.410   9.395  -0.074  0.00  0.00    +0.430 C 
ATOM     24  O   LIG    1        1.570   9.407   0.280  0.00  0.00    -0.430 OA
BRANCH  23  25
ATOM     25  C   LIG    1       -0.204  10.613  -0.625  0.00  0.00    -0.150 A 
ATOM     26  C   LIG    1        0.546  11.787  -0.742  0.00  0.00    +0.090 A 
ATOM     27  C   LIG    1       -0.036  12.925  -1.259  0.00  0.00    +0.020 A 
ATOM     28  C   LIG    1       -1.360  12.908  -1.663  0.00  0.00    +0.070 A 
ATOM     29  C   LIG    1       -2.110  11.749  -1.550  0.00  0.00    -0.050 A 
ATOM     30 CL   LIG    1       -3.770  11.739  -2.059  0.00  0.00    -0.060 Cl
ATOM     31  C   LIG    1       -1.540  10.601  -1.039  0.00  0.00    +0.090 A 
ENDBRANCH  23  25
ENDBRANCH  21  23
ENDBRANCH  20  21
ENDBRANCH  10  20
TORSDOF 7
