REMARK  Name = ZINCvU00000008Jf.0
REMARK                            x       y       z     vdW  Elec       q    Type
REMARK                         _______ _______ _______ _____ _____    ______ ____
ROOT
ATOM      1  C   LIG    1       -1.775   4.796   3.299  0.00  0.00    +0.380 A 
ATOM      2  N   LIG    1       -1.297   5.205   4.450  0.00  0.00    -0.500 NA
ATOM      3  C   LIG    1       -1.019   4.336   5.445  0.00  0.00    +0.080 A 
ATOM      4  C   LIG    1       -1.241   2.981   5.255  0.00  0.00    -0.210 A 
ATOM      5  C   LIG    1       -0.890   2.177   6.429  0.00  0.00    -0.050 A 
ATOM      6  C   LIG    1       -0.428   2.888   7.447  0.00  0.00    -0.230 A 
ATOM      7  C   LIG    1       -0.088   1.979   8.625  0.00  0.00    +0.130 C 
ATOM      8  C   LIG    1       -0.828   0.659   8.331  0.00  0.00    +0.050 C 
ATOM      9  C   LIG    1       -0.919   0.693   6.792  0.00  0.00    +0.100 C 
ATOM     10  C   LIG    1       -1.766   2.551   3.999  0.00  0.00    +0.570 A 
ATOM     11  O   LIG    1       -1.982   1.370   3.787  0.00  0.00    -0.490 OA
ATOM     12  S   LIG    1       -0.382   4.607   7.059  0.00  0.00    +0.220 S 
ATOM     13  N   LIG    1       -2.015   3.476   3.051  0.00  0.00    -0.510 N 
ENDROOT
BRANCH   1  14
ATOM     14  S   LIG    1       -2.117   5.983   2.042  0.00  0.00    +0.030 S 
BRANCH  14  16
ATOM     15  C   LIG    1       -2.555   7.735   4.091  0.00  0.00    +0.100 C 
ATOM     16  C   LIG    1       -1.626   7.500   2.899  0.00  0.00    +0.140 C 
BRANCH  16  17
ATOM     17  C   LIG    1       -1.721   8.666   1.950  0.00  0.00    +0.090 A 
ATOM     18  N   LIG    1       -0.825   9.571   1.830  0.00  0.00    -0.450 NA
ATOM     19  C   LIG    1       -1.043  10.558   0.940  0.00  0.00    +0.080 A 
ATOM     20  C   LIG    1       -0.237  11.665   0.609  0.00  0.00    +0.080 A 
ATOM     21  C   LIG    1       -0.646  12.560  -0.334  0.00  0.00    +0.030 A 
ATOM     22  C   LIG    1       -1.861  12.399  -0.984  0.00  0.00    +0.050 A 
ATOM     23  C   LIG    1       -2.670  11.326  -0.681  0.00  0.00    +0.060 A 
ATOM     24  C   LIG    1       -2.267  10.402   0.280  0.00  0.00    -0.180 A 
ATOM     25  S   LIG    1       -3.034   8.941   0.895  0.00  0.00    +0.120 S 
ENDBRANCH  16  17
ENDBRANCH  14  16
ENDBRANCH   1  14
BRANCH  13  26
ATOM     26  C   LIG    1       -2.550   3.063   1.751  0.00  0.00    +0.320 C 
BRANCH  26  27
ATOM     27  C   LIG    1       -1.394   2.771   0.793  0.00  0.00    +0.140 C 
ATOM     28  C   LIG    1       -1.928   2.453  -0.626  0.00  0.00    +0.020 C 
ATOM     29  C   LIG    1       -0.778   1.606  -1.224  0.00  0.00    +0.010 C 
ATOM     30  C   LIG    1       -0.013   1.086   0.008  0.00  0.00    +0.190 C 
ATOM     31  O   LIG    1       -0.705   1.559   1.176  0.00  0.00    -0.360 OA
ENDBRANCH  26  27
ENDBRANCH  13  26
TORSDOF 5
