REMARK  Name = ZINCpk000000nws7.0
REMARK                            x       y       z     vdW  Elec       q    Type
REMARK                         _______ _______ _______ _____ _____    ______ ____
ROOT
ATOM      1  C   LIG    1        6.064   0.784  -0.047  0.00  0.00    +0.250 C 
ENDROOT
BRANCH   1   2
ATOM      2  N   LIG    1        4.625   0.520   0.021  0.00  0.00    -0.560 N 
ATOM      3  C   LIG    1        3.687   1.464   0.217  0.00  0.00    +0.580 C 
ATOM      4  C   LIG    1        2.359   0.814   0.226  0.00  0.00    -0.140 A 
ATOM      5  C   LIG    1        1.060   1.268   0.382  0.00  0.00    +0.100 A 
ATOM      6  C   LIG    1        0.006   0.368   0.337  0.00  0.00    +0.040 A 
ATOM      7  C   LIG    1        0.244  -0.979   0.138  0.00  0.00    +0.050 A 
ATOM      8  C   LIG    1        1.539  -1.448  -0.019  0.00  0.00    +0.090 A 
ATOM      9  C   LIG    1        2.601  -0.560   0.023  0.00  0.00    -0.130 A 
ATOM     10  O   LIG    1        3.895   2.651   0.362  0.00  0.00    -0.470 OA
ATOM     11  C   LIG    1        4.068  -0.698  -0.102  0.00  0.00    +0.580 C 
ATOM     12  O   LIG    1        4.669  -1.737  -0.286  0.00  0.00    -0.430 OA
ENDBRANCH   1   2
BRANCH   1  13
ATOM     13  C   LIG    1        6.768   0.018   1.043  0.00  0.00    +0.510 C 
ATOM     14  N   LIG    1        7.987   0.409   1.463  0.00  0.00    -0.610 N 
ATOM     15  C   LIG    1        8.604   1.641   0.947  0.00  0.00    +0.290 C 
ATOM     16  C   LIG    1        9.059   2.490   2.144  0.00  0.00    +0.170 C 
ATOM     17  N   LIG    1        9.924   1.680   3.012  0.00  0.00    -0.540 NA
ATOM     18  C   LIG    1        9.191   0.540   3.579  0.00  0.00    +0.170 C 
ATOM     19  C   LIG    1       10.522   2.501   4.073  0.00  0.00    +0.190 C 
ATOM     20  C   LIG    1        8.739  -0.387   2.445  0.00  0.00    +0.300 C 
ATOM     21  O   LIG    1        6.237  -0.951   1.543  0.00  0.00    -0.510 OA
ENDBRANCH   1  13
BRANCH   1  22
ATOM     22  C   LIG    1        6.600   0.340  -1.410  0.00  0.00    +0.050 C 
BRANCH  22  24
ATOM     23  C   LIG    1        6.479   2.658  -2.332  0.00  0.00    +0.030 C 
ATOM     24  C   LIG    1        5.995   1.218  -2.507  0.00  0.00    -0.030 C 
ATOM     25  C   LIG    1        6.432   0.696  -3.877  0.00  0.00    +0.030 C 
ENDBRANCH  22  24
ENDBRANCH   1  22
TORSDOF 4
