REMARK  Name = ZINCwl0000000kqk.1
REMARK                            x       y       z     vdW  Elec       q    Type
REMARK                         _______ _______ _______ _____ _____    ______ ____
ROOT
ATOM      1  C   LIG    1        3.223   5.192  -0.809  0.00  0.00    +0.270 C 
ENDROOT
BRANCH   1   2
ATOM      2  N   LIG    1        4.620   5.529  -1.111  0.00  0.00    -0.380 N 
ATOM      3  C   LIG    1        5.487   5.029  -0.035  0.00  0.00    +0.320 C 
ATOM      4  H   LIG    1        4.888   5.101  -1.985  0.00  0.00    +0.430 HD
BRANCH   2   5
ATOM      5  C   LIG    1        4.761   6.987  -1.216  0.00  0.00    +0.260 C 
BRANCH   5   6
ATOM      6  C   LIG    1        6.187   7.332  -1.652  0.00  0.00    +0.040 C 
BRANCH   6   7
ATOM      7  C   LIG    1        6.333   8.851  -1.761  0.00  0.00    +0.290 C 
BRANCH   7   8
ATOM      8  N   LIG    1        7.698   9.181  -2.179  0.00  0.00    -1.110 NA
ATOM      9  H   LIG    1        8.396   8.509  -2.130  0.00  0.00    +0.420 HD
BRANCH   8  10
ATOM     10  S   LIG    1        8.049  10.700  -2.736  0.00  0.00    +2.740 S 
ATOM     11  O   LIG    1        7.054  11.014  -3.701  0.00  0.00    -0.930 OA
ATOM     12  O   LIG    1        9.441  10.711  -3.023  0.00  0.00    -0.930 OA
BRANCH  10  17
ATOM     13  C   LIG    1        5.918  14.016   0.616  0.00  0.00    +0.410 C 
ATOM     14  N   LIG    1        6.920  13.169  -0.036  0.00  0.00    -0.130 N 
ATOM     15  N   LIG    1        8.140  13.048   0.354  0.00  0.00    -0.280 NA
ATOM     16  C   LIG    1        8.759  12.214  -0.450  0.00  0.00    +0.290 A 
ATOM     17  C   LIG    1        7.809  11.816  -1.394  0.00  0.00    -0.580 A 
ATOM     18  N   LIG    1        6.702  12.449  -1.078  0.00  0.00    -0.180 NA
ENDBRANCH  10  17
ENDBRANCH   8  10
ENDBRANCH   7   8
ENDBRANCH   6   7
ENDBRANCH   5   6
ENDBRANCH   2   5
ENDBRANCH   1   2
BRANCH   1  19
ATOM     19  C   LIG    1        3.049   3.672  -0.823  0.00  0.00    +0.040 C 
BRANCH  19  20
ATOM     20  C   LIG    1        1.594   3.322  -0.508  0.00  0.00    +0.280 C 
BRANCH  20  21
ATOM     21  N   LIG    1        1.428   1.866  -0.521  0.00  0.00    -0.730 N 
ATOM     22  H   LIG    1        2.187   1.293  -0.712  0.00  0.00    +0.400 HD
ATOM     23  C   LIG    1        0.221   1.323  -0.269  0.00  0.00    +0.550 C 
ATOM     24  O   LIG    1       -0.730   2.040  -0.036  0.00  0.00    -0.520 OA
BRANCH  23  25
ATOM     25  C   LIG    1        0.050  -0.174  -0.283  0.00  0.00    -0.050 C 
ATOM     26  C   LIG    1       -0.786  -0.780  -1.412  0.00  0.00    +0.100 C 
ATOM     27  C   LIG    1       -1.345  -0.729   0.011  0.00  0.00    +0.050 C 
BRANCH  27  28
ATOM     28  C   LIG    1       -1.432  -2.027   0.771  0.00  0.00    -0.080 A 
ATOM     29  C   LIG    1       -0.698  -3.124   0.354  0.00  0.00    +0.110 A 
ATOM     30  C   LIG    1       -0.778  -4.317   1.054  0.00  0.00    +0.010 A 
ATOM     31  C   LIG    1       -1.591  -4.411   2.167  0.00  0.00    +0.070 A 
ATOM     32  C   LIG    1       -2.325  -3.316   2.583  0.00  0.00    +0.040 A 
ATOM     33  F   LIG    1        0.097  -3.031  -0.734  0.00  0.00    -0.130 F 
ATOM     34  C   LIG    1       -2.241  -2.122   1.889  0.00  0.00    -0.000 A 
ATOM     35 CL   LIG    1       -3.157  -0.745   2.417  0.00  0.00    -0.040 Cl
ENDBRANCH  27  28
ENDBRANCH  23  25
ENDBRANCH  20  21
ENDBRANCH  19  20
ENDBRANCH   1  19
TORSDOF 12
