REMARK  Name = ZINCwl0000000kqk.0
REMARK                            x       y       z     vdW  Elec       q    Type
REMARK                         _______ _______ _______ _____ _____    ______ ____
ROOT
ATOM      1  C   LIG    1       -1.015   2.547  -0.183  0.00  0.00    +0.270 C 
ENDROOT
BRANCH   1   2
ATOM      2  N   LIG    1       -0.530   2.255   1.172  0.00  0.00    -0.380 N 
ATOM      3  C   LIG    1       -1.488   2.773   2.157  0.00  0.00    +0.330 C 
ATOM      4  H   LIG    1        0.367   2.695   1.311  0.00  0.00    +0.430 HD
BRANCH   2   5
ATOM      5  C   LIG    1       -0.393   0.802   1.340  0.00  0.00    +0.270 C 
BRANCH   5   6
ATOM      6  C   LIG    1        0.229   0.503   2.706  0.00  0.00    +0.040 C 
BRANCH   6   7
ATOM      7  C   LIG    1        0.371  -1.011   2.881  0.00  0.00    +0.290 C 
BRANCH   7   8
ATOM      8  N   LIG    1        0.966  -1.297   4.189  0.00  0.00    -1.110 NA
ATOM      9  H   LIG    1        1.398  -0.588   4.691  0.00  0.00    +0.420 HD
BRANCH   8  10
ATOM     10  S   LIG    1        0.902  -2.831   4.810  0.00  0.00    +2.740 S 
ATOM     11  O   LIG    1       -0.446  -3.260   4.679  0.00  0.00    -0.930 OA
ATOM     12  O   LIG    1        1.586  -2.789   6.054  0.00  0.00    -0.930 OA
BRANCH  10  17
ATOM     13  C   LIG    1        2.345  -6.016   0.997  0.00  0.00    +0.410 C 
ATOM     14  N   LIG    1        2.428  -5.165   2.186  0.00  0.00    -0.130 N 
ATOM     15  N   LIG    1        3.502  -4.954   2.860  0.00  0.00    -0.280 NA
ATOM     16  C   LIG    1        3.222  -4.146   3.858  0.00  0.00    +0.290 A 
ATOM     17  C   LIG    1        1.859  -3.863   3.750  0.00  0.00    -0.580 A 
ATOM     18  N   LIG    1        1.435  -4.529   2.700  0.00  0.00    -0.180 NA
ENDBRANCH  10  17
ENDBRANCH   8  10
ENDBRANCH   7   8
ENDBRANCH   6   7
ENDBRANCH   5   6
ENDBRANCH   2   5
ENDBRANCH   1   2
BRANCH   1  19
ATOM     19  C   LIG    1       -1.038   4.061  -0.401  0.00  0.00    +0.040 C 
BRANCH  19  20
ATOM     20  C   LIG    1       -1.543   4.366  -1.813  0.00  0.00    +0.280 C 
BRANCH  20  21
ATOM     21  N   LIG    1       -1.566   5.816  -2.021  0.00  0.00    -0.730 N 
ATOM     22  H   LIG    1       -1.284   6.412  -1.310  0.00  0.00    +0.400 HD
ATOM     23  C   LIG    1       -1.979   6.321  -3.200  0.00  0.00    +0.550 C 
ATOM     24  O   LIG    1       -2.331   5.575  -4.089  0.00  0.00    -0.520 OA
BRANCH  23  25
ATOM     25  C   LIG    1       -2.002   7.813  -3.414  0.00  0.00    -0.050 C 
ATOM     26  C   LIG    1       -3.370   8.487  -3.541  0.00  0.00    +0.090 C 
ATOM     27  C   LIG    1       -2.481   8.323  -4.775  0.00  0.00    +0.060 C 
BRANCH  27  28
ATOM     28  C   LIG    1       -1.820   9.561  -5.325  0.00  0.00    -0.090 A 
ATOM     29  C   LIG    1       -1.718  10.698  -4.542  0.00  0.00    +0.110 A 
ATOM     30  C   LIG    1       -1.105  11.833  -5.046  0.00  0.00    +0.010 A 
ATOM     31  C   LIG    1       -0.606  11.834  -6.335  0.00  0.00    +0.070 A 
ATOM     32  C   LIG    1       -0.714  10.700  -7.119  0.00  0.00    +0.040 A 
ATOM     33  F   LIG    1       -2.210  10.698  -3.284  0.00  0.00    -0.130 F 
ATOM     34  C   LIG    1       -1.321   9.564  -6.615  0.00  0.00    -0.000 A 
ATOM     35 CL   LIG    1       -1.454   8.141  -7.601  0.00  0.00    -0.040 Cl
ENDBRANCH  27  28
ENDBRANCH  23  25
ENDBRANCH  20  21
ENDBRANCH  19  20
ENDBRANCH   1  19
TORSDOF 12
