REMARK  Name = ZINCnE00000rhmEP.0
REMARK                            x       y       z     vdW  Elec       q    Type
REMARK                         _______ _______ _______ _____ _____    ______ ____
ROOT
ATOM      1  O   LIG    1       -1.080   2.053   0.018  0.00  0.00    -0.520 OA
ATOM      2  C   LIG    1       -0.018   1.459   0.010  0.00  0.00    +0.590 C 
ATOM      3  N   LIG    1        1.140   2.148   0.003  0.00  0.00    -0.720 N 
ATOM      4  H   LIG    1        1.987   1.675  -0.008  0.00  0.00    +0.400 HD
ENDROOT
BRANCH   3   5
ATOM      5  C   LIG    1        1.120   3.613   0.011  0.00  0.00    +0.230 C 
ATOM      6  C   LIG    1        1.002   4.106   1.450  0.00  0.00    +0.030 C 
ATOM      7  C   LIG    1        0.705   5.608   1.465  0.00  0.00    +0.080 C 
ATOM      8  S   LIG    1        2.105   6.490   0.713  0.00  0.00    -0.220 S 
ATOM      9  C   LIG    1        2.281   5.643  -0.885  0.00  0.00    -0.030 C 
ATOM     10  C   LIG    1        2.400   4.137  -0.636  0.00  0.00    +0.050 C 
BRANCH   9  11
ATOM     11  C   LIG    1        3.519   6.138  -1.586  0.00  0.00    +0.520 C 
ATOM     12  O   LIG    1        3.599   6.074  -2.801  0.00  0.00    -0.690 OA
ATOM     13  O   LIG    1        4.442   6.602  -0.938  0.00  0.00    -0.670 OA
ENDBRANCH   9  11
ENDBRANCH   3   5
BRANCH   2  14
ATOM     14  C   LIG    1        0.002  -0.004   0.002  0.00  0.00    -0.260 A 
ATOM     15  C   LIG    1       -1.109  -0.820   0.008  0.00  0.00    +0.010 A 
ATOM     16  C   LIG    1       -0.787  -2.168  -0.002  0.00  0.00    +0.010 A 
ATOM     17  C   LIG    1        0.519  -2.436  -0.016  0.00  0.00    -0.060 A 
ATOM     18  S   LIG    1        1.447  -1.005  -0.025  0.00  0.00    +0.210 S 
BRANCH  15  19
ATOM     19  C   LIG    1       -2.500  -0.309   0.024  0.00  0.00    -0.040 A 
ATOM     20  C   LIG    1       -2.883   0.650   0.960  0.00  0.00    +0.070 A 
ATOM     21  C   LIG    1       -4.179   1.126   0.966  0.00  0.00    -0.010 A 
ATOM     22  C   LIG    1       -5.100   0.643   0.053  0.00  0.00    +0.010 A 
ATOM     23  C   LIG    1       -4.727  -0.313  -0.875  0.00  0.00    -0.010 A 
ATOM     24  C   LIG    1       -3.433  -0.792  -0.894  0.00  0.00    +0.020 A 
ENDBRANCH  15  19
ENDBRANCH   2  14
TORSDOF 4
