REMARK  Name = ZINCrH000004r5Dv.0
REMARK                            x       y       z     vdW  Elec       q    Type
REMARK                         _______ _______ _______ _____ _____    ______ ____
ROOT
ATOM      1  C   LIG    1        1.693   7.213   1.006  0.00  0.00    +0.160 A 
ATOM      2  C   LIG    1        0.504   7.931   1.026  0.00  0.00    -0.020 A 
ATOM      3  C   LIG    1       -0.704   7.268   1.135  0.00  0.00    +0.050 A 
ATOM      4  C   LIG    1       -0.733   5.890   1.224  0.00  0.00    +0.010 A 
ATOM      5  C   LIG    1        0.453   5.166   1.205  0.00  0.00    +0.160 A 
ATOM      6  C   LIG    1        1.667   5.829   1.101  0.00  0.00    +0.000 A 
ENDROOT
BRANCH   1   8
ATOM      7  C   LIG    1        3.928   7.330   0.203  0.00  0.00    +0.560 C 
ATOM      8  N   LIG    1        2.914   7.885   0.896  0.00  0.00    -0.670 N 
ATOM      9  H   LIG    1        3.032   8.750   1.319  0.00  0.00    +0.410 HD
ATOM     10  O   LIG    1        3.810   6.211  -0.256  0.00  0.00    -0.510 OA
BRANCH   7  15
ATOM     11  C   LIG    1        8.814  10.269  -0.589  0.00  0.00    +0.120 C 
ATOM     12  C   LIG    1        7.535   9.499  -0.381  0.00  0.00    -0.090 A 
ATOM     13  C   LIG    1        6.496  10.069   0.331  0.00  0.00    +0.040 A 
ATOM     14  C   LIG    1        5.320   9.372   0.519  0.00  0.00    +0.040 A 
ATOM     15  C   LIG    1        5.184   8.084  -0.001  0.00  0.00    -0.120 A 
ATOM     16  C   LIG    1        6.236   7.512  -0.719  0.00  0.00    +0.060 A 
ATOM     17  C   LIG    1        7.406   8.222  -0.905  0.00  0.00    +0.090 A 
ATOM     18  F   LIG    1        8.426   7.672  -1.600  0.00  0.00    -0.130 F 
ENDBRANCH   7  15
ENDBRANCH   1   8
BRANCH   5  19
ATOM     19  N   LIG    1        0.423   3.770   1.296  0.00  0.00    -0.670 N 
ATOM     20  H   LIG    1        1.125   3.300   1.772  0.00  0.00    +0.410 HD
ATOM     21  C   LIG    1       -0.582   3.079   0.723  0.00  0.00    +0.500 C 
ATOM     22  O   LIG    1       -1.504   3.669   0.201  0.00  0.00    -0.500 OA
BRANCH  21  23
ATOM     23  C   LIG    1       -0.561   1.572   0.731  0.00  0.00    +0.280 C 
ATOM     24  C   LIG    1        0.691   1.076   0.004  0.00  0.00    +0.100 C 
BRANCH  23  25
ATOM     25  N   LIG    1       -1.754   1.063   0.051  0.00  0.00    -0.360 N 
ATOM     26  C   LIG    1       -1.894   0.884  -1.280  0.00  0.00    +0.240 A 
ATOM     27  C   LIG    1       -3.137   0.397  -1.502  0.00  0.00    -0.120 A 
ATOM     28  C   LIG    1       -3.782   0.283  -0.266  0.00  0.00    +0.240 A 
ATOM     29  N   LIG    1       -2.954   0.682   0.666  0.00  0.00    -0.290 NA
ENDBRANCH  23  25
ENDBRANCH  21  23
ENDBRANCH   5  19
TORSDOF 5
