REMARK  Name = ZINCpe00000gMcYr.0
REMARK                            x       y       z     vdW  Elec       q    Type
REMARK                         _______ _______ _______ _____ _____    ______ ____
ROOT
ATOM      1  C   LIG    1        1.233  -0.702  -0.026  0.00  0.00    +0.230 A 
ATOM      2  C   LIG    1        2.421   0.004   0.045  0.00  0.00    -0.140 A 
ATOM      3  C   LIG    1        2.380   1.405   0.057  0.00  0.00    +0.520 A 
ATOM      4  N   LIG    1        1.191   2.037   0.000  0.00  0.00    -0.370 N 
ATOM      5  N   LIG    1        0.000   1.307  -0.071  0.00  0.00    -0.200 NA
ATOM      6  O   LIG    1        3.416   2.050   0.119  0.00  0.00    -0.500 OA
ATOM      7 CL   LIG    1        3.940  -0.834   0.116  0.00  0.00    -0.000 Cl
ATOM      8  C   LIG    1        0.011   0.003  -0.084  0.00  0.00    +0.310 A 
ENDROOT
BRANCH   4   9
ATOM      9  C   LIG    1        1.147   3.432   0.012  0.00  0.00    +0.180 A 
ATOM     10  C   LIG    1        0.278   4.092   0.875  0.00  0.00    +0.020 A 
ATOM     11  C   LIG    1        0.236   5.468   0.892  0.00  0.00    +0.100 A 
ATOM     12  C   LIG    1        1.060   6.202   0.034  0.00  0.00    -0.120 A 
ATOM     13  C   LIG    1        1.928   5.536  -0.835  0.00  0.00    +0.110 A 
ATOM     14  C   LIG    1        1.969   4.160  -0.843  0.00  0.00    +0.030 A 
BRANCH  12  15
ATOM     15  C   LIG    1        1.014   7.677   0.047  0.00  0.00    +0.510 C 
ATOM     16  O   LIG    1        1.731   8.313  -0.699  0.00  0.00    -0.500 OA
BRANCH  15  17
ATOM     17  O   LIG    1        0.176   8.318   0.885  0.00  0.00    -0.350 OA
ATOM     18  C   LIG    1        0.184   9.769   0.843  0.00  0.00    +0.280 C 
ENDBRANCH  15  17
ENDBRANCH  12  15
ENDBRANCH   4   9
BRANCH   1  19
ATOM     19  N   LIG    1        1.242  -2.086  -0.039  0.00  0.00    -0.630 N 
ATOM     20  C   LIG    1        0.777  -2.811  -1.225  0.00  0.00    +0.310 C 
BRANCH  19  21
ATOM     21  C   LIG    1        1.718  -2.827   1.132  0.00  0.00    +0.320 C 
BRANCH  21  25
ATOM     22  C   LIG    1       -0.362  -4.028   4.113  0.00  0.00    +0.290 C 
ATOM     23  N   LIG    1        0.762  -3.767   3.211  0.00  0.00    -0.740 N 
ATOM     24  H   LIG    1        1.652  -4.079   3.441  0.00  0.00    +0.400 HD
ATOM     25  C   LIG    1        0.561  -3.095   2.060  0.00  0.00    +0.490 C 
ATOM     26  O   LIG    1       -0.551  -2.706   1.772  0.00  0.00    -0.530 OA
ENDBRANCH  21  25
ENDBRANCH  19  21
ENDBRANCH   1  19
TORSDOF 6
