REMARK  Name = ZINCrH000004oj0j.0
REMARK                            x       y       z     vdW  Elec       q    Type
REMARK                         _______ _______ _______ _____ _____    ______ ____
ROOT
ATOM      1  N   LIG    1        4.374   5.678   2.209  0.00  0.00    -0.740 N 
ATOM      2  H   LIG    1        3.878   5.470   3.016  0.00  0.00    +0.390 HD
ATOM      3  C   LIG    1        3.973   5.176   1.024  0.00  0.00    +0.710 C 
ATOM      4  N   LIG    1        2.883   4.386   0.961  0.00  0.00    -0.730 N 
ATOM      5  H   LIG    1        2.387   4.178   1.768  0.00  0.00    +0.390 HD
ATOM      6  O   LIG    1        4.595   5.437   0.012  0.00  0.00    -0.580 OA
ENDROOT
BRANCH   1   8
ATOM      7  C   LIG    1        6.813   5.668   2.387  0.00  0.00    +0.040 C 
ATOM      8  C   LIG    1        5.559   6.537   2.278  0.00  0.00    +0.310 C 
BRANCH   8   9
ATOM      9  C   LIG    1        5.461   7.432   3.486  0.00  0.00    -0.080 A 
ATOM     10  C   LIG    1        4.698   7.046   4.572  0.00  0.00    +0.050 A 
ATOM     11  C   LIG    1        4.608   7.866   5.681  0.00  0.00    +0.040 A 
ATOM     12  C   LIG    1        5.282   9.074   5.704  0.00  0.00    -0.030 A 
ATOM     13  C   LIG    1        6.046   9.461   4.618  0.00  0.00    +0.050 A 
ATOM     14 CL   LIG    1        5.169  10.105   7.097  0.00  0.00    -0.050 Cl
ATOM     15  C   LIG    1        6.140   8.637   3.511  0.00  0.00    -0.020 A 
ATOM     16 CL   LIG    1        7.104   9.119   2.150  0.00  0.00    -0.040 Cl
ENDBRANCH   8   9
ENDBRANCH   1   8
BRANCH   4  17
ATOM     17  C   LIG    1        2.447   3.841  -0.327  0.00  0.00    +0.360 C 
BRANCH  17  18
ATOM     18  C   LIG    1        1.158   3.083  -0.141  0.00  0.00    -0.130 A 
ATOM     19  C   LIG    1        1.156   1.700  -0.111  0.00  0.00    +0.090 A 
ATOM     20  C   LIG    1       -0.055   1.043   0.062  0.00  0.00    -0.030 A 
ATOM     21  C   LIG    1       -1.213   1.782   0.191  0.00  0.00    +0.280 A 
ATOM     22  N   LIG    1       -1.181   3.101   0.163  0.00  0.00    -0.510 NA
ATOM     23  C   LIG    1       -0.047   3.764   0.001  0.00  0.00    +0.310 A 
BRANCH  23  24
ATOM     24  N   LIG    1       -0.059   5.154  -0.028  0.00  0.00    -0.480 N 
ATOM     25  C   LIG    1       -0.563   5.703   1.240  0.00  0.00    +0.170 C 
ATOM     26  C   LIG    1       -0.504   7.232   1.187  0.00  0.00    +0.230 C 
ATOM     27  O   LIG    1       -1.255   7.694   0.060  0.00  0.00    -0.380 OA
ATOM     28  C   LIG    1       -0.791   7.180  -1.191  0.00  0.00    +0.220 C 
ATOM     29  C   LIG    1       -0.853   5.650  -1.162  0.00  0.00    +0.170 C 
ENDBRANCH  23  24
ENDBRANCH  17  18
ENDBRANCH   4  17
TORSDOF 5
