REMARK  Name = ZINCtV000002sTzW.0
REMARK                            x       y       z     vdW  Elec       q    Type
REMARK                         _______ _______ _______ _____ _____    ______ ____
ROOT
ATOM      1  S   LIG    1        9.944   0.624  -0.064  0.00  0.00    +0.170 S 
ENDROOT
BRANCH   1   2
ATOM      2  C   LIG    1        8.299   1.252  -0.031  0.00  0.00    +0.120 A 
ATOM      3  N   LIG    1        7.951   2.519  -0.013  0.00  0.00    -0.280 NA
ATOM      4  N   LIG    1        6.668   2.611   0.004  0.00  0.00    -0.230 NA
ATOM      5  C   LIG    1        6.144   1.407   0.007  0.00  0.00    +0.230 A 
ATOM      6  O   LIG    1        7.167   0.522  -0.018  0.00  0.00    -0.190 OA
BRANCH   5   7
ATOM      7  C   LIG    1        4.711   1.081   0.027  0.00  0.00    -0.120 A 
ATOM      8  C   LIG    1        3.730   1.989   0.051  0.00  0.00    +0.030 A 
ATOM      9  C   LIG    1        2.391   1.432   0.069  0.00  0.00    -0.080 A 
ATOM     10  C   LIG    1        1.146   2.100   0.096  0.00  0.00    +0.080 A 
ATOM     11  C   LIG    1       -0.016   1.392   0.109  0.00  0.00    +0.030 A 
ATOM     12  C   LIG    1        0.002   0.004   0.096  0.00  0.00    +0.060 A 
ATOM     13  C   LIG    1        1.199  -0.673   0.070  0.00  0.00    +0.060 A 
ATOM     14  C   LIG    1        2.406   0.033   0.056  0.00  0.00    -0.130 A 
ATOM     15 CL   LIG    1        4.035   3.698   0.061  0.00  0.00    +0.000 Cl
ATOM     16  S   LIG    1        4.066  -0.549   0.024  0.00  0.00    +0.190 S 
ENDBRANCH   5   7
ENDBRANCH   1   2
BRANCH   1  17
ATOM     17  C   LIG    1       10.874   2.176  -0.065  0.00  0.00    +0.110 C 
BRANCH  17  20
ATOM     18  N   LIG    1       13.243   2.888  -0.099  0.00  0.00    -0.660 N 
ATOM     19  H   LIG    1       12.936   3.805  -0.166  0.00  0.00    +0.410 HD
ATOM     20  C   LIG    1       12.351   1.877  -0.093  0.00  0.00    +0.540 C 
ATOM     21  O   LIG    1       12.737   0.728  -0.110  0.00  0.00    -0.500 OA
BRANCH  18  27
ATOM     22  C   LIG    1       15.538   3.513  -0.518  0.00  0.00    -0.100 A 
ATOM     23  C   LIG    1       16.889   3.242  -0.421  0.00  0.00    +0.030 A 
ATOM     24  C   LIG    1       17.319   2.069   0.172  0.00  0.00    -0.010 A 
ATOM     25  C   LIG    1       16.399   1.168   0.676  0.00  0.00    +0.030 A 
ATOM     26  C   LIG    1       15.047   1.437   0.588  0.00  0.00    +0.020 A 
ATOM     27  C   LIG    1       14.612   2.613  -0.008  0.00  0.00    +0.140 A 
BRANCH  22  29
ATOM     28  C   LIG    1       15.737   5.985  -0.491  0.00  0.00    +0.030 C 
ATOM     29  C   LIG    1       15.070   4.788  -1.172  0.00  0.00    +0.020 C 
ATOM     30  C   LIG    1       15.446   4.769  -2.655  0.00  0.00    +0.040 C 
ENDBRANCH  22  29
ENDBRANCH  18  27
ENDBRANCH  17  20
ENDBRANCH   1  17
TORSDOF 6
