REMARK  Name = ZINCvU0000000DnB.0
REMARK                            x       y       z     vdW  Elec       q    Type
REMARK                         _______ _______ _______ _____ _____    ______ ____
ROOT
ATOM      1  C   LIG    1       -0.032   1.233  -0.089  0.00  0.00    +0.510 C 
ATOM      2  O   LIG    1       -0.005   0.025   0.037  0.00  0.00    -0.480 OA
ENDROOT
BRANCH   1   8
ATOM      3  C   LIG    1       -2.525   1.207  -0.176  0.00  0.00    -0.050 A 
ATOM      4  C   LIG    1       -3.736   1.880  -0.281  0.00  0.00    -0.010 A 
ATOM      5  C   LIG    1       -3.755   3.252  -0.423  0.00  0.00    +0.080 A 
ATOM      6  C   LIG    1       -2.570   3.971  -0.457  0.00  0.00    +0.000 A 
ATOM      7  C   LIG    1       -1.359   3.322  -0.349  0.00  0.00    +0.110 A 
ATOM      8  C   LIG    1       -1.322   1.933  -0.204  0.00  0.00    -0.120 A 
BRANCH   3   9
ATOM      9  S   LIG    1       -2.498  -0.546  -0.003  0.00  0.00    +0.100 S 
BRANCH   9  15
ATOM     10  C   LIG    1       -4.875  -0.731   1.368  0.00  0.00    +0.020 A 
ATOM     11  C   LIG    1       -6.230  -1.054   1.478  0.00  0.00    +0.060 A 
ATOM     12  C   LIG    1       -6.895  -1.601   0.401  0.00  0.00    +0.050 A 
ATOM     13  C   LIG    1       -6.229  -1.826  -0.793  0.00  0.00    +0.040 A 
ATOM     14  C   LIG    1       -4.893  -1.506  -0.919  0.00  0.00    +0.080 A 
ATOM     15  C   LIG    1       -4.205  -0.955   0.155  0.00  0.00    -0.140 A 
BRANCH  10  17
ATOM     16  N   LIG    1       -3.622   0.277   3.370  0.00  0.00    -0.390 NA
ATOM     17  C   LIG    1       -4.176  -0.169   2.485  0.00  0.00    +0.240 C 
ENDBRANCH  10  17
ENDBRANCH   9  15
ENDBRANCH   3   9
ENDBRANCH   1   8
BRANCH   1  18
ATOM     18  O   LIG    1        1.120   1.933  -0.127  0.00  0.00    -0.330 OA
BRANCH  18  19
ATOM     19  C   LIG    1        2.354   1.177  -0.013  0.00  0.00    +0.230 C 
BRANCH  19  20
ATOM     20  C   LIG    1        3.528   2.120  -0.076  0.00  0.00    +0.370 C 
ATOM     21  O   LIG    1        3.344   3.306  -0.204  0.00  0.00    -0.420 OA
BRANCH  20  22
ATOM     22  C   LIG    1        4.933   1.582   0.020  0.00  0.00    -0.090 C 
ATOM     23  C   LIG    1        5.111   0.858   1.356  0.00  0.00    +0.040 C 
ATOM     24  C   LIG    1        6.537   0.312   1.454  0.00  0.00    +0.000 C 
ATOM     25  C   LIG    1        6.788  -0.668   0.306  0.00  0.00    +0.020 C 
ATOM     26  C   LIG    1        6.609   0.056  -1.030  0.00  0.00    +0.000 C 
ATOM     27  C   LIG    1        7.606   1.213  -1.121  0.00  0.00    +0.020 C 
ATOM     28  C   LIG    1        7.355   2.193   0.028  0.00  0.00    -0.010 C 
ATOM     29  C   LIG    1        7.534   1.470   1.364  0.00  0.00    +0.020 C 
ATOM     30  C   LIG    1        5.184   0.602  -1.128  0.00  0.00    +0.040 C 
ATOM     31  C   LIG    1        5.929   2.739  -0.070  0.00  0.00    +0.050 C 
ENDBRANCH  20  22
ENDBRANCH  19  20
ENDBRANCH  18  19
ENDBRANCH   1  18
TORSDOF 8
