REMARK  Name = ZINCpk00000ebdqP.0
REMARK                            x       y       z     vdW  Elec       q    Type
REMARK                         _______ _______ _______ _____ _____    ______ ____
ROOT
ATOM      1  C   LIG    1        2.134   4.219   0.551  0.00  0.00    +0.610 C 
ATOM      2  N   LIG    1        1.144   3.491  -0.004  0.00  0.00    -0.550 N 
ATOM      3  C   LIG    1       -0.015   4.142  -0.632  0.00  0.00    +0.330 C 
ATOM      4  C   LIG    1       -1.267   3.398  -0.243  0.00  0.00    +0.510 C 
ATOM      5  N   LIG    1       -1.228   2.080   0.031  0.00  0.00    -0.650 N 
ATOM      6  H   LIG    1       -2.050   1.611   0.246  0.00  0.00    +0.420 HD
ATOM      7  C   LIG    1       -0.017   1.381   0.010  0.00  0.00    +0.130 A 
ATOM      8  C   LIG    1        0.002  -0.004   0.002  0.00  0.00    +0.010 A 
ATOM      9  C   LIG    1        1.211  -0.676  -0.009  0.00  0.00    +0.030 A 
ATOM     10  C   LIG    1        2.401   0.027  -0.011  0.00  0.00    +0.010 A 
ATOM     11  C   LIG    1        2.393   1.411  -0.006  0.00  0.00    +0.060 A 
ATOM     12  O   LIG    1       -2.321   3.994  -0.176  0.00  0.00    -0.510 OA
ATOM     13  C   LIG    1        1.187   2.089   0.002  0.00  0.00    +0.110 A 
ATOM     14  O   LIG    1        3.084   3.661   1.066  0.00  0.00    -0.490 OA
ENDROOT
BRANCH   1  17
ATOM     15  C   LIG    1        0.820   6.028   2.728  0.00  0.00    +0.210 C 
ATOM     16  C   LIG    1        1.499   6.499   1.468  0.00  0.00    +0.070 A 
ATOM     17  C   LIG    1        2.066   5.689   0.532  0.00  0.00    -0.170 A 
ATOM     18  C   LIG    1        2.589   6.592  -0.506  0.00  0.00    -0.270 A 
ATOM     19  C   LIG    1        2.283   7.883  -0.076  0.00  0.00    +0.290 A 
ATOM     20  N   LIG    1        2.647   8.925  -0.839  0.00  0.00    -0.510 NA
ATOM     21  C   LIG    1        3.278   8.752  -1.967  0.00  0.00    +0.640 A 
ATOM     22  N   LIG    1        3.603   7.522  -2.436  0.00  0.00    -0.540 N 
ATOM     23  C   LIG    1        4.313   7.390  -3.711  0.00  0.00    +0.340 C 
ATOM     24  C   LIG    1        3.273   6.417  -1.729  0.00  0.00    +0.560 A 
ATOM     25  O   LIG    1        3.556   5.304  -2.135  0.00  0.00    -0.510 OA
ATOM     26  O   LIG    1        1.641   7.779   1.100  0.00  0.00    -0.140 OA
ENDBRANCH   1  17
TORSDOF 1
