REMARK  Name = ZINCrD00000edKH9.0
REMARK                            x       y       z     vdW  Elec       q    Type
REMARK                         _______ _______ _______ _____ _____    ______ ____
ROOT
ATOM      1  C   LIG    1        1.274   1.687  -0.001  0.00  0.00    +0.180 A 
ATOM      2  N   LIG    1        1.998   0.607  -0.014  0.00  0.00    -0.370 NA
ATOM      3  O   LIG    1        1.286  -0.375  -0.012  0.00  0.00    +0.100 OA
ATOM      4  C   LIG    1        0.002  -0.004   0.002  0.00  0.00    +0.150 A 
ATOM      5  N   LIG    1       -0.016   1.307   0.009  0.00  0.00    -0.450 NA
ENDROOT
BRANCH   4   6
ATOM      6  C   LIG    1       -1.196  -0.918   0.008  0.00  0.00    +0.340 C 
ATOM      7  F   LIG    1       -0.993  -1.947   0.933  0.00  0.00    -0.180 F 
BRANCH   6   8
ATOM      8  C   LIG    1       -1.388  -1.517  -1.387  0.00  0.00    +0.100 C 
BRANCH   8   9
ATOM      9  C   LIG    1       -2.655  -2.332  -1.414  0.00  0.00    -0.100 A 
ATOM     10  C   LIG    1       -2.617  -3.678  -1.100  0.00  0.00    +0.030 A 
ATOM     11  C   LIG    1       -3.780  -4.425  -1.120  0.00  0.00    +0.010 A 
ATOM     12  C   LIG    1       -4.978  -3.829  -1.464  0.00  0.00    +0.010 A 
ATOM     13  C   LIG    1       -5.015  -2.485  -1.783  0.00  0.00    +0.000 A 
ATOM     14  C   LIG    1       -3.853  -1.736  -1.758  0.00  0.00    +0.010 A 
ENDBRANCH   8   9
ENDBRANCH   6   8
ENDBRANCH   4   6
BRANCH   1  15
ATOM     15  C   LIG    1        1.787   3.104   0.002  0.00  0.00    +0.230 C 
BRANCH  15  18
ATOM     16  C   LIG    1        3.351   3.802   3.370  0.00  0.00    +0.220 A 
ATOM     17  C   LIG    1        3.182   3.374   2.062  0.00  0.00    -0.070 A 
ATOM     18  C   LIG    1        1.972   3.568   1.423  0.00  0.00    -0.000 A 
ATOM     19  C   LIG    1        0.932   4.194   2.086  0.00  0.00    -0.020 A 
ATOM     20  C   LIG    1        1.097   4.617   3.392  0.00  0.00    +0.180 A 
ATOM     21  C   LIG    1        2.304   4.425   4.035  0.00  0.00    -0.690 A 
BRANCH  21  22
ATOM     22  S   LIG    1        2.515   4.970   5.697  0.00  0.00    +2.510 S 
ATOM     23  O   LIG    1        1.270   5.569   6.030  0.00  0.00    -0.940 OA
ATOM     24  O   LIG    1        3.711   5.737   5.665  0.00  0.00    -0.930 OA
ATOM     25  C   LIG    1        2.762   3.444   6.646  0.00  0.00    -0.260 C 
ENDBRANCH  21  22
BRANCH  16  27
ATOM     26  C   LIG    1        5.573   2.964   3.255  0.00  0.00    +0.250 C 
ATOM     27  O   LIG    1        4.540   3.612   4.000  0.00  0.00    -0.310 OA
ENDBRANCH  16  27
ENDBRANCH  15  18
ENDBRANCH   1  15
TORSDOF 7
