REMARK  Name = ZINCvU0000000ILZ.0
REMARK                            x       y       z     vdW  Elec       q    Type
REMARK                         _______ _______ _______ _____ _____    ______ ____
ROOT
ATOM      1  S   LIG    1       -2.145   2.754   3.833  0.00  0.00    +2.700 S 
ATOM      2  O   LIG    1       -2.649   3.213   5.080  0.00  0.00    -0.960 OA
ATOM      3  O   LIG    1       -2.882   1.911   2.959  0.00  0.00    -0.940 OA
ENDROOT
BRANCH   1  11
ATOM      4  C   LIG    1        0.112   1.370   3.152  0.00  0.00    +0.230 A 
ATOM      5  C   LIG    1        1.294   0.701   3.433  0.00  0.00    -0.090 A 
ATOM      6  C   LIG    1        1.727   0.584   4.740  0.00  0.00    +0.010 A 
ATOM      7  C   LIG    1        0.976   1.124   5.769  0.00  0.00    -0.140 A 
ATOM      8  C   LIG    1       -0.205   1.787   5.491  0.00  0.00    +0.170 A 
ATOM      9  C   LIG    1        1.447   0.989   7.194  0.00  0.00    +0.090 C 
ATOM     10  C   LIG    1        3.014  -0.137   5.046  0.00  0.00    +0.100 C 
ATOM     11  C   LIG    1       -0.639   1.911   4.186  0.00  0.00    -0.710 A 
BRANCH   4  12
ATOM     12  O   LIG    1       -0.312   1.490   1.867  0.00  0.00    -0.310 OA
BRANCH  12  13
ATOM     13  C   LIG    1        0.512   0.909   0.854  0.00  0.00    +0.200 C 
BRANCH  13  14
ATOM     14  C   LIG    1       -0.124   1.144  -0.518  0.00  0.00    +0.040 C 
BRANCH  14  15
ATOM     15  C   LIG    1        0.758   0.522  -1.602  0.00  0.00    +0.010 C 
BRANCH  15  17
ATOM     16  C   LIG    1        1.005   0.135  -4.058  0.00  0.00    +0.010 C 
ATOM     17  C   LIG    1        0.123   0.757  -2.974  0.00  0.00    +0.000 C 
ENDBRANCH  15  17
ENDBRANCH  14  15
ENDBRANCH  13  14
ENDBRANCH  12  13
ENDBRANCH   4  12
ENDBRANCH   1  11
BRANCH   1  18
ATOM     18  N   LIG    1       -1.756   4.107   2.960  0.00  0.00    -0.990 NA
ATOM     19  C   LIG    1       -1.467   5.383   3.633  0.00  0.00    +0.310 C 
ATOM     20  C   LIG    1       -0.128   5.916   3.099  0.00  0.00    +0.180 C 
ATOM     21  N   LIG    1       -0.184   5.987   1.633  0.00  0.00    -0.490 N 
ATOM     22  C   LIG    1       -0.354   4.653   1.042  0.00  0.00    +0.180 C 
ATOM     23  C   LIG    1       -1.697   4.066   1.491  0.00  0.00    +0.310 C 
BRANCH  21  24
ATOM     24  C   LIG    1        0.948   6.622   1.119  0.00  0.00    +0.080 A 
ATOM     25  C   LIG    1        2.183   5.986   1.162  0.00  0.00    -0.110 A 
ATOM     26  C   LIG    1        3.300   6.615   0.648  0.00  0.00    +0.000 A 
ATOM     27  C   LIG    1        3.192   7.880   0.101  0.00  0.00    +0.010 A 
ATOM     28  C   LIG    1        1.966   8.518   0.061  0.00  0.00    +0.000 A 
ATOM     29  C   LIG    1        2.302   4.610   1.764  0.00  0.00    +0.090 C 
ATOM     30  C   LIG    1        0.844   7.893   0.568  0.00  0.00    -0.060 A 
ATOM     31  C   LIG    1       -0.492   8.589   0.524  0.00  0.00    +0.100 C 
ENDBRANCH  21  24
ENDBRANCH   1  18
TORSDOF 8
