REMARK  Name = ZINCqH0000008u4h.0
REMARK                            x       y       z     vdW  Elec       q    Type
REMARK                         _______ _______ _______ _____ _____    ______ ____
ROOT
ATOM      1  C   LIG    1        1.232   3.549   0.009  0.00  0.00    -0.160 A 
ATOM      2  C   LIG    1        0.052   4.298   0.019  0.00  0.00    +0.130 A 
ATOM      3  C   LIG    1        0.113   5.675   0.030  0.00  0.00    -0.030 A 
ATOM      4  C   LIG    1        1.338   6.320   0.022  0.00  0.00    +0.090 A 
ATOM      5  C   LIG    1        2.512   5.593   0.008  0.00  0.00    -0.080 A 
ATOM      6  C   LIG    1        2.470   4.207   0.001  0.00  0.00    +0.200 A 
ENDROOT
BRANCH   1   7
ATOM      7  C   LIG    1        1.175   2.076   0.002  0.00  0.00    +0.510 C 
ATOM      8  O   LIG    1        2.203   1.428  -0.011  0.00  0.00    -0.490 OA
BRANCH   7   9
ATOM      9  O   LIG    1       -0.018   1.448   0.010  0.00  0.00    -0.330 OA
BRANCH   9  11
ATOM     10  C   LIG    1       -0.005  -0.506  -1.443  0.00  0.00    +0.070 C 
ATOM     11  C   LIG    1        0.002  -0.004   0.002  0.00  0.00    +0.180 C 
BRANCH  11  12
ATOM     12  C   LIG    1       -1.215  -0.527   0.721  0.00  0.00    +0.520 C 
ATOM     13  N   LIG    1       -1.358  -1.851   0.927  0.00  0.00    -0.700 N 
ATOM     14  H   LIG    1       -0.679  -2.467   0.613  0.00  0.00    +0.400 HD
ATOM     15  O   LIG    1       -2.064   0.244   1.115  0.00  0.00    -0.510 OA
BRANCH  13  16
ATOM     16  C   LIG    1       -2.541  -2.359   1.627  0.00  0.00    +0.220 C 
ATOM     17  C   LIG    1       -2.325  -3.442   2.686  0.00  0.00    +0.010 C 
ATOM     18  C   LIG    1       -2.964  -3.802   1.343  0.00  0.00    +0.020 C 
ENDBRANCH  13  16
ENDBRANCH  11  12
ENDBRANCH   9  11
ENDBRANCH   7   9
ENDBRANCH   1   7
BRANCH   6  19
ATOM     19  O   LIG    1        3.622   3.490  -0.013  0.00  0.00    -0.280 OA
BRANCH  19  20
ATOM     20  C   LIG    1        4.845   4.229  -0.021  0.00  0.00    +0.260 C 
BRANCH  20  21
ATOM     21  C   LIG    1        6.010   3.273  -0.036  0.00  0.00    -0.090 A 
ATOM     22  C   LIG    1        5.784   1.909  -0.040  0.00  0.00    +0.070 A 
ATOM     23  C   LIG    1        6.852   1.032  -0.054  0.00  0.00    +0.020 A 
ATOM     24  C   LIG    1        8.146   1.517  -0.063  0.00  0.00    +0.030 A 
ATOM     25  C   LIG    1        8.373   2.881  -0.058  0.00  0.00    +0.030 A 
ATOM     26  C   LIG    1        7.305   3.760  -0.051  0.00  0.00    -0.030 A 
ATOM     27 CL   LIG    1        7.589   5.472  -0.053  0.00  0.00    -0.070 Cl
ENDBRANCH  20  21
ENDBRANCH  19  20
ENDBRANCH   6  19
TORSDOF 8
