REMARK  Name = ZINCrD000007436Z.0
REMARK                            x       y       z     vdW  Elec       q    Type
REMARK                         _______ _______ _______ _____ _____    ______ ____
ROOT
ATOM      1  C   LIG    1        4.496   1.913  -1.120  0.00  0.00    +0.590 C 
ATOM      2  N   LIG    1        5.683   1.558  -1.652  0.00  0.00    -0.610 N 
ATOM      3  C   LIG    1        5.782   1.247  -3.080  0.00  0.00    +0.280 C 
ATOM      4  O   LIG    1        4.414   2.173   0.065  0.00  0.00    -0.500 OA
ENDROOT
BRANCH   1  11
ATOM      5  C   LIG    1       -0.692   3.346  -3.785  0.00  0.00    +0.070 C 
ATOM      6  C   LIG    1       -0.268   2.347  -2.708  0.00  0.00    +0.260 C 
ATOM      7  O   LIG    1       -0.621   2.850  -1.411  0.00  0.00    -0.370 OA
ATOM      8  C   LIG    1       -0.101   2.096  -0.313  0.00  0.00    +0.150 C 
ATOM      9  C   LIG    1        1.414   2.327  -0.193  0.00  0.00    +0.110 C 
ATOM     10  C   LIG    1        2.006   2.163  -1.567  0.00  0.00    -0.110 A 
ATOM     11  C   LIG    1        3.300   1.987  -1.974  0.00  0.00    -0.030 A 
ATOM     12  N   LIG    1        3.254   1.894  -3.341  0.00  0.00    -0.400 N 
ATOM     13  H   LIG    1        4.023   1.765  -3.919  0.00  0.00    +0.450 HD
ATOM     14  N   LIG    1        2.034   2.003  -3.744  0.00  0.00    -0.250 NA
ATOM     15  C   LIG    1       -0.787   2.544   0.979  0.00  0.00    +0.070 C 
ATOM     16  C   LIG    1        1.230   2.168  -2.738  0.00  0.00    -0.000 A 
ENDBRANCH   1  11
BRANCH   2  17
ATOM     17  C   LIG    1        6.873   1.482  -0.801  0.00  0.00    +0.350 C 
BRANCH  17  18
ATOM     18  C   LIG    1        6.997   0.092  -0.233  0.00  0.00    -0.110 A 
ATOM     19  C   LIG    1        7.709  -0.874  -0.919  0.00  0.00    +0.010 A 
ATOM     20  C   LIG    1        7.825  -2.151  -0.401  0.00  0.00    +0.010 A 
ATOM     21  C   LIG    1        7.229  -2.465   0.805  0.00  0.00    -0.020 A 
ATOM     22  C   LIG    1        6.513  -1.496   1.497  0.00  0.00    +0.080 A 
ATOM     23  C   LIG    1        6.403  -0.214   0.977  0.00  0.00    +0.070 A 
BRANCH  22  24
ATOM     24  N   LIG    1        5.909  -1.811   2.717  0.00  0.00    -0.480 N 
ATOM     25  C   LIG    1        4.874  -2.862   2.543  0.00  0.00    +0.170 C 
ATOM     26  C   LIG    1        4.711  -3.439   3.972  0.00  0.00    +0.030 C 
ATOM     27  C   LIG    1        6.157  -3.418   4.520  0.00  0.00    +0.020 C 
ATOM     28  C   LIG    1        6.895  -2.369   3.668  0.00  0.00    +0.170 C 
ENDBRANCH  22  24
ENDBRANCH  17  18
ENDBRANCH   2  17
TORSDOF 4
