REMARK  Name = ZINCrD000007436Z.1
REMARK                            x       y       z     vdW  Elec       q    Type
REMARK                         _______ _______ _______ _____ _____    ______ ____
ROOT
ATOM      1  C   LIG    1        4.580   5.690   4.206  0.00  0.00    +0.600 C 
ATOM      2  N   LIG    1        4.903   4.896   3.167  0.00  0.00    -0.600 N 
ATOM      3  C   LIG    1        5.698   3.685   3.389  0.00  0.00    +0.300 C 
ATOM      4  O   LIG    1        3.837   6.638   4.039  0.00  0.00    -0.520 OA
ENDROOT
BRANCH   1  11
ATOM      5  C   LIG    1        5.452   4.919  10.087  0.00  0.00    +0.070 C 
ATOM      6  C   LIG    1        5.704   6.064   9.104  0.00  0.00    +0.240 C 
ATOM      7  O   LIG    1        4.688   7.066   9.255  0.00  0.00    -0.360 OA
ATOM      8  C   LIG    1        4.697   8.079   8.246  0.00  0.00    +0.140 C 
ATOM      9  C   LIG    1        4.223   7.482   6.911  0.00  0.00    +0.110 C 
ATOM     10  C   LIG    1        4.963   6.190   6.701  0.00  0.00    -0.140 A 
ATOM     11  C   LIG    1        5.128   5.409   5.549  0.00  0.00    +0.000 A 
ATOM     12  N   LIG    1        5.865   4.368   5.900  0.00  0.00    -0.260 NA
ATOM     13  N   LIG    1        6.173   4.443   7.150  0.00  0.00    -0.360 N 
ATOM     14  H   LIG    1        6.711   3.794   7.630  0.00  0.00    +0.450 HD
ATOM     15  C   LIG    1        3.760   9.216   8.657  0.00  0.00    +0.080 C 
ATOM     16  C   LIG    1        5.637   5.546   7.690  0.00  0.00    -0.020 A 
ENDBRANCH   1  11
BRANCH   2  17
ATOM     17  C   LIG    1        4.460   5.243   1.814  0.00  0.00    +0.350 C 
BRANCH  17  18
ATOM     18  C   LIG    1        3.116   4.616   1.549  0.00  0.00    -0.100 A 
ATOM     19  C   LIG    1        1.959   5.307   1.856  0.00  0.00    +0.040 A 
ATOM     20  C   LIG    1        0.723   4.735   1.615  0.00  0.00    +0.010 A 
ATOM     21  C   LIG    1        0.641   3.471   1.066  0.00  0.00    +0.040 A 
ATOM     22  C   LIG    1        1.802   2.773   0.756  0.00  0.00    +0.080 A 
ATOM     23  C   LIG    1        3.041   3.348   1.005  0.00  0.00    -0.010 A 
BRANCH  22  24
ATOM     24  N   LIG    1        1.722   1.494   0.201  0.00  0.00    -0.480 N 
ATOM     25  C   LIG    1        2.490   0.519   1.005  0.00  0.00    +0.170 C 
ATOM     26  C   LIG    1        3.081  -0.510   0.024  0.00  0.00    +0.010 C 
ATOM     27  C   LIG    1        2.627  -0.039  -1.377  0.00  0.00    +0.030 C 
ATOM     28  C   LIG    1        2.326   1.464  -1.156  0.00  0.00    +0.180 C 
ENDBRANCH  22  24
ENDBRANCH  17  18
ENDBRANCH   2  17
TORSDOF 4
