REMARK  Name = ZINCri0000005Qys.1
REMARK                            x       y       z     vdW  Elec       q    Type
REMARK                         _______ _______ _______ _____ _____    ______ ____
ROOT
ATOM      1  C   LIG    1        0.726  -0.530   1.214  0.00  0.00    -0.070 A 
ATOM      2  C   LIG    1        2.086  -0.772   1.155  0.00  0.00    -0.110 A 
ATOM      3  C   LIG    1        2.756  -1.249   2.267  0.00  0.00    +0.040 A 
ATOM      4  C   LIG    1        2.066  -1.495   3.438  0.00  0.00    -0.160 A 
ATOM      5  C   LIG    1        0.698  -1.258   3.499  0.00  0.00    +0.290 A 
ATOM      6  C   LIG    1        0.030  -0.774   2.382  0.00  0.00    -0.050 A 
ENDROOT
BRANCH   1   8
ATOM      7  C   LIG    1       -0.019   1.526   0.010  0.00  0.00    +0.100 C 
ATOM      8  C   LIG    1        0.002  -0.004   0.002  0.00  0.00    +0.170 C 
ATOM      9  N   LIG    1       -1.369  -0.541  -0.056  0.00  0.00    -0.710 N 
ATOM     10  H   LIG    1       -2.070  -0.410   0.601  0.00  0.00    +0.440 HD
ATOM     11  C   LIG    1       -1.454  -1.247  -1.202  0.00  0.00    +0.710 C 
ATOM     12  N   LIG    1       -0.309  -1.240  -1.894  0.00  0.00    -0.680 N 
ATOM     13  H   LIG    1       -0.182  -1.695  -2.741  0.00  0.00    +0.430 HD
ATOM     14  O   LIG    1       -2.458  -1.828  -1.563  0.00  0.00    -0.560 OA
ATOM     15  C   LIG    1        0.645  -0.522  -1.269  0.00  0.00    +0.540 C 
ATOM     16  O   LIG    1        1.782  -0.330  -1.645  0.00  0.00    -0.460 OA
ENDBRANCH   1   8
BRANCH   5  17
ATOM     17  N   LIG    1       -0.003  -1.506   4.682  0.00  0.00    -1.090 NA
BRANCH  17  18
ATOM     18  S   LIG    1        0.796  -2.083   6.012  0.00  0.00    +2.610 S 
ATOM     19  O   LIG    1        1.677  -1.050   6.431  0.00  0.00    -1.030 OA
ATOM     20  O   LIG    1        1.236  -3.393   5.679  0.00  0.00    -1.040 OA
BRANCH  18  21
ATOM     21  C   LIG    1       -0.396  -2.271   7.296  0.00  0.00    -0.640 A 
ATOM     22  C   LIG    1       -1.075  -3.468   7.438  0.00  0.00    +0.100 A 
ATOM     23  C   LIG    1       -2.013  -3.624   8.443  0.00  0.00    -0.050 A 
ATOM     24  C   LIG    1       -2.278  -2.586   9.311  0.00  0.00    +0.080 A 
ATOM     25  C   LIG    1       -1.596  -1.374   9.174  0.00  0.00    -0.160 A 
ATOM     26  C   LIG    1       -0.647  -1.225   8.160  0.00  0.00    +0.150 A 
BRANCH  25  27
ATOM     27  C   LIG    1       -1.874  -0.259  10.099  0.00  0.00    +0.530 C 
ATOM     28  O   LIG    1       -1.276   0.801   9.976  0.00  0.00    -0.680 OA
ATOM     29  O   LIG    1       -2.703  -0.394  10.988  0.00  0.00    -0.700 OA
ENDBRANCH  25  27
ENDBRANCH  18  21
ENDBRANCH  17  18
ENDBRANCH   5  17
TORSDOF 5
