REMARK  Name = ZINCpe00000gMAmg.0
REMARK                            x       y       z     vdW  Elec       q    Type
REMARK                         _______ _______ _______ _____ _____    ______ ____
ROOT
ATOM      1  O   LIG    1       -0.290  -0.357  -5.598  0.00  0.00    -0.330 OA
ENDROOT
BRANCH   1   2
ATOM      2  C   LIG    1        0.325  -0.623  -6.769  0.00  0.00    +0.500 C 
ATOM      3  O   LIG    1        1.421  -0.151  -7.001  0.00  0.00    -0.510 OA
BRANCH   2   5
ATOM      4  C   LIG    1        0.288  -1.744  -8.931  0.00  0.00    +0.140 C 
ATOM      5  C   LIG    1       -0.327  -1.478  -7.760  0.00  0.00    -0.040 C 
BRANCH   4  10
ATOM      6  C   LIG    1       -0.358  -3.693 -12.075  0.00  0.00    +0.120 A 
ATOM      7  C   LIG    1       -1.610  -4.229 -11.803  0.00  0.00    -0.060 A 
ATOM      8  C   LIG    1       -2.240  -3.956 -10.602  0.00  0.00    +0.050 A 
ATOM      9  C   LIG    1       -1.627  -3.154  -9.663  0.00  0.00    +0.000 A 
ATOM     10  C   LIG    1       -0.369  -2.605  -9.929  0.00  0.00    -0.050 A 
ATOM     11  C   LIG    1        0.266  -2.882 -11.143  0.00  0.00    +0.020 A 
BRANCH   6  13
ATOM     12  C   LIG    1       -0.447  -4.809 -14.172  0.00  0.00    +0.250 C 
ATOM     13  O   LIG    1        0.255  -3.965 -13.257  0.00  0.00    -0.320 OA
ENDBRANCH   6  13
ENDBRANCH   4  10
ENDBRANCH   2   5
ENDBRANCH   1   2
BRANCH   1  14
ATOM     14  C   LIG    1        0.405   0.486  -4.677  0.00  0.00    +0.250 C 
BRANCH  14  15
ATOM     15  C   LIG    1       -0.430   0.669  -3.436  0.00  0.00    +0.520 C 
ATOM     16  N   LIG    1        0.027   1.431  -2.423  0.00  0.00    -0.600 N 
ATOM     17  C   LIG    1        1.336   2.081  -2.528  0.00  0.00    +0.290 C 
ATOM     18  O   LIG    1       -1.514   0.131  -3.349  0.00  0.00    -0.510 OA
BRANCH  16  19
ATOM     19  C   LIG    1       -0.784   1.609  -1.216  0.00  0.00    +0.280 C 
ATOM     20  C   LIG    1       -0.013   1.086   0.008  0.00  0.00    +0.070 C 
ATOM     21  C   LIG    1       -0.766   1.600   1.262  0.00  0.00    -0.290 C 
ATOM     22  S   LIG    1       -1.166   3.330   0.805  0.00  0.00    +2.390 S 
ATOM     23  O   LIG    1       -2.504   3.623   1.183  0.00  0.00    -0.930 OA
ATOM     24  O   LIG    1       -0.110   4.183   1.224  0.00  0.00    -0.930 OA
ATOM     25  C   LIG    1       -1.083   3.107  -1.009  0.00  0.00    -0.330 C 
ENDBRANCH  16  19
ENDBRANCH  14  15
ENDBRANCH   1  14
TORSDOF 7
