REMARK  Name = ZINCrH000004sDWT.0
REMARK                            x       y       z     vdW  Elec       q    Type
REMARK                         _______ _______ _______ _____ _____    ______ ____
ROOT
ATOM      1  N   LIG    1        3.102   0.235   1.636  0.00  0.00    -0.660 NA
ATOM      2  H   LIG    1        2.982   0.961   2.328  0.00  0.00    +0.350 HD
ENDROOT
BRANCH   1   3
ATOM      3  C   LIG    1        2.027   0.279   0.636  0.00  0.00    +0.260 C 
ATOM      4  C   LIG    1        2.173   1.554  -0.190  0.00  0.00    -0.360 C 
ATOM      5  S   LIG    1        0.966   1.475  -1.552  0.00  0.00    +2.600 S 
ATOM      6  N   LIG    1        1.419   0.074  -2.321  0.00  0.00    -0.940 N 
ATOM      7  C   LIG    1        1.801  -1.032  -1.551  0.00  0.00    +0.190 A 
ATOM      8  C   LIG    1        1.882  -2.254  -2.223  0.00  0.00    -0.030 A 
ATOM      9  C   LIG    1        2.262  -3.398  -1.556  0.00  0.00    +0.050 A 
ATOM     10  C   LIG    1        2.567  -3.332  -0.209  0.00  0.00    -0.020 A 
ATOM     11  C   LIG    1        2.482  -2.130   0.458  0.00  0.00    +0.090 A 
ATOM     12  C   LIG    1        1.413  -0.005  -3.784  0.00  0.00    +0.320 C 
ATOM     13  O   LIG    1       -0.341   1.211  -1.059  0.00  0.00    -0.930 OA
ATOM     14  O   LIG    1        1.205   2.504  -2.502  0.00  0.00    -0.940 OA
ATOM     15  C   LIG    1        2.094  -0.966  -0.203  0.00  0.00    -0.150 A 
ENDBRANCH   1   3
BRANCH   1  16
ATOM     16  C   LIG    1        4.420   0.330   0.996  0.00  0.00    +0.230 C 
BRANCH  16  20
ATOM     17  C   LIG    1        7.475  -0.205   3.940  0.00  0.00    -0.010 A 
ATOM     18  C   LIG    1        6.962  -1.307   3.255  0.00  0.00    +0.020 A 
ATOM     19  C   LIG    1        5.976  -1.127   2.306  0.00  0.00    +0.040 A 
ATOM     20  C   LIG    1        5.497   0.141   2.034  0.00  0.00    -0.070 A 
ATOM     21  C   LIG    1        6.006   1.239   2.706  0.00  0.00    +0.010 A 
ATOM     22  C   LIG    1        6.988   1.072   3.660  0.00  0.00    +0.040 A 
BRANCH  17  25
ATOM     23  C   LIG    1       10.016   1.455   4.125  0.00  0.00    +0.160 C 
ATOM     24  C   LIG    1        9.669   0.330   5.065  0.00  0.00    +0.080 A 
ATOM     25  C   LIG    1        8.532  -0.390   4.958  0.00  0.00    -0.190 A 
ATOM     26  S   LIG    1        8.528  -1.586   6.253  0.00  0.00    +0.140 S 
ATOM     27  C   LIG    1       10.043  -1.013   6.799  0.00  0.00    +0.220 A 
ATOM     28  N   LIG    1       10.447  -0.034   6.060  0.00  0.00    -0.470 NA
ENDBRANCH  17  25
ENDBRANCH  16  20
ENDBRANCH   1  16
TORSDOF 4
