REMARK  Name = ZINCrD000000CoaV.0
REMARK                            x       y       z     vdW  Elec       q    Type
REMARK                         _______ _______ _______ _____ _____    ______ ____
ROOT
ATOM      1  C   LIG    1        3.819   3.268  -0.735  0.00  0.00    -0.030 A 
ATOM      2  C   LIG    1        5.115   3.654  -0.431  0.00  0.00    +0.040 A 
ATOM      3  C   LIG    1        5.596   2.678   0.445  0.00  0.00    +0.060 A 
ATOM      4  N   LIG    1        4.643   1.800   0.632  0.00  0.00    -0.250 NA
ATOM      5  N   LIG    1        3.595   2.107  -0.044  0.00  0.00    -0.210 N 
ENDROOT
BRANCH   5   6
ATOM      6  C   LIG    1        2.404   1.372  -0.066  0.00  0.00    +0.110 A 
ATOM      7  C   LIG    1        1.845   0.917   1.121  0.00  0.00    +0.030 A 
ATOM      8  C   LIG    1        0.669   0.192   1.097  0.00  0.00    +0.020 A 
ATOM      9  C   LIG    1        0.050  -0.081  -0.109  0.00  0.00    +0.030 A 
ATOM     10  C   LIG    1        0.604   0.370  -1.293  0.00  0.00    +0.060 A 
ATOM     11  C   LIG    1        1.778   1.096  -1.275  0.00  0.00    +0.050 A 
ENDBRANCH   5   6
BRANCH   3  12
ATOM     12  C   LIG    1        6.967   2.645   1.069  0.00  0.00    +0.040 C 
ATOM     13  C   LIG    1        8.048   3.532   0.447  0.00  0.00    +0.030 C 
ATOM     14  C   LIG    1        8.099   2.015   0.255  0.00  0.00    +0.040 C 
ENDBRANCH   3  12
BRANCH   1  16
ATOM     15  O   LIG    1        3.247   4.923  -2.269  0.00  0.00    -0.490 OA
ATOM     16  C   LIG    1        2.877   3.963  -1.622  0.00  0.00    +0.540 C 
BRANCH  16  17
ATOM     17  O   LIG    1        1.601   3.536  -1.717  0.00  0.00    -0.320 OA
BRANCH  17  18
ATOM     18  C   LIG    1        0.726   4.271  -2.612  0.00  0.00    +0.250 C 
BRANCH  18  19
ATOM     19  C   LIG    1       -0.649   3.655  -2.589  0.00  0.00    +0.510 C 
ATOM     20  N   LIG    1       -1.634   4.174  -3.348  0.00  0.00    -0.600 N 
ATOM     21  C   LIG    1       -1.341   5.327  -4.170  0.00  0.00    +0.270 C 
ATOM     22  C   LIG    1       -1.594   6.622  -3.368  0.00  0.00    -0.000 C 
ATOM     23  C   LIG    1       -3.037   6.825  -3.170  0.00  0.00    +0.000 C 
ATOM     24  C   LIG    1       -3.719   5.732  -2.352  0.00  0.00    +0.010 C 
ATOM     25  C   LIG    1       -4.100   4.590  -3.262  0.00  0.00    +0.020 C 
ATOM     26  C   LIG    1       -2.969   3.546  -3.302  0.00  0.00    +0.270 C 
ATOM     27  O   LIG    1       -0.869   2.690  -1.887  0.00  0.00    -0.500 OA
ENDBRANCH  18  19
ENDBRANCH  17  18
ENDBRANCH  16  17
ENDBRANCH   1  16
TORSDOF 6
