REMARK  Name = ZINCtV00000L6jN3.0
REMARK                            x       y       z     vdW  Elec       q    Type
REMARK                         _______ _______ _______ _____ _____    ______ ____
ROOT
ATOM      1  S   LIG    1       -1.655   6.523   0.031  0.00  0.00    +0.090 S 
ENDROOT
BRANCH   1   8
ATOM      2  C   LIG    1       -2.497  -0.473  -0.051  0.00  0.00    +0.120 C 
ATOM      3  C   LIG    1       -2.481   1.033  -0.033  0.00  0.00    -0.040 A 
ATOM      4  C   LIG    1       -3.640   1.730  -0.017  0.00  0.00    +0.070 A 
ATOM      5  C   LIG    1       -3.624   3.145   0.001  0.00  0.00    +0.220 A 
ATOM      6  N   LIG    1       -4.590   4.045   0.018  0.00  0.00    -0.260 NA
ATOM      7  N   LIG    1       -4.084   5.227   0.030  0.00  0.00    -0.260 NA
ATOM      8  C   LIG    1       -2.771   5.160   0.021  0.00  0.00    +0.130 A 
ATOM      9  N   LIG    1       -2.435   3.838   0.002  0.00  0.00    -0.390 N 
ATOM     10  C   LIG    1       -1.223   3.169  -0.014  0.00  0.00    +0.130 A 
ATOM     11  C   LIG    1       -0.023   3.866  -0.014  0.00  0.00    +0.020 A 
ATOM     12  C   LIG    1        1.173   3.178  -0.031  0.00  0.00    +0.060 A 
ATOM     13  C   LIG    1        1.190   1.791  -0.048  0.00  0.00    +0.030 A 
ATOM     14  C   LIG    1        0.011   1.080  -0.049  0.00  0.00    +0.070 A 
ATOM     15  C   LIG    1       -1.209   1.762  -0.038  0.00  0.00    -0.060 A 
ENDBRANCH   1   8
BRANCH   1  16
ATOM     16  C   LIG    1       -2.834   7.896   0.056  0.00  0.00    +0.010 C 
ATOM     17  C   LIG    1       -3.621   7.868   1.368  0.00  0.00    +0.090 C 
BRANCH  16  18
ATOM     18  C   LIG    1       -2.089   9.200  -0.056  0.00  0.00    +0.540 C 
ATOM     19  N   LIG    1       -2.735  10.313  -0.459  0.00  0.00    -0.660 N 
ATOM     20  H   LIG    1       -3.662  10.261  -0.739  0.00  0.00    +0.420 HD
ATOM     21  O   LIG    1       -0.908   9.250   0.216  0.00  0.00    -0.500 OA
BRANCH  19  22
ATOM     22  C   LIG    1       -2.067  11.543  -0.474  0.00  0.00    +0.170 A 
ATOM     23  C   LIG    1       -0.716  11.598  -0.788  0.00  0.00    +0.080 A 
ATOM     24  C   LIG    1       -0.061  12.815  -0.808  0.00  0.00    -0.010 A 
ATOM     25  C   LIG    1       -0.748  13.978  -0.502  0.00  0.00    -0.040 A 
ATOM     26  C   LIG    1       -2.093  13.925  -0.182  0.00  0.00    +0.090 A 
ATOM     27 CL   LIG    1        0.080  15.504  -0.520  0.00  0.00    -0.030 Cl
ATOM     28 CL   LIG    1        1.627  12.885  -1.209  0.00  0.00    -0.030 Cl
ATOM     29  C   LIG    1       -2.754  12.712  -0.167  0.00  0.00    -0.050 A 
ATOM     30 CL   LIG    1       -4.442  12.647   0.235  0.00  0.00    -0.040 Cl
ENDBRANCH  19  22
ENDBRANCH  16  18
ENDBRANCH   1  16
TORSDOF 4
