REMARK  Name = ZINCkj00000y7OFW.1
REMARK                            x       y       z     vdW  Elec       q    Type
REMARK                         _______ _______ _______ _____ _____    ______ ____
ROOT
ATOM      1  N   LIG    1        0.415   0.071   2.383  0.00  0.00    -0.620 N 
ATOM      2  C   LIG    1       -0.282   1.185   2.083  0.00  0.00    +0.730 C 
ATOM      3  N   LIG    1       -0.213   1.711   0.844  0.00  0.00    -0.630 N 
ATOM      4  C   LIG    1        0.284   1.016  -0.357  0.00  0.00    +0.270 C 
ATOM      5  C   LIG    1       -0.391   1.744  -1.547  0.00  0.00    +0.060 C 
ATOM      6  C   LIG    1       -0.386   3.215  -1.054  0.00  0.00    +0.030 C 
ATOM      7  C   LIG    1       -0.623   3.072   0.464  0.00  0.00    +0.240 C 
ATOM      8  O   LIG    1       -0.973   1.717   2.932  0.00  0.00    -0.580 OA
ENDROOT
BRANCH   1  10
ATOM      9  C   LIG    1        2.707   0.356   1.578  0.00  0.00    +0.010 C 
ATOM     10  C   LIG    1        1.411  -0.445   1.440  0.00  0.00    +0.260 C 
ENDBRANCH   1  10
BRANCH   1  11
ATOM     11  C   LIG    1        0.176  -0.624   3.650  0.00  0.00    +0.290 C 
ATOM     12  C   LIG    1       -0.923  -1.671   3.459  0.00  0.00    +0.020 C 
ENDBRANCH   1  11
BRANCH   7  13
ATOM     13  C   LIG    1        0.220   4.101   1.221  0.00  0.00    +0.250 C 
BRANCH  13  14
ATOM     14  N   LIG    1       -0.198   5.456   0.835  0.00  0.00    -0.380 N 
ATOM     15  C   LIG    1       -1.585   5.696   1.287  0.00  0.00    +0.260 C 
ATOM     16  C   LIG    1       -1.611   7.187   1.706  0.00  0.00    +0.080 C 
ATOM     17  C   LIG    1       -0.209   7.358   2.346  0.00  0.00    +0.090 C 
ATOM     18  C   LIG    1        0.682   6.449   1.479  0.00  0.00    +0.180 C 
ATOM     19  H   LIG    1       -0.146   5.555  -0.168  0.00  0.00    +0.420 HD
BRANCH  18  20
ATOM     20  C   LIG    1        1.712   5.738   2.359  0.00  0.00    +0.210 C 
BRANCH  20  21
ATOM     21  O   LIG    1        1.048   5.110   3.457  0.00  0.00    -0.560 OA
ATOM     22  H   LIG    1        1.641   4.639   4.059  0.00  0.00    +0.400 HD
ENDBRANCH  20  21
ENDBRANCH  18  20
ENDBRANCH  13  14
ENDBRANCH   7  13
TORSDOF 6
