REMARK  Name = ZINCkj00000y7OFW.0
REMARK                            x       y       z     vdW  Elec       q    Type
REMARK                         _______ _______ _______ _____ _____    ______ ____
ROOT
ATOM      1  N   LIG    1        0.527   2.439  -1.788  0.00  0.00    -0.620 N 
ATOM      2  C   LIG    1        0.142   1.612  -2.780  0.00  0.00    +0.720 C 
ATOM      3  N   LIG    1        0.398   0.292  -2.694  0.00  0.00    -0.630 N 
ATOM      4  C   LIG    1        0.367  -0.665  -3.816  0.00  0.00    +0.290 C 
ATOM      5  C   LIG    1        1.291  -1.826  -3.372  0.00  0.00    +0.060 C 
ATOM      6  C   LIG    1        0.979  -1.910  -1.854  0.00  0.00    +0.040 C 
ATOM      7  C   LIG    1        0.754  -0.434  -1.466  0.00  0.00    +0.210 C 
ATOM      8  O   LIG    1       -0.437   2.057  -3.752  0.00  0.00    -0.550 OA
ENDROOT
BRANCH   1  10
ATOM      9  C   LIG    1        2.725   1.696  -1.015  0.00  0.00    +0.030 C 
ATOM     10  C   LIG    1        1.258   1.909  -0.635  0.00  0.00    +0.230 C 
ENDBRANCH   1  10
BRANCH   1  11
ATOM     11  C   LIG    1        0.215   3.869  -1.864  0.00  0.00    +0.290 C 
ATOM     12  C   LIG    1       -1.142   4.130  -1.208  0.00  0.00    +0.020 C 
ENDBRANCH   1  11
BRANCH   7  13
ATOM     13  C   LIG    1       -0.388  -0.331  -0.452  0.00  0.00    +0.230 C 
BRANCH  13  14
ATOM     14  N   LIG    1        0.062  -0.852   0.846  0.00  0.00    -0.390 N 
ATOM     15  C   LIG    1        0.299  -2.309   0.757  0.00  0.00    +0.260 C 
ATOM     16  C   LIG    1       -0.123  -2.919   2.107  0.00  0.00    +0.070 C 
ATOM     17  C   LIG    1       -0.639  -1.727   2.945  0.00  0.00    +0.090 C 
ATOM     18  C   LIG    1       -1.004  -0.677   1.865  0.00  0.00    +0.180 C 
ATOM     19  H   LIG    1        0.904  -0.380   1.138  0.00  0.00    +0.430 HD
BRANCH  18  20
ATOM     20  C   LIG    1       -0.964   0.736   2.451  0.00  0.00    +0.220 C 
BRANCH  20  21
ATOM     21  O   LIG    1        0.259   0.921   3.167  0.00  0.00    -0.570 OA
ATOM     22  H   LIG    1        0.352   1.796   3.567  0.00  0.00    +0.410 HD
ENDBRANCH  20  21
ENDBRANCH  18  20
ENDBRANCH  13  14
ENDBRANCH   7  13
TORSDOF 6
