REMARK  Name = ZINCrH000004r8On.0
REMARK                            x       y       z     vdW  Elec       q    Type
REMARK                         _______ _______ _______ _____ _____    ______ ____
ROOT
ATOM      1  C   LIG    1        4.077   2.734   0.222  0.00  0.00    +0.560 C 
ATOM      2  N   LIG    1        3.811   1.415   0.138  0.00  0.00    -0.670 N 
ATOM      3  H   LIG    1        4.539   0.773   0.135  0.00  0.00    +0.410 HD
ATOM      4  O   LIG    1        3.165   3.532   0.325  0.00  0.00    -0.500 OA
ENDROOT
BRANCH   1   8
ATOM      5  C   LIG    1        8.097   4.101   0.129  0.00  0.00    +0.150 A 
ATOM      6  C   LIG    1        7.056   5.016   0.245  0.00  0.00    +0.020 A 
ATOM      7  C   LIG    1        5.751   4.576   0.276  0.00  0.00    +0.110 A 
ATOM      8  C   LIG    1        5.474   3.209   0.189  0.00  0.00    -0.130 A 
ATOM      9  C   LIG    1        6.523   2.293   0.077  0.00  0.00    +0.060 A 
ATOM     10  C   LIG    1        7.825   2.740   0.043  0.00  0.00    +0.020 A 
BRANCH   5  17
ATOM     11  C   LIG    1        9.276   5.824  -2.117  0.00  0.00    +0.120 C 
ATOM     12  C   LIG    1        9.979   5.319  -0.883  0.00  0.00    +0.020 A 
ATOM     13  C   LIG    1       11.266   5.550  -0.556  0.00  0.00    -0.050 A 
ATOM     14  C   LIG    1       11.517   4.894   0.666  0.00  0.00    -0.050 A 
ATOM     15  C   LIG    1       10.372   4.292   1.045  0.00  0.00    +0.020 A 
ATOM     16  C   LIG    1       10.175   3.474   2.295  0.00  0.00    +0.120 C 
ATOM     17  N   LIG    1        9.420   4.551   0.099  0.00  0.00    -0.410 N 
ENDBRANCH   5  17
ENDBRANCH   1   8
BRANCH   2  18
ATOM     18  C   LIG    1        2.485   0.972   0.057  0.00  0.00    +0.130 A 
ATOM     19  C   LIG    1        1.521   1.769  -0.539  0.00  0.00    +0.040 A 
ATOM     20  C   LIG    1        0.212   1.329  -0.619  0.00  0.00    +0.020 A 
ATOM     21  C   LIG    1       -0.139   0.095  -0.104  0.00  0.00    +0.030 A 
ATOM     22  C   LIG    1        0.816  -0.707   0.492  0.00  0.00    +0.020 A 
ATOM     23  C   LIG    1        2.131  -0.274   0.576  0.00  0.00    +0.120 A 
BRANCH  23  24
ATOM     24  N   LIG    1        3.099  -1.084   1.180  0.00  0.00    -1.060 N 
ATOM     25  H   LIG    1        3.809  -0.681   1.704  0.00  0.00    +0.420 HD
BRANCH  24  26
ATOM     26  S   LIG    1        3.033  -2.728   0.999  0.00  0.00    +2.610 S 
ATOM     27  O   LIG    1        1.743  -3.082   1.476  0.00  0.00    -0.940 OA
ATOM     28  O   LIG    1        4.208  -3.199   1.644  0.00  0.00    -0.950 OA
ATOM     29  C   LIG    1        3.143  -2.991  -0.793  0.00  0.00    -0.270 C 
ENDBRANCH  24  26
ENDBRANCH  23  24
ENDBRANCH   2  18
TORSDOF 5
