REMARK  Name = ZINCAx0000000gxu.0
REMARK                            x       y       z     vdW  Elec       q    Type
REMARK                         _______ _______ _______ _____ _____    ______ ____
ROOT
ATOM      1  C   LIG    1       -3.513  13.997   4.551  0.00  0.00    +0.520 C 
ATOM      2  N   LIG    1       -2.805  13.253   3.679  0.00  0.00    -0.600 N 
ATOM      3  C   LIG    1       -1.781  13.867   2.820  0.00  0.00    +0.280 C 
ATOM      4  C   LIG    1       -2.046  13.447   1.370  0.00  0.00    +0.170 C 
ATOM      5  N   LIG    1       -2.123  11.982   1.294  0.00  0.00    -0.530 NA
ATOM      6  C   LIG    1       -3.251  11.466   2.081  0.00  0.00    +0.180 C 
ATOM      7  C   LIG    1       -3.035  11.805   3.560  0.00  0.00    +0.290 C 
ATOM      8  O   LIG    1       -4.416  13.492   5.186  0.00  0.00    -0.510 OA
ENDROOT
BRANCH   1  14
ATOM      9  C   LIG    1       -5.836  18.332   3.510  0.00  0.00    -0.020 C 
ATOM     10  C   LIG    1       -4.712  18.619   4.508  0.00  0.00    +0.020 C 
ATOM     11  C   LIG    1       -3.476  17.797   4.128  0.00  0.00    +0.290 C 
ATOM     12  N   LIG    1       -3.859  16.381   4.040  0.00  0.00    -0.600 N 
ATOM     13  C   LIG    1       -4.984  16.006   3.174  0.00  0.00    +0.270 C 
ATOM     14  C   LIG    1       -3.186  15.443   4.737  0.00  0.00    +0.520 C 
ATOM     15  O   LIG    1       -2.316  15.774   5.515  0.00  0.00    -0.510 OA
ATOM     16  C   LIG    1       -6.207  16.849   3.569  0.00  0.00    +0.020 C 
BRANCH   9  17
ATOM     17  C   LIG    1       -7.061  19.178   3.866  0.00  0.00    +0.020 C 
BRANCH  17  18
ATOM     18  C   LIG    1       -8.140  18.986   2.799  0.00  0.00    -0.010 C 
BRANCH  18  20
ATOM     19  C   LIG    1      -10.395  19.738   2.027  0.00  0.00    +0.000 C 
ATOM     20  C   LIG    1       -9.365  19.832   3.155  0.00  0.00    +0.200 C 
BRANCH  20  21
ATOM     21  O   LIG    1       -9.943  19.346   4.369  0.00  0.00    -0.560 OA
ATOM     22  H   LIG    1      -10.235  18.425   4.324  0.00  0.00    +0.370 HD
ENDBRANCH  20  21
ENDBRANCH  18  20
ENDBRANCH  17  18
ENDBRANCH   9  17
ENDBRANCH   1  14
BRANCH   5  23
ATOM     23  C   LIG    1       -2.204  11.531  -0.101  0.00  0.00    +0.230 C 
BRANCH  23  24
ATOM     24  C   LIG    1       -2.034  10.034  -0.156  0.00  0.00    -0.120 A 
ATOM     25  C   LIG    1       -3.141   9.210  -0.067  0.00  0.00    +0.050 A 
ATOM     26  C   LIG    1       -2.988   7.838  -0.117  0.00  0.00    -0.020 A 
ATOM     27  C   LIG    1       -1.723   7.287  -0.256  0.00  0.00    +0.130 A 
ATOM     28  C   LIG    1       -0.613   8.116  -0.339  0.00  0.00    -0.080 A 
ATOM     29  C   LIG    1       -0.772   9.487  -0.295  0.00  0.00    +0.080 A 
BRANCH  27  30
ATOM     30  O   LIG    1       -1.570   5.938  -0.305  0.00  0.00    -0.310 OA
BRANCH  30  31
ATOM     31  C   LIG    1       -0.238   5.441  -0.450  0.00  0.00    +0.290 C 
BRANCH  31  32
ATOM     32  C   LIG    1       -0.265   3.934  -0.485  0.00  0.00    +0.120 A 
ATOM     33  C   LIG    1       -1.472   3.270  -0.382  0.00  0.00    -0.010 A 
ATOM     34  C   LIG    1       -1.487   1.884  -0.421  0.00  0.00    +0.070 A 
ATOM     35  C   LIG    1       -0.280   1.215  -0.552  0.00  0.00    -0.030 A 
ATOM     36  C   LIG    1        0.889   1.947  -0.649  0.00  0.00    +0.270 A 
ATOM     37  N   LIG    1        0.864   3.265  -0.614  0.00  0.00    -0.480 NA
ENDBRANCH  31  32
ENDBRANCH  30  31
ENDBRANCH  27  30
ENDBRANCH  23  24
ENDBRANCH   5  23
TORSDOF 10
