REMARK  Name = ZINCnE000001D7CM.0
REMARK                            x       y       z     vdW  Elec       q    Type
REMARK                         _______ _______ _______ _____ _____    ______ ____
ROOT
ATOM      1  C   LIG    1        2.340   5.231  -0.095  0.00  0.00    +0.590 C 
ATOM      2  N   LIG    1        2.358   3.887  -0.001  0.00  0.00    -0.650 N 
ATOM      3  H   LIG    1        3.204   3.416   0.057  0.00  0.00    +0.420 HD
ATOM      4  O   LIG    1        1.280   5.828  -0.082  0.00  0.00    -0.510 OA
ENDROOT
BRANCH   2   5
ATOM      5  C   LIG    1        1.156   3.171   0.016  0.00  0.00    +0.140 A 
ATOM      6  C   LIG    1        1.081   1.925  -0.592  0.00  0.00    -0.020 A 
ATOM      7  C   LIG    1       -0.107   1.219  -0.576  0.00  0.00    +0.050 A 
ATOM      8  C   LIG    1       -1.222   1.754   0.041  0.00  0.00    -0.060 A 
ATOM      9  C   LIG    1       -1.150   2.995   0.653  0.00  0.00    +0.130 A 
ATOM     10  F   LIG    1       -2.241   3.513   1.259  0.00  0.00    -0.130 F 
ATOM     11  C   LIG    1        0.036   3.705   0.639  0.00  0.00    -0.010 A 
BRANCH   8  12
ATOM     12  C   LIG    1       -2.518   0.985   0.051  0.00  0.00    -0.020 C 
BRANCH  12  13
ATOM     13  C   LIG    1       -2.685   0.301   1.384  0.00  0.00    +0.500 C 
ATOM     14  O   LIG    1       -3.674  -0.378   1.601  0.00  0.00    -0.700 OA
ATOM     15  O   LIG    1       -1.831   0.427   2.245  0.00  0.00    -0.690 OA
ENDBRANCH  12  13
ENDBRANCH   8  12
ENDBRANCH   2   5
BRANCH   1  18
ATOM     16  C   LIG    1        5.812   6.176  -0.345  0.00  0.00    +0.040 A 
ATOM     17  N   LIG    1        4.801   5.387  -0.236  0.00  0.00    -0.440 NA
ATOM     18  C   LIG    1        3.603   5.977  -0.215  0.00  0.00    +0.010 A 
ATOM     19  C   LIG    1        3.659   7.324  -0.320  0.00  0.00    -0.040 A 
ATOM     20  S   LIG    1        5.297   7.801  -0.434  0.00  0.00    +0.220 S 
BRANCH  16  22
ATOM     21  C   LIG    1        7.458   4.800  -1.589  0.00  0.00    +0.060 C 
ATOM     22  C   LIG    1        7.250   5.727  -0.390  0.00  0.00    +0.010 C 
ATOM     23  C   LIG    1        7.590   4.977   0.900  0.00  0.00    +0.060 C 
ATOM     24  C   LIG    1        8.161   6.948  -0.525  0.00  0.00    +0.040 C 
ENDBRANCH  16  22
ENDBRANCH   1  18
TORSDOF 5
