REMARK  Name = ZINCnE000001E5nk.0
REMARK                            x       y       z     vdW  Elec       q    Type
REMARK                         _______ _______ _______ _____ _____    ______ ____
ROOT
ATOM      1  S   LIG    1        5.715   3.254  -0.013  0.00  0.00    +2.690 S 
ATOM      2  O   LIG    1        6.511   2.205   0.522  0.00  0.00    -0.960 OA
ATOM      3  O   LIG    1        5.743   4.584   0.488  0.00  0.00    -0.960 OA
ENDROOT
BRANCH   1   7
ATOM      4  C   LIG    1        1.414   1.871   0.274  0.00  0.00    -0.020 A 
ATOM      5  C   LIG    1        1.703   3.221   0.208  0.00  0.00    -0.010 A 
ATOM      6  C   LIG    1        3.017   3.644   0.126  0.00  0.00    +0.130 A 
ATOM      7  C   LIG    1        4.041   2.716   0.099  0.00  0.00    -0.670 A 
ATOM      8  C   LIG    1        3.752   1.365   0.160  0.00  0.00    +0.130 A 
ATOM      9  C   LIG    1        2.438   0.943   0.247  0.00  0.00    -0.010 A 
BRANCH   4  11
ATOM     10  C   LIG    1       -0.793   1.900  -0.855  0.00  0.00    +0.030 C 
ATOM     11  C   LIG    1       -0.018   1.410   0.369  0.00  0.00    +0.020 C 
ATOM     12  C   LIG    1       -0.654   1.982   1.638  0.00  0.00    +0.040 C 
ENDBRANCH   4  11
ENDBRANCH   1   7
BRANCH   1  13
ATOM     13  N   LIG    1        6.092   3.352  -1.622  0.00  0.00    -1.020 N 
ATOM     14  H   LIG    1        6.812   2.813  -1.986  0.00  0.00    +0.440 HD
BRANCH  13  15
ATOM     15  C   LIG    1        5.377   4.206  -2.452  0.00  0.00    +0.180 A 
ATOM     16  C   LIG    1        4.927   5.430  -1.973  0.00  0.00    -0.010 A 
ATOM     17  C   LIG    1        4.221   6.279  -2.800  0.00  0.00    +0.000 A 
ATOM     18  C   LIG    1        3.946   5.916  -4.111  0.00  0.00    +0.060 A 
ATOM     19  C   LIG    1        4.379   4.703  -4.603  0.00  0.00    +0.050 A 
ATOM     20  F   LIG    1        3.249   6.756  -4.908  0.00  0.00    -0.150 F 
ATOM     21  C   LIG    1        5.100   3.833  -3.778  0.00  0.00    -0.130 A 
BRANCH  21  22
ATOM     22  C   LIG    1        5.566   2.538  -4.296  0.00  0.00    +0.530 C 
ATOM     23  O   LIG    1        6.197   1.781  -3.571  0.00  0.00    -0.680 OA
ATOM     24  O   LIG    1        5.323   2.218  -5.451  0.00  0.00    -0.680 OA
ENDBRANCH  21  22
ENDBRANCH  13  15
ENDBRANCH   1  13
TORSDOF 5
