REMARK  Name = ZINCb80000004T3b.0
REMARK                            x       y       z     vdW  Elec       q    Type
REMARK                         _______ _______ _______ _____ _____    ______ ____
ROOT
ATOM      1  N   LIG    1       -2.345   0.934   0.018  0.00  0.00    -0.730 N 
ATOM      2  H   LIG    1       -2.332  -0.036   0.013  0.00  0.00    +0.400 HD
ATOM      3  C   LIG    1       -1.187   1.624   0.017  0.00  0.00    +0.690 C 
ATOM      4  N   LIG    1       -0.011   0.966   0.007  0.00  0.00    -0.690 N 
ATOM      5  H   LIG    1        0.002  -0.004   0.002  0.00  0.00    +0.410 HD
ATOM      6  C   LIG    1        1.147   1.655   0.000  0.00  0.00    +0.500 C 
ATOM      7  O   LIG    1        1.130   2.868   0.007  0.00  0.00    -0.440 OA
ATOM      8  O   LIG    1       -1.204   2.839   0.023  0.00  0.00    -0.530 OA
ENDROOT
BRANCH   6   9
ATOM      9  C   LIG    1        2.462   0.920  -0.017  0.00  0.00    +0.190 C 
ATOM     10 CL   LIG    1        3.816   2.110  -0.023  0.00  0.00    -0.120 Cl
ENDBRANCH   6   9
BRANCH   1  11
ATOM     11  C   LIG    1       -3.624   1.649   0.028  0.00  0.00    +0.320 C 
BRANCH  11  13
ATOM     12  C   LIG    1       -5.673   0.706   0.962  0.00  0.00    +0.050 C 
ATOM     13  C   LIG    1       -4.756   0.654   0.028  0.00  0.00    -0.060 C 
ENDBRANCH  11  13
ENDBRANCH   1  11
TORSDOF 3
