REMARK  Name = ZINCtV00000L6jHw.0
REMARK                            x       y       z     vdW  Elec       q    Type
REMARK                         _______ _______ _______ _____ _____    ______ ____
ROOT
ATOM      1  C   LIG    1        5.439   0.653  -1.493  0.00  0.00    +0.300 A 
ATOM      2  N   LIG    1        6.351  -0.274  -1.501  0.00  0.00    -0.480 NA
ATOM      3  C   LIG    1        5.760  -1.496  -1.502  0.00  0.00    +0.050 A 
ATOM      4  C   LIG    1        6.251  -2.804  -1.514  0.00  0.00    +0.070 A 
ATOM      5  C   LIG    1        5.381  -3.858  -1.512  0.00  0.00    +0.000 A 
ATOM      6  C   LIG    1        4.010  -3.644  -1.498  0.00  0.00    +0.030 A 
ATOM      7  C   LIG    1        3.503  -2.362  -1.486  0.00  0.00    +0.010 A 
ATOM      8  C   LIG    1        4.372  -1.279  -1.488  0.00  0.00    +0.050 A 
ATOM      9  N   LIG    1        4.200   0.091  -1.479  0.00  0.00    -0.490 N 
ENDROOT
BRANCH   1  10
ATOM     10  C   LIG    1        5.714   2.135  -1.496  0.00  0.00    +0.120 C 
ATOM     11  C   LIG    1        6.531   2.504  -0.256  0.00  0.00    +0.060 C 
BRANCH  10  15
ATOM     12  C   LIG    1        7.912   3.171  -5.008  0.00  0.00    -0.070 A 
ATOM     13  C   LIG    1        6.674   3.740  -4.775  0.00  0.00    +0.000 A 
ATOM     14  C   LIG    1        5.963   3.405  -3.638  0.00  0.00    +0.010 A 
ATOM     15  C   LIG    1        6.489   2.500  -2.735  0.00  0.00    -0.090 A 
ATOM     16  C   LIG    1        7.729   1.935  -2.966  0.00  0.00    +0.060 A 
ATOM     17  C   LIG    1        8.439   2.267  -4.105  0.00  0.00    +0.000 A 
BRANCH  12  18
ATOM     18  C   LIG    1        8.688   3.536  -6.248  0.00  0.00    +0.060 C 
BRANCH  18  20
ATOM     19  C   LIG    1       10.461   5.035  -7.171  0.00  0.00    +0.010 C 
ATOM     20  C   LIG    1        9.582   4.742  -5.953  0.00  0.00    -0.020 C 
ATOM     21  C   LIG    1        8.710   5.961  -5.647  0.00  0.00    +0.010 C 
ENDBRANCH  18  20
ENDBRANCH  12  18
ENDBRANCH  10  15
ENDBRANCH   1  10
BRANCH   9  22
ATOM     22  C   LIG    1        2.922   0.806  -1.464  0.00  0.00    +0.300 C 
BRANCH  22  23
ATOM     23  C   LIG    1        2.490   1.048  -0.016  0.00  0.00    +0.060 C 
BRANCH  23  24
ATOM     24  C   LIG    1        1.175   1.783   0.000  0.00  0.00    -0.090 A 
ATOM     25  C   LIG    1       -0.013   1.076   0.008  0.00  0.00    +0.010 A 
ATOM     26  C   LIG    1       -1.219   1.751   0.017  0.00  0.00    +0.000 A 
ATOM     27  C   LIG    1       -1.238   3.133   0.029  0.00  0.00    +0.000 A 
ATOM     28  C   LIG    1       -0.050   3.840   0.022  0.00  0.00    +0.000 A 
ATOM     29  C   LIG    1        1.156   3.165   0.008  0.00  0.00    +0.010 A 
ENDBRANCH  23  24
ENDBRANCH  22  23
ENDBRANCH   9  22
TORSDOF 7
