REMARK  Name = ZINCqH0000007Jf3.0
REMARK                            x       y       z     vdW  Elec       q    Type
REMARK                         _______ _______ _______ _____ _____    ______ ____
ROOT
ATOM      1  C   LIG    1       -2.395   0.998   2.899  0.00  0.00    +0.210 C 
ATOM      2  C   LIG    1       -2.147   0.959   1.370  0.00  0.00    +0.050 C 
ATOM      3  C   LIG    1       -0.729   1.579   1.267  0.00  0.00    -0.020 C 
ATOM      4  C   LIG    1       -0.026   1.053   2.536  0.00  0.00    +0.210 C 
ATOM      5  C   LIG    1       -0.013   1.086   0.008  0.00  0.00    +0.040 C 
ATOM      6  N   LIG    1       -1.080   0.696   3.503  0.00  0.00    -0.480 N 
ENDROOT
BRANCH   6   7
ATOM      7  C   LIG    1       -0.913   1.379   4.695  0.00  0.00    +0.430 A 
ATOM      8  C   LIG    1       -0.924   2.783   4.726  0.00  0.00    -0.080 A 
ATOM      9  N   LIG    1       -1.071   3.756   3.794  0.00  0.00    -0.460 NA
ATOM     10  C   LIG    1       -1.000   4.921   4.369  0.00  0.00    +0.490 A 
ATOM     11  N   LIG    1       -0.813   4.768   5.711  0.00  0.00    -0.450 N 
ATOM     12  C   LIG    1       -0.754   3.421   5.966  0.00  0.00    +0.280 A 
ATOM     13  N   LIG    1       -0.580   2.679   7.055  0.00  0.00    -0.520 NA
ATOM     14  C   LIG    1       -0.572   1.365   6.978  0.00  0.00    +0.540 A 
ATOM     15  N   LIG    1       -0.733   0.721   5.836  0.00  0.00    -0.500 NA
BRANCH  11  16
ATOM     16  C   LIG    1       -0.682   5.843   6.697  0.00  0.00    +0.210 C 
ATOM     17  C   LIG    1       -0.982   7.269   6.230  0.00  0.00    +0.060 C 
ATOM     18  C   LIG    1        0.462   6.841   6.505  0.00  0.00    +0.030 C 
ENDBRANCH  11  16
ENDBRANCH   6   7
BRANCH   1  23
ATOM     19  C   LIG    1       -5.638  -0.640   3.938  0.00  0.00    +0.120 A 
ATOM     20  C   LIG    1       -5.260  -1.972   4.017  0.00  0.00    -0.080 A 
ATOM     21  C   LIG    1       -3.957  -2.337   3.734  0.00  0.00    +0.050 A 
ATOM     22  C   LIG    1       -3.032  -1.376   3.373  0.00  0.00    +0.010 A 
ATOM     23  C   LIG    1       -3.407  -0.047   3.293  0.00  0.00    -0.040 A 
ATOM     24  C   LIG    1       -4.706   0.324   3.580  0.00  0.00    -0.030 A 
BRANCH  19  26
ATOM     25  C   LIG    1       -7.822  -1.323   4.582  0.00  0.00    +0.240 C 
ATOM     26  O   LIG    1       -6.918  -0.279   4.215  0.00  0.00    -0.320 OA
ENDBRANCH  19  26
ENDBRANCH   1  23
TORSDOF 4
