REMARK  Name = ZINCpk000000nlI8.1
REMARK                            x       y       z     vdW  Elec       q    Type
REMARK                         _______ _______ _______ _____ _____    ______ ____
ROOT
ATOM      1  C   LIG    1       -2.945   3.388  -1.356  0.00  0.00    +0.530 C 
ATOM      2  N   LIG    1       -3.466   3.809  -2.526  0.00  0.00    -0.620 N 
ATOM      3  C   LIG    1       -2.921   3.518  -3.860  0.00  0.00    +0.230 C 
ATOM      4  C   LIG    1       -3.859   4.179  -4.892  0.00  0.00    +0.060 C 
ATOM      5  C   LIG    1       -5.190   4.326  -4.108  0.00  0.00    -0.010 C 
ATOM      6  C   LIG    1       -4.679   4.631  -2.679  0.00  0.00    +0.260 C 
ATOM      7  O   LIG    1       -3.481   3.689  -0.310  0.00  0.00    -0.540 OA
ENDROOT
BRANCH   1   8
ATOM      8  C   LIG    1       -1.697   2.543  -1.347  0.00  0.00    +0.070 C 
BRANCH   8   9
ATOM      9  C   LIG    1       -1.321   2.204   0.097  0.00  0.00    +0.220 C 
BRANCH   9  13
ATOM     10  C   LIG    1        1.935   0.692   0.137  0.00  0.00    +0.180 A 
ATOM     11  N   LIG    1        1.143  -0.337   0.076  0.00  0.00    -0.380 NA
ATOM     12  O   LIG    1       -0.015   0.025   0.058  0.00  0.00    +0.080 OA
ATOM     13  C   LIG    1       -0.073   1.359   0.106  0.00  0.00    +0.180 A 
ATOM     14  N   LIG    1        1.163   1.794   0.156  0.00  0.00    -0.470 NA
BRANCH  10  16
ATOM     15  C   LIG    1        3.919  -0.796   0.137  0.00  0.00    +0.050 C 
ATOM     16  C   LIG    1        3.441   0.657   0.177  0.00  0.00    +0.020 C 
ATOM     17  C   LIG    1        3.932   1.320   1.466  0.00  0.00    +0.060 C 
ATOM     18  C   LIG    1        4.001   1.412  -1.030  0.00  0.00    +0.060 C 
ENDBRANCH  10  16
ENDBRANCH   9  13
ENDBRANCH   8   9
ENDBRANCH   1   8
BRANCH   5  19
ATOM     19  C   LIG    1       -6.023   5.487  -4.654  0.00  0.00    +0.180 C 
BRANCH  19  20
ATOM     20  N   LIG    1       -6.425   5.193  -6.036  0.00  0.00    -0.530 NA
ATOM     21  C   LIG    1       -6.815   6.421  -6.744  0.00  0.00    +0.150 C 
ATOM     22  C   LIG    1       -7.168   6.077  -8.194  0.00  0.00    +0.220 C 
ATOM     23  O   LIG    1       -8.205   5.093  -8.206  0.00  0.00    -0.390 OA
ATOM     24  C   LIG    1       -7.859   3.883  -7.526  0.00  0.00    +0.220 C 
ATOM     25  C   LIG    1       -7.513   4.205  -6.070  0.00  0.00    +0.150 C 
ENDBRANCH  19  20
ENDBRANCH   5  19
TORSDOF 6
