REMARK  Name = ZINCrH000004tPPR.0
REMARK                            x       y       z     vdW  Elec       q    Type
REMARK                         _______ _______ _______ _____ _____    ______ ____
ROOT
ATOM      1  O   LIG    1        2.434   2.439  -2.598  0.00  0.00    -0.500 OA
ATOM      2  C   LIG    1        3.278   2.864  -1.837  0.00  0.00    +0.540 C 
ATOM      3  N   LIG    1        3.366   2.372  -0.586  0.00  0.00    -0.600 N 
ATOM      4  C   LIG    1        4.339   2.795   0.438  0.00  0.00    +0.250 C 
ATOM      5  C   LIG    1        4.455   1.585   1.399  0.00  0.00    +0.040 C 
ATOM      6  C   LIG    1        2.993   1.068   1.428  0.00  0.00    +0.060 C 
ATOM      7  C   LIG    1        2.507   1.323  -0.015  0.00  0.00    +0.320 C 
ENDROOT
BRANCH   7   8
ATOM      8  C   LIG    1        1.073   1.787   0.001  0.00  0.00    +0.280 A 
ATOM      9  N   LIG    1        0.693   3.031   0.012  0.00  0.00    -0.470 NA
ATOM     10  C   LIG    1       -0.664   3.093   0.025  0.00  0.00    +0.050 A 
ATOM     11  C   LIG    1       -1.580   4.148   0.039  0.00  0.00    +0.070 A 
ATOM     12  C   LIG    1       -2.920   3.885   0.051  0.00  0.00    +0.000 A 
ATOM     13  C   LIG    1       -3.385   2.578   0.048  0.00  0.00    +0.030 A 
ATOM     14  C   LIG    1       -2.500   1.521   0.034  0.00  0.00    +0.010 A 
ATOM     15  C   LIG    1       -1.134   1.769   0.016  0.00  0.00    +0.050 A 
ATOM     16  N   LIG    1       -0.011   0.966   0.007  0.00  0.00    -0.590 N 
ATOM     17  H   LIG    1        0.002  -0.004   0.002  0.00  0.00    +0.420 HD
ENDBRANCH   7   8
BRANCH   2  18
ATOM     18  C   LIG    1        4.227   3.942  -2.291  0.00  0.00    +0.240 C 
BRANCH  18  19
ATOM     19  O   LIG    1        3.936   4.295  -3.645  0.00  0.00    -0.290 OA
BRANCH  19  20
ATOM     20  C   LIG    1        4.706   5.261  -4.211  0.00  0.00    +0.130 A 
ATOM     21  C   LIG    1        5.718   5.861  -3.477  0.00  0.00    -0.080 A 
ATOM     22  C   LIG    1        6.502   6.838  -4.058  0.00  0.00    +0.050 A 
ATOM     23  C   LIG    1        6.275   7.229  -5.367  0.00  0.00    -0.130 A 
ATOM     24  C   LIG    1        6.980   8.265  -6.216  0.00  0.00    +0.070 C 
ATOM     25  C   LIG    1        6.017   8.550  -7.388  0.00  0.00    +0.030 C 
ATOM     26  C   LIG    1        5.219   7.232  -7.489  0.00  0.00    +0.080 C 
ATOM     27  C   LIG    1        5.263   6.635  -6.099  0.00  0.00    -0.060 A 
ATOM     28  C   LIG    1        4.479   5.652  -5.521  0.00  0.00    -0.010 A 
ENDBRANCH  19  20
ENDBRANCH  18  19
ENDBRANCH   2  18
TORSDOF 4
