REMARK  Name = ZINCkj000005jp1v.0
REMARK                            x       y       z     vdW  Elec       q    Type
REMARK                         _______ _______ _______ _____ _____    ______ ____
ROOT
ATOM      1  C   LIG    1        0.032   0.952   2.482  0.00  0.00    +0.140 A 
ATOM      2  C   LIG    1        0.562   1.808   3.384  0.00  0.00    -0.010 A 
ATOM      3  C   LIG    1        1.270   1.304   4.494  0.00  0.00    +0.560 A 
ATOM      4  N   LIG    1        1.413  -0.027   4.649  0.00  0.00    -0.350 N 
ATOM      5  N   LIG    1        2.051  -0.792   5.634  0.00  0.00    -0.230 NA
ATOM      6  C   LIG    1        1.917  -2.058   5.349  0.00  0.00    +0.370 A 
ATOM      7  C   LIG    1        1.177  -2.172   4.152  0.00  0.00    -0.170 A 
ATOM      8  C   LIG    1        0.874  -0.879   3.735  0.00  0.00    +0.350 A 
ATOM      9  O   LIG    1        1.751   2.070   5.311  0.00  0.00    -0.440 OA
ATOM     10  N   LIG    1        0.179  -0.393   2.655  0.00  0.00    -0.600 N 
ATOM     11  H   LIG    1       -0.205  -1.008   2.011  0.00  0.00    +0.430 HD
ENDROOT
BRANCH   7  12
ATOM     12  C   LIG    1        0.808  -3.388   3.491  0.00  0.00    +0.270 C 
ATOM     13  N   LIG    1        0.516  -4.353   2.967  0.00  0.00    -0.390 NA
ENDBRANCH   7  12
BRANCH   1  14
ATOM     14  C   LIG    1       -0.727   1.482   1.292  0.00  0.00    +0.370 C 
BRANCH  14  15
ATOM     15  N   LIG    1       -0.007   1.136   0.059  0.00  0.00    -0.390 N 
ATOM     16  C   LIG    1       -0.810   1.533  -1.105  0.00  0.00    +0.340 C 
ATOM     17  H   LIG    1        0.156   0.141   0.033  0.00  0.00    +0.420 HD
BRANCH  15  18
ATOM     18  C   LIG    1        1.281   1.843   0.029  0.00  0.00    +0.290 C 
BRANCH  18  22
ATOM     19  C   LIG    1        4.021   2.878  -0.255  0.00  0.00    +0.060 C 
ATOM     20  C   LIG    1        3.509   1.927  -1.339  0.00  0.00    +0.000 C 
ATOM     21  C   LIG    1        2.398   2.437  -2.260  0.00  0.00    +0.060 C 
ATOM     22  C   LIG    1        2.084   1.389  -1.191  0.00  0.00    -0.080 C 
ENDBRANCH  18  22
ENDBRANCH  15  18
ENDBRANCH  14  15
ENDBRANCH   1  14
TORSDOF 5
