REMARK  Name = ZINCtV00000tRU4F.0
REMARK                            x       y       z     vdW  Elec       q    Type
REMARK                         _______ _______ _______ _____ _____    ______ ____
ROOT
ATOM      1  C   LIG    1        1.156   1.690  -0.811  0.00  0.00    +0.560 C 
ENDROOT
BRANCH   1   4
ATOM      2  O   LIG    1        1.347   4.159   0.258  0.00  0.00    -0.470 OA
ATOM      3  C   LIG    1        1.998   3.297   0.816  0.00  0.00    +0.560 C 
ATOM      4  N   LIG    1        1.970   2.029   0.359  0.00  0.00    -0.730 N 
ATOM      5  H   LIG    1        2.489   1.341   0.804  0.00  0.00    +0.400 HD
BRANCH   3   6
ATOM      6  C   LIG    1        2.818   3.639   1.997  0.00  0.00    -0.120 A 
ATOM      7  C   LIG    1        3.562   2.650   2.644  0.00  0.00    +0.050 A 
ATOM      8  C   LIG    1        4.329   2.976   3.742  0.00  0.00    +0.040 A 
ATOM      9  C   LIG    1        4.356   4.279   4.210  0.00  0.00    -0.070 A 
ATOM     10  C   LIG    1        3.617   5.263   3.575  0.00  0.00    +0.040 A 
ATOM     11 BR   LIG    1        5.405   4.716   5.721  0.00  0.00    -0.040 Br
ATOM     12  C   LIG    1        2.849   4.950   2.473  0.00  0.00    +0.100 A 
ENDBRANCH   3   6
ENDBRANCH   1   4
BRANCH   1  13
ATOM     13  C   LIG    1        1.968   0.804  -1.758  0.00  0.00    +0.110 C 
ATOM     14 CL   LIG    1        2.448  -0.709  -0.901  0.00  0.00    -0.090 Cl
ATOM     15 CL   LIG    1        3.446   1.688  -2.289  0.00  0.00    -0.050 Cl
ATOM     16 CL   LIG    1        0.967   0.387  -3.198  0.00  0.00    -0.050 Cl
ENDBRANCH   1  13
BRANCH   1  17
ATOM     17  N   LIG    1       -0.045   0.972  -0.379  0.00  0.00    -0.700 N 
ATOM     18  H   LIG    1        0.018   0.045  -0.100  0.00  0.00    +0.400 HD
BRANCH  17  19
ATOM     19  C   LIG    1       -1.239   1.597  -0.374  0.00  0.00    +0.550 C 
ATOM     20  S   LIG    1       -1.351   3.233  -0.866  0.00  0.00    -0.540 S 
BRANCH  19  21
ATOM     21  N   LIG    1       -2.345   0.934   0.018  0.00  0.00    -0.620 N 
ATOM     22  H   LIG    1       -2.297  -0.013   0.221  0.00  0.00    +0.410 HD
BRANCH  21  23
ATOM     23  C   LIG    1       -3.560   1.611   0.133  0.00  0.00    +0.120 A 
ATOM     24  C   LIG    1       -3.613   2.847   0.740  0.00  0.00    +0.090 A 
ATOM     25  C   LIG    1       -4.820   3.530   0.860  0.00  0.00    +0.020 A 
ATOM     26  C   LIG    1       -5.979   2.999   0.383  0.00  0.00    +0.040 A 
ATOM     27  C   LIG    1       -5.969   1.741  -0.244  0.00  0.00    -0.050 A 
ATOM     28  C   LIG    1       -7.149   1.167  -0.746  0.00  0.00    +0.040 A 
ATOM     29  C   LIG    1       -7.103  -0.053  -1.346  0.00  0.00    +0.010 A 
ATOM     30  C   LIG    1       -5.901  -0.746  -1.471  0.00  0.00    +0.020 A 
ATOM     31  C   LIG    1       -4.738  -0.221  -0.996  0.00  0.00    +0.000 A 
ATOM     32  C   LIG    1       -4.745   1.038  -0.377  0.00  0.00    -0.040 A 
ENDBRANCH  21  23
ENDBRANCH  19  21
ENDBRANCH  17  19
ENDBRANCH   1  17
TORSDOF 7
