REMARK  Name = ZINCtV000002sQcS.0
REMARK                            x       y       z     vdW  Elec       q    Type
REMARK                         _______ _______ _______ _____ _____    ______ ____
ROOT
ATOM      1  N   LIG    1       -2.276  -1.544  -1.257  0.00  0.00    -0.670 N 
ATOM      2  H   LIG    1       -2.359  -1.470  -2.221  0.00  0.00    +0.410 HD
ATOM      3  C   LIG    1       -1.225  -0.984  -0.626  0.00  0.00    +0.530 C 
ATOM      4  O   LIG    1       -1.168  -0.995   0.585  0.00  0.00    -0.500 OA
ENDROOT
BRANCH   1  10
ATOM      5  C   LIG    1       -4.000  -1.567   0.434  0.00  0.00    -0.050 A 
ATOM      6  C   LIG    1       -4.960  -2.250   1.155  0.00  0.00    +0.010 A 
ATOM      7  C   LIG    1       -5.163  -3.600   0.933  0.00  0.00    +0.010 A 
ATOM      8  C   LIG    1       -4.410  -4.269  -0.015  0.00  0.00    +0.020 A 
ATOM      9  C   LIG    1       -3.452  -3.590  -0.743  0.00  0.00    -0.070 A 
ATOM     10  C   LIG    1       -3.246  -2.235  -0.522  0.00  0.00    +0.130 A 
BRANCH   5  12
ATOM     11  C   LIG    1       -4.688   0.719  -0.236  0.00  0.00    +0.030 C 
ATOM     12  C   LIG    1       -3.775  -0.098   0.680  0.00  0.00    +0.020 C 
ATOM     13  C   LIG    1       -4.095   0.229   2.141  0.00  0.00    +0.040 C 
ENDBRANCH   5  12
BRANCH   9  14
ATOM     14  C   LIG    1       -2.631  -4.320  -1.775  0.00  0.00    +0.020 C 
ATOM     15  C   LIG    1       -3.558  -4.907  -2.842  0.00  0.00    +0.040 C 
ATOM     16  C   LIG    1       -1.851  -5.450  -1.100  0.00  0.00    +0.040 C 
ENDBRANCH   9  14
ENDBRANCH   1  10
BRANCH   3  17
ATOM     17  C   LIG    1       -0.120  -0.343  -1.427  0.00  0.00    +0.100 C 
BRANCH  17  18
ATOM     18  S   LIG    1        1.136   0.315  -0.302  0.00  0.00    +0.140 S 
BRANCH  18  19
ATOM     19  C   LIG    1        2.272   0.986  -1.470  0.00  0.00    +0.150 A 
ATOM     20  N   LIG    1        2.132   0.955  -2.775  0.00  0.00    -0.480 NA
ATOM     21  C   LIG    1        3.190   1.562  -3.337  0.00  0.00    +0.190 A 
ATOM     22  C   LIG    1        4.005   1.979  -2.337  0.00  0.00    -0.000 A 
ATOM     23  O   LIG    1        3.418   1.618  -1.171  0.00  0.00    -0.170 OA
BRANCH  22  24
ATOM     24  C   LIG    1        5.287   2.696  -2.490  0.00  0.00    -0.030 A 
ATOM     25  C   LIG    1        5.771   3.004  -3.764  0.00  0.00    +0.070 A 
ATOM     26  C   LIG    1        6.967   3.677  -3.900  0.00  0.00    +0.000 A 
ATOM     27  C   LIG    1        7.693   4.040  -2.777  0.00  0.00    +0.110 A 
ATOM     28  C   LIG    1        7.220   3.734  -1.511  0.00  0.00    -0.010 A 
ATOM     29  F   LIG    1        8.866   4.695  -2.917  0.00  0.00    -0.130 F 
ATOM     30  C   LIG    1        6.023   3.065  -1.362  0.00  0.00    +0.070 A 
ENDBRANCH  22  24
ENDBRANCH  18  19
ENDBRANCH  17  18
ENDBRANCH   3  17
TORSDOF 7
