REMARK  Name = ZINCqH0000007SR4.0
REMARK                            x       y       z     vdW  Elec       q    Type
REMARK                         _______ _______ _______ _____ _____    ______ ____
ROOT
ATOM      1  N   LIG    1        1.261   2.208  -0.194  0.00  0.00    -0.710 N 
ATOM      2  H   LIG    1        1.688   2.670   0.545  0.00  0.00    +0.400 HD
ATOM      3  C   LIG    1        1.846   2.196  -1.408  0.00  0.00    +0.560 C 
ATOM      4  O   LIG    1        1.312   1.618  -2.333  0.00  0.00    -0.510 OA
ENDROOT
BRANCH   3   5
ATOM      5  C   LIG    1        3.143   2.887  -1.615  0.00  0.00    -0.030 A 
ATOM      6  C   LIG    1        3.753   2.881  -2.856  0.00  0.00    -0.010 A 
ATOM      7  C   LIG    1        4.984   3.549  -3.016  0.00  0.00    +0.520 A 
ATOM      8  N   LIG    1        5.550   4.180  -1.971  0.00  0.00    -0.600 N 
ATOM      9  H   LIG    1        6.397   4.636  -2.092  0.00  0.00    +0.410 HD
ATOM     10  C   LIG    1        4.956   4.189  -0.751  0.00  0.00    +0.200 A 
ATOM     11  O   LIG    1        5.537   3.554  -4.104  0.00  0.00    -0.540 OA
ATOM     12  C   LIG    1        3.771   3.567  -0.549  0.00  0.00    -0.060 A 
BRANCH  10  13
ATOM     13  C   LIG    1        5.622   4.907   0.394  0.00  0.00    +0.000 C 
ATOM     14  C   LIG    1        6.844   5.769   0.072  0.00  0.00    +0.040 C 
ATOM     15  C   LIG    1        7.018   4.437   0.806  0.00  0.00    +0.050 C 
ENDBRANCH  10  13
ENDBRANCH   3   5
BRANCH   1  16
ATOM     16  C   LIG    1       -0.019   1.526   0.010  0.00  0.00    +0.300 C 
BRANCH  16  22
ATOM     17  C   LIG    1       -2.345   1.897  -0.850  0.00  0.00    +0.140 A 
ATOM     18  C   LIG    1       -3.380   2.737  -1.233  0.00  0.00    -0.080 A 
ATOM     19  C   LIG    1       -3.215   4.107  -1.172  0.00  0.00    +0.040 A 
ATOM     20  C   LIG    1       -2.018   4.641  -0.731  0.00  0.00    -0.040 A 
ATOM     21  C   LIG    1       -0.987   3.806  -0.343  0.00  0.00    +0.050 A 
ATOM     22  C   LIG    1       -1.145   2.436  -0.407  0.00  0.00    -0.130 A 
BRANCH  17  24
ATOM     23  C   LIG    1       -3.767   0.065  -1.375  0.00  0.00    +0.250 C 
ATOM     24  O   LIG    1       -2.505   0.549  -0.908  0.00  0.00    -0.310 OA
ENDBRANCH  17  24
ENDBRANCH  16  22
BRANCH  16  25
ATOM     25  C   LIG    1       -0.175   1.166   1.489  0.00  0.00    +0.030 C 
BRANCH  25  26
ATOM     26  C   LIG    1        0.895   0.145   1.882  0.00  0.00    -0.030 C 
ATOM     27  C   LIG    1        0.658  -1.160   1.120  0.00  0.00    +0.020 C 
ATOM     28  C   LIG    1        0.819  -0.121   3.386  0.00  0.00    +0.020 C 
ENDBRANCH  25  26
ENDBRANCH  16  25
ENDBRANCH   1  16
TORSDOF 7
