REMARK  Name = ZINCpe00000yGvpX.0
REMARK                            x       y       z     vdW  Elec       q    Type
REMARK                         _______ _______ _______ _____ _____    ______ ____
ROOT
ATOM      1  N   LIG    1        0.678   4.306   0.712  0.00  0.00    -0.440 N 
ATOM      2  C   LIG    1        0.961   5.570   0.248  0.00  0.00    +0.260 A 
ATOM      3  N   LIG    1        1.811   5.435  -0.743  0.00  0.00    -0.230 NA
ATOM      4  N   LIG    1        2.080   4.191  -0.924  0.00  0.00    -0.300 NA
ATOM      5  C   LIG    1        1.410   3.456  -0.066  0.00  0.00    +0.370 A 
ENDROOT
BRANCH   5   6
ATOM      6  N   LIG    1        1.444   2.076   0.035  0.00  0.00    -0.460 N 
ATOM      7  C   LIG    1        0.459   1.456  -0.866  0.00  0.00    +0.220 C 
ATOM      8  C   LIG    1        0.534  -0.062  -0.716  0.00  0.00    +0.090 C 
ATOM      9  O   LIG    1        1.857  -0.570  -0.884  0.00  0.00    -0.360 OA
ATOM     10  C   LIG    1        2.818   0.046  -0.020  0.00  0.00    +0.240 C 
ATOM     11  C   LIG    1       -0.170  -0.589   0.540  0.00  0.00    +0.020 C 
ATOM     12  C   LIG    1       -1.445  -0.689  -0.315  0.00  0.00    +0.020 C 
ATOM     13  C   LIG    1       -0.521  -0.812  -1.539  0.00  0.00    +0.060 C 
ATOM     14  C   LIG    1        2.794   1.561  -0.238  0.00  0.00    +0.140 C 
ATOM     15  C   LIG    1        3.795   2.228   0.707  0.00  0.00    +0.040 C 
ENDBRANCH   5   6
BRANCH   2  16
ATOM     16  C   LIG    1        0.411   6.840   0.767  0.00  0.00    +0.290 A 
ATOM     17  N   LIG    1        0.697   8.043   0.314  0.00  0.00    -0.260 NA
ATOM     18  N   LIG    1       -0.043   8.952   1.088  0.00  0.00    -0.380 N 
ATOM     19  C   LIG    1       -0.735   8.221   1.980  0.00  0.00    +0.500 A 
ATOM     20  C   LIG    1       -0.056  10.411   0.953  0.00  0.00    +0.380 C 
ATOM     21  N   LIG    1       -0.458   6.960   1.782  0.00  0.00    -0.530 NA
ENDBRANCH   2  16
BRANCH   1  22
ATOM     22  C   LIG    1       -0.222   3.947   1.811  0.00  0.00    +0.350 C 
BRANCH  22  23
ATOM     23  C   LIG    1        0.546   3.993   3.134  0.00  0.00    +0.170 C 
BRANCH  23  25
ATOM     24  C   LIG    1        0.318   3.556   5.479  0.00  0.00    +0.200 C 
ATOM     25  O   LIG    1       -0.305   3.551   4.193  0.00  0.00    -0.380 OA
ENDBRANCH  23  25
ENDBRANCH  22  23
ENDBRANCH   1  22
TORSDOF 5
