REMARK  Name = ZINCrD00000e63Ve.0
REMARK                            x       y       z     vdW  Elec       q    Type
REMARK                         _______ _______ _______ _____ _____    ______ ____
ROOT
ATOM      1  C   LIG    1       -0.092   1.290   2.661  0.00  0.00    +0.290 A 
ATOM      2  N   LIG    1       -0.139   0.123   3.251  0.00  0.00    -0.520 NA
ATOM      3  C   LIG    1        0.921  -0.025   4.046  0.00  0.00    +0.230 A 
ATOM      4  N   LIG    1        1.655   1.055   3.981  0.00  0.00    -0.300 NA
ATOM      5  N   LIG    1        1.016   1.928   3.085  0.00  0.00    -0.330 N 
ENDROOT
BRANCH   5   6
ATOM      6  C   LIG    1        1.447   3.207   2.706  0.00  0.00    +0.150 A 
ATOM      7  C   LIG    1        1.409   3.587   1.371  0.00  0.00    +0.000 A 
ATOM      8  C   LIG    1        1.829   4.850   1.002  0.00  0.00    -0.060 A 
ATOM      9  C   LIG    1        2.297   5.732   1.959  0.00  0.00    +0.020 A 
ATOM     10  C   LIG    1        2.341   5.354   3.289  0.00  0.00    -0.060 A 
ATOM     11  C   LIG    1        2.851   6.318   4.328  0.00  0.00    +0.100 C 
ATOM     12  C   LIG    1        1.782   5.266  -0.446  0.00  0.00    +0.100 C 
ATOM     13  C   LIG    1        1.917   4.095   3.665  0.00  0.00    +0.020 A 
ENDBRANCH   5   6
BRANCH   3  14
ATOM     14  C   LIG    1        1.221  -1.238   4.888  0.00  0.00    +0.110 C 
ATOM     15  C   LIG    1        1.286  -0.833   6.364  0.00  0.00    +0.010 C 
ATOM     16  C   LIG    1        1.669  -2.055   7.204  0.00  0.00    +0.210 C 
ATOM     17  O   LIG    1        2.918  -2.575   6.744  0.00  0.00    -0.380 OA
ATOM     18  C   LIG    1        2.903  -3.013   5.384  0.00  0.00    +0.210 C 
ATOM     19  C   LIG    1        2.571  -1.830   4.472  0.00  0.00    +0.010 C 
ENDBRANCH   3  14
BRANCH   1  20
ATOM     20  C   LIG    1       -1.105   1.829   1.684  0.00  0.00    +0.170 C 
BRANCH  20  21
ATOM     21  C   LIG    1       -2.119   2.699   2.430  0.00  0.00    +0.180 C 
BRANCH  21  22
ATOM     22  O   LIG    1       -3.089   3.198   1.506  0.00  0.00    -0.380 OA
BRANCH  22  23
ATOM     23  C   LIG    1       -4.088   4.027   2.103  0.00  0.00    +0.170 C 
BRANCH  23  24
ATOM     24  C   LIG    1       -5.067   4.502   1.027  0.00  0.00    +0.040 C 
BRANCH  24  25
ATOM     25  C   LIG    1       -6.136   5.389   1.666  0.00  0.00    +0.160 C 
BRANCH  25  27
ATOM     26  C   LIG    1       -8.095   6.673   1.155  0.00  0.00    +0.200 C 
ATOM     27  O   LIG    1       -7.050   5.833   0.661  0.00  0.00    -0.390 OA
ENDBRANCH  25  27
ENDBRANCH  24  25
ENDBRANCH  23  24
ENDBRANCH  22  23
ENDBRANCH  21  22
ENDBRANCH  20  21
ENDBRANCH   1  20
TORSDOF 9
