REMARK  Name = ZINCvU0000000BCa.0
REMARK                            x       y       z     vdW  Elec       q    Type
REMARK                         _______ _______ _______ _____ _____    ______ ____
ROOT
ATOM      1  C   LIG    1        2.549   1.081  -0.260  0.00  0.00    -0.110 A 
ATOM      2  C   LIG    1        2.776  -0.229   0.166  0.00  0.00    +0.040 A 
ATOM      3  C   LIG    1        1.747  -1.147   0.142  0.00  0.00    +0.020 A 
ATOM      4  C   LIG    1        0.491  -0.772  -0.301  0.00  0.00    +0.030 A 
ATOM      5  C   LIG    1        0.259   0.525  -0.724  0.00  0.00    +0.040 A 
ATOM      6  C   LIG    1        1.280   1.453  -0.706  0.00  0.00    -0.040 A 
ENDROOT
BRANCH   1   8
ATOM      7  N   LIG    1        4.370   2.249   0.886  0.00  0.00    -0.600 N 
ATOM      8  C   LIG    1        3.648   2.070  -0.237  0.00  0.00    +0.560 C 
ATOM      9  O   LIG    1        3.901   2.720  -1.233  0.00  0.00    -0.520 OA
ATOM     10  C   LIG    1        4.134   1.396   2.053  0.00  0.00    +0.290 C 
BRANCH   7  11
ATOM     11  C   LIG    1        5.391   3.299   0.941  0.00  0.00    +0.350 C 
BRANCH  11  15
ATOM     12  C   LIG    1        3.627   6.931   2.345  0.00  0.00    +0.100 A 
ATOM     13  C   LIG    1        3.654   6.651   0.987  0.00  0.00    -0.050 A 
ATOM     14  C   LIG    1        4.231   5.478   0.536  0.00  0.00    +0.070 A 
ATOM     15  C   LIG    1        4.769   4.579   1.437  0.00  0.00    -0.120 A 
ATOM     16  C   LIG    1        4.744   4.854   2.792  0.00  0.00    +0.040 A 
ATOM     17  C   LIG    1        4.174   6.029   3.249  0.00  0.00    +0.070 A 
ATOM     18  F   LIG    1        4.148   6.298   4.572  0.00  0.00    -0.130 F 
BRANCH  12  20
ATOM     19  C   LIG    1        2.523   8.967   1.804  0.00  0.00    +0.250 C 
ATOM     20  O   LIG    1        3.066   8.086   2.790  0.00  0.00    -0.310 OA
ENDBRANCH  12  20
ENDBRANCH  11  15
ENDBRANCH   7  11
ENDBRANCH   1   8
BRANCH   6  21
ATOM     21  C   LIG    1        1.026   2.865  -1.167  0.00  0.00    +0.150 C 
BRANCH  21  22
ATOM     22  S   LIG    1        0.396   3.847   0.216  0.00  0.00    +0.060 S 
BRANCH  22  23
ATOM     23  C   LIG    1        0.193   5.405  -0.582  0.00  0.00    +0.220 A 
ATOM     24  N   LIG    1        0.469   5.646  -1.839  0.00  0.00    -0.480 NA
ATOM     25  C   LIG    1        0.186   6.950  -2.106  0.00  0.00    +0.030 A 
ATOM     26  C   LIG    1        0.281   7.741  -3.251  0.00  0.00    +0.080 A 
ATOM     27  C   LIG    1       -0.088   9.068  -3.197  0.00  0.00    +0.020 A 
ATOM     28  C   LIG    1       -0.550   9.620  -2.013  0.00  0.00    +0.050 A 
ATOM     29  C   LIG    1       -0.648   8.848  -0.873  0.00  0.00    +0.050 A 
ATOM     30  C   LIG    1       -0.283   7.513  -0.909  0.00  0.00    +0.010 A 
ATOM     31  O   LIG    1       -0.264   6.522   0.012  0.00  0.00    -0.190 OA
ENDBRANCH  22  23
ENDBRANCH  21  22
ENDBRANCH   6  21
TORSDOF 7
