REMARK  Name = ZINCvU00000005F9.0
REMARK                            x       y       z     vdW  Elec       q    Type
REMARK                         _______ _______ _______ _____ _____    ______ ____
ROOT
ATOM      1  N   LIG    1       -0.020   1.094   2.454  0.00  0.00    -0.700 N 
ATOM      2  H   LIG    1       -0.308   0.277   2.890  0.00  0.00    +0.420 HD
ENDROOT
BRANCH   1   3
ATOM      3  C   LIG    1        1.056   1.798   2.950  0.00  0.00    +0.490 A 
ATOM      4  N   LIG    1        1.463   2.915   2.367  0.00  0.00    -0.590 NA
ATOM      5  C   LIG    1        2.503   3.606   2.838  0.00  0.00    +0.440 A 
ATOM      6  N   LIG    1        3.188   3.227   3.904  0.00  0.00    -0.530 NA
ATOM      7  C   LIG    1        2.853   2.109   4.564  0.00  0.00    +0.200 A 
ATOM      8  C   LIG    1        3.557   1.679   5.697  0.00  0.00    +0.030 A 
ATOM      9  C   LIG    1        3.175   0.535   6.333  0.00  0.00    +0.060 A 
ATOM     10  C   LIG    1        2.096  -0.214   5.874  0.00  0.00    +0.000 A 
ATOM     11  C   LIG    1        1.389   0.176   4.773  0.00  0.00    +0.060 A 
ATOM     12  C   LIG    1        1.751   1.347   4.101  0.00  0.00    -0.200 A 
BRANCH   5  13
ATOM     13  C   LIG    1        2.905   4.841   2.141  0.00  0.00    -0.160 A 
ATOM     14  C   LIG    1        3.929   5.643   2.504  0.00  0.00    +0.070 A 
ATOM     15  C   LIG    1        4.116   6.741   1.694  0.00  0.00    +0.000 A 
ATOM     16  C   LIG    1        3.250   6.852   0.680  0.00  0.00    -0.040 A 
ATOM     17  S   LIG    1        2.121   5.503   0.713  0.00  0.00    +0.180 S 
ENDBRANCH   5  13
ENDBRANCH   1   3
BRANCH   1  18
ATOM     18  C   LIG    1       -0.729   1.579   1.267  0.00  0.00    +0.390 C 
ATOM     19  C   LIG    1       -0.013   1.086   0.008  0.00  0.00    +0.080 C 
BRANCH  18  23
ATOM     20  C   LIG    1       -4.251   0.870   1.149  0.00  0.00    +0.220 A 
ATOM     21  N   LIG    1       -3.732  -0.285   1.475  0.00  0.00    -0.350 NA
ATOM     22  O   LIG    1       -2.525  -0.195   1.547  0.00  0.00    +0.080 OA
ATOM     23  C   LIG    1       -2.143   1.058   1.278  0.00  0.00    +0.160 A 
ATOM     24  N   LIG    1       -3.227   1.745   1.019  0.00  0.00    -0.460 NA
BRANCH  20  30
ATOM     25  C   LIG    1       -6.644   0.157   1.124  0.00  0.00    +0.160 A 
ATOM     26  C   LIG    1       -7.988   0.442   0.943  0.00  0.00    -0.070 A 
ATOM     27  C   LIG    1       -8.383   1.720   0.595  0.00  0.00    +0.070 A 
ATOM     28  C   LIG    1       -7.443   2.721   0.428  0.00  0.00    -0.030 A 
ATOM     29  C   LIG    1       -6.101   2.452   0.611  0.00  0.00    +0.100 A 
ATOM     30  C   LIG    1       -5.691   1.166   0.956  0.00  0.00    -0.070 A 
BRANCH  25  32
ATOM     31  C   LIG    1       -7.284  -2.078   1.621  0.00  0.00    +0.240 C 
ATOM     32  O   LIG    1       -6.254  -1.099   1.466  0.00  0.00    -0.300 OA
ENDBRANCH  25  32
ENDBRANCH  20  30
ENDBRANCH  18  23
ENDBRANCH   1  18
TORSDOF 6
