REMARK  Name = ZINCAx0000000dP7.0
REMARK                            x       y       z     vdW  Elec       q    Type
REMARK                         _______ _______ _______ _____ _____    ______ ____
ROOT
ATOM      1  C   LIG    1       -1.651  -0.768  -1.685  0.00  0.00    +0.280 C 
ATOM      2  C   LIG    1       -1.397  -1.126  -0.206  0.00  0.00    +0.100 C 
ATOM      3  C   LIG    1        0.077  -0.692   0.009  0.00  0.00    +0.180 C 
ATOM      4  C   LIG    1        0.705  -1.034  -1.365  0.00  0.00    +0.240 C 
ATOM      5  N   LIG    1       -0.341  -0.707  -2.351  0.00  0.00    -0.600 N 
ATOM      6  C   LIG    1       -0.132  -0.403  -3.647  0.00  0.00    +0.550 C 
ATOM      7  O   LIG    1       -1.076  -0.244  -4.392  0.00  0.00    -0.520 OA
ENDROOT
BRANCH   6   8
ATOM      8  C   LIG    1        1.274  -0.261  -4.170  0.00  0.00    -0.060 C 
ATOM      9  C   LIG    1        2.073  -1.521  -3.833  0.00  0.00    +0.040 C 
ATOM     10  C   LIG    1        3.501  -1.377  -4.365  0.00  0.00    -0.010 C 
ATOM     11  C   LIG    1        4.166  -0.162  -3.715  0.00  0.00    +0.020 C 
ATOM     12  C   LIG    1        3.367   1.098  -4.052  0.00  0.00    +0.000 C 
ATOM     13  C   LIG    1        3.329   1.288  -5.569  0.00  0.00    +0.020 C 
ATOM     14  C   LIG    1        2.664   0.073  -6.219  0.00  0.00    -0.020 C 
ATOM     15  C   LIG    1        3.463  -1.187  -5.882  0.00  0.00    +0.010 C 
ATOM     16  C   LIG    1        1.939   0.954  -3.521  0.00  0.00    +0.040 C 
ATOM     17  C   LIG    1        1.236  -0.071  -5.688  0.00  0.00    +0.050 C 
ENDBRANCH   6   8
BRANCH   1  18
ATOM     18  C   LIG    1       -2.505  -1.829  -2.331  0.00  0.00    +0.450 C 
ATOM     19  O   LIG    1       -2.070  -2.475  -3.255  0.00  0.00    -0.480 OA
BRANCH  18  20
ATOM     20  O   LIG    1       -3.748  -2.057  -1.879  0.00  0.00    -0.330 OA
BRANCH  20  21
ATOM     21  C   LIG    1       -4.513  -3.094  -2.548  0.00  0.00    +0.260 C 
BRANCH  21  23
ATOM     22  N   LIG    1       -6.761  -4.111  -2.369  0.00  0.00    -0.570 N 
ATOM     23  C   LIG    1       -5.873  -3.207  -1.909  0.00  0.00    +0.520 C 
ATOM     24  O   LIG    1       -6.168  -2.484  -0.981  0.00  0.00    -0.490 OA
BRANCH  22  25
ATOM     25  C   LIG    1       -8.025  -4.215  -1.775  0.00  0.00    +0.100 A 
ATOM     26  C   LIG    1       -9.082  -3.453  -2.251  0.00  0.00    +0.060 A 
ATOM     27  C   LIG    1      -10.328  -3.558  -1.663  0.00  0.00    +0.020 A 
ATOM     28  C   LIG    1      -10.523  -4.422  -0.601  0.00  0.00    +0.060 A 
ATOM     29  C   LIG    1       -9.473  -5.184  -0.123  0.00  0.00    -0.010 A 
ATOM     30  C   LIG    1       -8.225  -5.088  -0.710  0.00  0.00    +0.110 A 
ATOM     31  F   LIG    1       -7.199  -5.836  -0.246  0.00  0.00    -0.130 F 
ENDBRANCH  22  25
BRANCH  22  32
ATOM     32  C   LIG    1       -6.404  -4.984  -3.490  0.00  0.00    +0.310 C 
BRANCH  32  33
ATOM     33  C   LIG    1       -5.763  -6.266  -2.954  0.00  0.00    +0.180 C 
BRANCH  33  35
ATOM     34  N   LIG    1       -5.127  -7.819  -4.949  0.00  0.00    -0.420 NA
ATOM     35  C   LIG    1       -5.404  -7.143  -4.080  0.00  0.00    +0.200 C 
ENDBRANCH  33  35
ENDBRANCH  32  33
ENDBRANCH  22  32
ENDBRANCH  21  23
ENDBRANCH  20  21
ENDBRANCH  18  20
ENDBRANCH   1  18
BRANCH   3  36
ATOM     36  O   LIG    1        0.164   0.709   0.278  0.00  0.00    -0.550 OA
ATOM     37  H   LIG    1        1.069   1.045   0.323  0.00  0.00    +0.380 HD
ENDBRANCH   3  36
TORSDOF 10
