REMARK  Name = ZINCrD000000CRV9.0
REMARK                            x       y       z     vdW  Elec       q    Type
REMARK                         _______ _______ _______ _____ _____    ______ ____
ROOT
ATOM      1  O   LIG    1        2.606   1.493   0.680  0.00  0.00    -0.540 OA
ATOM      2  C   LIG    1        1.518   2.026   0.618  0.00  0.00    +0.520 C 
ATOM      3  C   LIG    1        1.347   3.359   1.284  0.00  0.00    +0.080 C 
ATOM      4  C   LIG    1        0.749   4.365   0.295  0.00  0.00    +0.300 C 
ATOM      5  N   LIG    1       -0.708   4.233   0.359  0.00  0.00    -0.630 N 
ATOM      6  C   LIG    1       -1.274   2.904   0.663  0.00  0.00    +0.280 C 
ATOM      7  C   LIG    1       -0.762   1.915  -0.393  0.00  0.00    +0.280 C 
ATOM      8  C   LIG    1       -1.510   5.295   0.148  0.00  0.00    +0.700 C 
ATOM      9  N   LIG    1       -2.849   5.142   0.162  0.00  0.00    -0.690 N 
ATOM     10  H   LIG    1       -3.237   4.286   0.401  0.00  0.00    +0.400 HD
ATOM     11  O   LIG    1       -1.026   6.392  -0.055  0.00  0.00    -0.540 OA
ATOM     12  N   LIG    1        0.550   1.398  -0.036  0.00  0.00    -0.720 N 
ATOM     13  H   LIG    1        0.740   0.487  -0.311  0.00  0.00    +0.400 HD
ENDROOT
BRANCH   9  14
ATOM     14  C   LIG    1       -3.681   6.221  -0.168  0.00  0.00    +0.140 A 
ATOM     15  C   LIG    1       -3.269   7.153  -1.110  0.00  0.00    +0.060 A 
ATOM     16  C   LIG    1       -4.091   8.213  -1.439  0.00  0.00    -0.030 A 
ATOM     17  C   LIG    1       -5.325   8.351  -0.820  0.00  0.00    +0.090 A 
ATOM     18  C   LIG    1       -5.735   7.423   0.125  0.00  0.00    +0.030 A 
ATOM     19  C   LIG    1       -4.916   6.360   0.451  0.00  0.00    +0.030 A 
BRANCH  17  20
ATOM     20  O   LIG    1       -6.132   9.397  -1.141  0.00  0.00    -0.320 OA
BRANCH  20  21
ATOM     21  C   LIG    1       -5.646  10.315  -2.123  0.00  0.00    +0.590 C 
ATOM     22  F   LIG    1       -5.418   9.634  -3.324  0.00  0.00    -0.200 F 
ATOM     23  F   LIG    1       -4.450  10.886  -1.676  0.00  0.00    -0.200 F 
ENDBRANCH  20  21
ENDBRANCH  17  20
ENDBRANCH   9  14
BRANCH   4  24
ATOM     24  C   LIG    1        1.153   5.764   0.681  0.00  0.00    -0.080 A 
ATOM     25  C   LIG    1        0.480   6.425   1.691  0.00  0.00    +0.050 A 
ATOM     26  C   LIG    1        0.854   7.707   2.049  0.00  0.00    +0.000 A 
ATOM     27  C   LIG    1        1.895   8.332   1.388  0.00  0.00    +0.010 A 
ATOM     28  C   LIG    1        2.566   7.673   0.374  0.00  0.00    +0.000 A 
ATOM     29  C   LIG    1        2.195   6.390   0.021  0.00  0.00    +0.010 A 
ENDBRANCH   4  24
TORSDOF 4
