REMARK  Name = ZINC650000003Wpl.0
REMARK                            x       y       z     vdW  Elec       q    Type
REMARK                         _______ _______ _______ _____ _____    ______ ____
ROOT
ATOM      1  C   LIG    1       -1.938   1.990   0.748  0.00  0.00    +0.680 C 
ATOM      2  N   LIG    1       -0.773   1.596   1.165  0.00  0.00    -0.650 NA
ATOM      3  C   LIG    1       -0.013   1.086   0.008  0.00  0.00    +0.320 C 
ATOM      4  C   LIG    1       -0.834   1.634  -1.185  0.00  0.00    +0.320 C 
ATOM      5  H   LIG    1       -0.457   1.631   2.081  0.00  0.00    +0.460 HD
ATOM      6  O   LIG    1       -2.128   1.823  -0.576  0.00  0.00    -0.270 OA
ENDROOT
BRANCH   1   7
ATOM      7  N   LIG    1       -2.889   2.529   1.579  0.00  0.00    -0.760 NA
ATOM      8  H   LIG    1       -2.705   2.629   2.526  0.00  0.00    +0.450 HD
ATOM      9  H   LIG    1       -3.745   2.808   1.219  0.00  0.00    +0.450 HD
ENDBRANCH   1   7
TORSDOF 1
