REMARK  Name = ZINC650000003Wpl.1
REMARK                            x       y       z     vdW  Elec       q    Type
REMARK                         _______ _______ _______ _____ _____    ______ ____
ROOT
ATOM      1  C   LIG    1       -1.210   1.636   0.017  0.00  0.00    +0.530 C 
ATOM      2  N   LIG    1       -2.358   1.033   0.019  0.00  0.00    -0.620 NA
ATOM      3  C   LIG    1       -3.422   2.056   0.020  0.00  0.00    +0.190 C 
ATOM      4  C   LIG    1       -2.641   3.333  -0.375  0.00  0.00    +0.220 C 
ATOM      5  O   LIG    1       -1.300   2.981   0.030  0.00  0.00    -0.360 OA
ENDROOT
BRANCH   1   6
ATOM      6  N   LIG    1       -0.011   0.966   0.007  0.00  0.00    -0.820 N 
ATOM      7  H   LIG    1        0.822   1.462   0.002  0.00  0.00    +0.410 HD
ATOM      8  H   LIG    1        0.002  -0.004   0.002  0.00  0.00    +0.430 HD
ENDBRANCH   1   6
TORSDOF 1
