REMARK  Name = ZINCqH00000397pE.0
REMARK                            x       y       z     vdW  Elec       q    Type
REMARK                         _______ _______ _______ _____ _____    ______ ____
ROOT
ATOM      1  N   LIG    1        1.897   5.085  -2.087  0.00  0.00    -0.710 N 
ATOM      2  H   LIG    1        1.354   5.681  -1.548  0.00  0.00    +0.400 HD
ATOM      3  C   LIG    1        1.752   5.068  -3.427  0.00  0.00    +0.520 C 
ATOM      4  O   LIG    1        2.432   4.324  -4.101  0.00  0.00    -0.530 OA
ENDROOT
BRANCH   1   5
ATOM      5  C   LIG    1        2.877   4.204  -1.445  0.00  0.00    +0.250 C 
BRANCH   5   9
ATOM      6  N   LIG    1        5.292   4.237  -0.915  0.00  0.00    -0.850 N 
ATOM      7  H   LIG    1        6.164   4.662  -0.922  0.00  0.00    +0.400 HD
ATOM      8  H   LIG    1        5.185   3.357  -0.519  0.00  0.00    +0.400 HD
ATOM      9  C   LIG    1        4.230   4.866  -1.456  0.00  0.00    +0.510 C 
ATOM     10  O   LIG    1        4.364   5.965  -1.951  0.00  0.00    -0.530 OA
ENDBRANCH   5   9
BRANCH   5  11
ATOM     11  C   LIG    1        2.451   3.936  -0.000  0.00  0.00    +0.100 C 
BRANCH  11  12
ATOM     12  C   LIG    1        1.156   3.166   0.007  0.00  0.00    -0.080 A 
ATOM     13  C   LIG    1        1.175   1.783   0.000  0.00  0.00    +0.030 A 
ATOM     14  C   LIG    1       -0.013   1.076   0.008  0.00  0.00    +0.030 A 
ATOM     15  C   LIG    1       -1.220   1.751   0.017  0.00  0.00    -0.030 A 
ATOM     16  C   LIG    1       -1.238   3.135   0.029  0.00  0.00    +0.030 A 
ATOM     17 CL   LIG    1       -2.712   0.864   0.020  0.00  0.00    -0.070 Cl
ATOM     18  C   LIG    1       -0.050   3.841   0.022  0.00  0.00    +0.030 A 
ENDBRANCH  11  12
ENDBRANCH   5  11
ENDBRANCH   1   5
BRANCH   3  19
ATOM     19  C   LIG    1        0.745   5.974  -4.087  0.00  0.00    +0.070 C 
BRANCH  19  20
ATOM     20  C   LIG    1        0.781   5.759  -5.601  0.00  0.00    +0.110 C 
BRANCH  20  21
ATOM     21  C   LIG    1       -0.226   6.665  -6.262  0.00  0.00    -0.080 A 
ATOM     22  C   LIG    1       -1.444   6.266  -6.570  0.00  0.00    -0.020 A 
ATOM     23  S   LIG    1       -2.368   7.553  -7.322  0.00  0.00    +0.080 S 
ATOM     24  C   LIG    1       -1.019   8.676  -7.213  0.00  0.00    -0.140 A 
ATOM     25  C   LIG    1       -0.912  10.010  -7.618  0.00  0.00    +0.050 A 
ATOM     26  C   LIG    1        0.263  10.699  -7.426  0.00  0.00    +0.030 A 
ATOM     27  C   LIG    1        1.349  10.073  -6.829  0.00  0.00    +0.010 A 
ATOM     28  C   LIG    1        1.266   8.775  -6.428  0.00  0.00    +0.050 A 
ATOM     29  C   LIG    1        0.073   8.044  -6.612  0.00  0.00    -0.070 A 
ENDBRANCH  20  21
ENDBRANCH  19  20
ENDBRANCH   3  19
TORSDOF 7
