REMARK  Name = ZINCvU0000000Gyi.0
REMARK                            x       y       z     vdW  Elec       q    Type
REMARK                         _______ _______ _______ _____ _____    ______ ____
ROOT
ATOM      1  O   LIG    1       -2.503   5.524   2.739  0.00  0.00    -0.510 OA
ATOM      2  C   LIG    1       -1.481   5.994   2.286  0.00  0.00    +0.520 C 
ATOM      3  N   LIG    1       -0.305   5.367   2.483  0.00  0.00    -0.670 N 
ATOM      4  H   LIG    1        0.521   5.780   2.187  0.00  0.00    +0.410 HD
ENDROOT
BRANCH   2   5
ATOM      5  C   LIG    1       -1.527   7.280   1.502  0.00  0.00    +0.000 C 
ATOM      6  C   LIG    1       -0.658   8.332   2.196  0.00  0.00    +0.030 C 
ATOM      7  C   LIG    1       -0.679   9.627   1.378  0.00  0.00    +0.290 C 
ATOM      8  N   LIG    1       -2.076  10.036   1.177  0.00  0.00    -0.610 N 
ATOM      9  C   LIG    1       -3.019   9.069   0.599  0.00  0.00    +0.270 C 
ATOM     10  C   LIG    1       -2.484  11.275   1.514  0.00  0.00    +0.560 C 
ATOM     11  O   LIG    1       -1.686  12.078   1.960  0.00  0.00    -0.530 OA
ATOM     12  C   LIG    1       -2.971   7.780   1.425  0.00  0.00    +0.050 C 
BRANCH  10  13
ATOM     13  C   LIG    1       -3.901  11.659   1.344  0.00  0.00    -0.130 A 
ATOM     14  C   LIG    1       -4.650  11.124   0.294  0.00  0.00    +0.060 A 
ATOM     15  C   LIG    1       -5.973  11.482   0.143  0.00  0.00    +0.020 A 
ATOM     16  C   LIG    1       -6.556  12.379   1.023  0.00  0.00    -0.010 A 
ATOM     17  C   LIG    1       -5.816  12.917   2.063  0.00  0.00    +0.030 A 
ATOM     18 CL   LIG    1       -8.220  12.830   0.822  0.00  0.00    -0.060 Cl
ATOM     19  C   LIG    1       -4.494  12.562   2.228  0.00  0.00    +0.090 A 
ENDBRANCH  10  13
ENDBRANCH   2   5
BRANCH   3  20
ATOM     20  C   LIG    1       -0.275   4.117   3.117  0.00  0.00    +0.160 A 
ATOM     21  C   LIG    1       -1.381   3.280   3.052  0.00  0.00    +0.030 A 
ATOM     22  C   LIG    1       -1.352   2.048   3.676  0.00  0.00    +0.020 A 
ATOM     23  C   LIG    1       -0.217   1.647   4.369  0.00  0.00    +0.080 A 
ATOM     24  C   LIG    1        0.887   2.487   4.439  0.00  0.00    +0.010 A 
ATOM     25 CL   LIG    1        2.303   1.990   5.311  0.00  0.00    -0.050 Cl
ATOM     26  C   LIG    1        0.860   3.716   3.809  0.00  0.00    +0.000 A 
BRANCH  23  27
ATOM     27  N   LIG    1       -0.188   0.398   5.001  0.00  0.00    -0.490 N 
ATOM     28  C   LIG    1       -0.284  -0.691   4.020  0.00  0.00    +0.180 C 
ATOM     29  C   LIG    1       -0.103  -2.035   4.729  0.00  0.00    +0.020 C 
ATOM     30  C   LIG    1       -1.186  -2.191   5.801  0.00  0.00    +0.010 C 
ATOM     31  C   LIG    1       -1.095  -1.019   6.782  0.00  0.00    +0.020 C 
ATOM     32  C   LIG    1       -1.247   0.296   6.013  0.00  0.00    +0.180 C 
ENDBRANCH  23  27
ENDBRANCH   3  20
TORSDOF 4
