REMARK  Name = ZINCvU00000007hV.0
REMARK                            x       y       z     vdW  Elec       q    Type
REMARK                         _______ _______ _______ _____ _____    ______ ____
ROOT
ATOM      1  C   LIG    1       -1.236   2.120   0.019  0.00  0.00    +0.210 A 
ATOM      2  C   LIG    1       -0.017   1.428   0.010  0.00  0.00    -0.110 A 
ATOM      3  C   LIG    1        1.185   2.154   0.002  0.00  0.00    +0.350 A 
ATOM      4  N   LIG    1        1.196   3.462   0.009  0.00  0.00    -0.460 NA
ATOM      5  C   LIG    1        0.066   4.183   0.024  0.00  0.00    +0.130 A 
ATOM      6  C   LIG    1        0.113   5.587   0.030  0.00  0.00    +0.090 A 
ATOM      7  C   LIG    1       -1.042   6.307   0.044  0.00  0.00    +0.000 A 
ATOM      8  C   LIG    1       -2.286   5.671   0.053  0.00  0.00    +0.110 A 
ATOM      9  C   LIG    1       -2.368   4.296   0.048  0.00  0.00    +0.070 A 
ATOM     10  C   LIG    1       -1.192   3.535   0.033  0.00  0.00    -0.060 A 
ENDROOT
BRANCH   1  13
ATOM     11  C   LIG    1       -3.925  -0.107   1.194  0.00  0.00    +0.290 C 
ATOM     12  C   LIG    1       -2.555   0.576   1.201  0.00  0.00    +0.180 C 
ATOM     13  N   LIG    1       -2.440   1.444   0.021  0.00  0.00    -0.500 N 
ATOM     14  C   LIG    1       -2.610   0.668  -1.216  0.00  0.00    +0.170 C 
ATOM     15  C   LIG    1       -3.979  -0.015  -1.199  0.00  0.00    +0.250 C 
ATOM     16  O   LIG    1       -4.085  -0.831  -0.029  0.00  0.00    -0.370 OA
BRANCH  11  20
ATOM     17  C   LIG    1       -4.675  -1.784   4.358  0.00  0.00    +0.080 A 
ATOM     18  C   LIG    1       -3.932  -2.850   4.044  0.00  0.00    -0.080 A 
ATOM     19  S   LIG    1       -3.241  -2.579   2.446  0.00  0.00    +0.170 S 
ATOM     20  C   LIG    1       -4.020  -1.059   2.358  0.00  0.00    +0.040 A 
ATOM     21  N   LIG    1       -4.696  -0.843   3.436  0.00  0.00    -0.450 NA
BRANCH  17  23
ATOM     22  C   LIG    1       -5.084  -2.862   6.553  0.00  0.00    +0.040 C 
ATOM     23  C   LIG    1       -5.423  -1.667   5.661  0.00  0.00    +0.010 C 
ATOM     24  C   LIG    1       -6.927  -1.646   5.386  0.00  0.00    +0.030 C 
ATOM     25  C   LIG    1       -5.016  -0.372   6.367  0.00  0.00    +0.030 C 
ENDBRANCH  17  23
ENDBRANCH  11  20
ENDBRANCH   1  13
BRANCH   2  26
ATOM     26  C   LIG    1        0.002  -0.004   0.002  0.00  0.00    +0.240 C 
ATOM     27  N   LIG    1        0.018  -1.140  -0.004  0.00  0.00    -0.380 NA
ENDBRANCH   2  26
BRANCH   8  28
ATOM     28  O   LIG    1       -3.423   6.415   0.068  0.00  0.00    -0.310 OA
BRANCH  28  29
ATOM     29  C   LIG    1       -3.270   7.836   0.073  0.00  0.00    +0.600 C 
ATOM     30  F   LIG    1       -2.575   8.234  -1.074  0.00  0.00    -0.200 F 
ATOM     31  F   LIG    1       -2.553   8.223   1.211  0.00  0.00    -0.200 F 
ENDBRANCH  28  29
ENDBRANCH   8  28
TORSDOF 6
