REMARK  Name = ZINCAx0000000fPP.0
REMARK                            x       y       z     vdW  Elec       q    Type
REMARK                         _______ _______ _______ _____ _____    ______ ____
ROOT
ATOM      1  C   LIG    1       -4.253   0.089  -1.415  0.00  0.00    +0.520 C 
ATOM      2  N   LIG    1       -4.796  -0.323  -2.577  0.00  0.00    -0.620 N 
ATOM      3  C   LIG    1       -4.214  -0.120  -3.917  0.00  0.00    +0.250 C 
ATOM      4  C   LIG    1       -4.822  -1.248  -4.788  0.00  0.00    +0.040 C 
ATOM      5  C   LIG    1       -6.265  -1.335  -4.223  0.00  0.00    +0.040 C 
ATOM      6  C   LIG    1       -6.062  -1.056  -2.719  0.00  0.00    +0.220 C 
ATOM      7  O   LIG    1       -4.821  -0.134  -0.367  0.00  0.00    -0.510 OA
ENDROOT
BRANCH   1   8
ATOM      8  C   LIG    1       -2.939   0.828  -1.417  0.00  0.00    +0.060 C 
BRANCH   8   9
ATOM      9  C   LIG    1       -2.550   1.180   0.020  0.00  0.00    +0.140 C 
BRANCH   9  14
ATOM     10  C   LIG    1        2.394   4.040   0.001  0.00  0.00    +0.190 C 
ATOM     11  C   LIG    1        1.100   3.268   0.009  0.00  0.00    +0.400 A 
ATOM     12  N   LIG    1       -0.032   3.919   0.023  0.00  0.00    -0.530 NA
ATOM     13  C   LIG    1       -1.205   3.281   0.031  0.00  0.00    +0.190 A 
ATOM     14  C   LIG    1       -1.237   1.919   0.018  0.00  0.00    -0.260 A 
ATOM     15  C   LIG    1       -0.015   1.216   0.009  0.00  0.00    +0.520 A 
ATOM     16  O   LIG    1        0.002  -0.004   0.002  0.00  0.00    -0.530 OA
ATOM     17  C   LIG    1       -2.491   4.066   0.046  0.00  0.00    +0.140 C 
ATOM     18  N   LIG    1        1.137   1.921   0.002  0.00  0.00    -0.630 N 
ATOM     19  H   LIG    1        1.990   1.458  -0.009  0.00  0.00    +0.420 HD
ENDBRANCH   9  14
ENDBRANCH   8   9
ENDBRANCH   1   8
BRANCH   6  20
ATOM     20  C   LIG    1       -7.218  -0.205  -2.190  0.00  0.00    +0.320 C 
BRANCH  20  21
ATOM     21  N   LIG    1       -7.054   0.001  -0.749  0.00  0.00    -0.270 N 
ATOM     22  C   LIG    1       -7.018   1.197  -0.118  0.00  0.00    +0.140 A 
ATOM     23  C   LIG    1       -6.853   0.924   1.198  0.00  0.00    -0.050 A 
ATOM     24  N   LIG    1       -6.797  -0.408   1.305  0.00  0.00    -0.250 NA
ATOM     25  N   LIG    1       -6.924  -0.926   0.135  0.00  0.00    -0.050 NA
BRANCH  23  26
ATOM     26  C   LIG    1       -6.753   1.925   2.321  0.00  0.00    +0.360 C 
BRANCH  26  27
ATOM     27  C   LIG    1       -7.792   1.611   3.367  0.00  0.00    -0.110 A 
ATOM     28  C   LIG    1       -7.523   0.674   4.347  0.00  0.00    +0.070 A 
ATOM     29  C   LIG    1       -8.474   0.390   5.310  0.00  0.00    +0.020 A 
ATOM     30  C   LIG    1       -9.696   1.034   5.286  0.00  0.00    +0.070 A 
ATOM     31  C   LIG    1       -9.966   1.967   4.302  0.00  0.00    -0.180 A 
ATOM     32  C   LIG    1       -9.014   2.255   3.343  0.00  0.00    +0.070 A 
BRANCH  31  33
ATOM     33  C   LIG    1      -11.300   2.669   4.275  0.00  0.00    +0.510 C 
ATOM     34  F   LIG    1      -11.143   3.946   3.725  0.00  0.00    -0.180 F 
ATOM     35  F   LIG    1      -11.794   2.781   5.579  0.00  0.00    -0.180 F 
ATOM     36  F   LIG    1      -12.199   1.933   3.497  0.00  0.00    -0.180 F 
ENDBRANCH  31  33
ENDBRANCH  26  27
BRANCH  26  37
ATOM     37  O   LIG    1       -5.451   1.856   2.905  0.00  0.00    -0.540 OA
ATOM     38  H   LIG    1       -5.231   0.990   3.275  0.00  0.00    +0.380 HD
ENDBRANCH  26  37
ENDBRANCH  23  26
ENDBRANCH  20  21
ENDBRANCH   6  20
TORSDOF 9
