REMARK  Name = ZINCrg00000ShXWq.0
REMARK                            x       y       z     vdW  Elec       q    Type
REMARK                         _______ _______ _______ _____ _____    ______ ____
ROOT
ATOM      1  N   LIG    1        0.032   1.234   2.533  0.00  0.00    -0.970 NA
ENDROOT
BRANCH   1   2
ATOM      2  C   LIG    1        1.217   1.992   2.943  0.00  0.00    +0.280 C 
ATOM      3  C   LIG    1        2.093   2.304   1.717  0.00  0.00    +0.060 C 
ATOM      4  C   LIG    1        3.131   3.374   2.111  0.00  0.00    -0.310 C 
ATOM      5  S   LIG    1        2.343   4.331   3.456  0.00  0.00    +2.390 S 
ATOM      6  O   LIG    1        2.052   5.642   2.992  0.00  0.00    -0.930 OA
ATOM      7  O   LIG    1        3.081   4.152   4.657  0.00  0.00    -0.930 OA
ATOM      8  C   LIG    1        0.793   3.356   3.546  0.00  0.00    -0.310 C 
ENDBRANCH   1   2
BRANCH   1   9
ATOM      9  S   LIG    1       -0.164  -0.332   3.035  0.00  0.00    +2.700 S 
ATOM     10  O   LIG    1       -1.530  -0.656   2.813  0.00  0.00    -0.910 OA
ATOM     11  O   LIG    1        0.459  -0.425   4.309  0.00  0.00    -0.950 OA
BRANCH   9  16
ATOM     12  C   LIG    1        2.587  -2.874   1.571  0.00  0.00    +0.080 A 
ATOM     13  C   LIG    1        2.245  -2.953   0.229  0.00  0.00    +0.030 A 
ATOM     14  C   LIG    1        1.170  -2.232  -0.253  0.00  0.00    -0.050 A 
ATOM     15  C   LIG    1        0.429  -1.433   0.605  0.00  0.00    +0.190 A 
ATOM     16  C   LIG    1        0.774  -1.350   1.946  0.00  0.00    -0.680 A 
ATOM     17  C   LIG    1        1.849  -2.071   2.428  0.00  0.00    +0.140 A 
BRANCH  12  19
ATOM     18  C   LIG    1        4.360  -4.389   1.107  0.00  0.00    +0.250 C 
ATOM     19  O   LIG    1        3.645  -3.583   2.046  0.00  0.00    -0.310 OA
ENDBRANCH  12  19
BRANCH  15  20
ATOM     20  O   LIG    1       -0.633  -0.728   0.131  0.00  0.00    -0.310 OA
ATOM     21  C   LIG    1       -0.931  -0.861  -1.260  0.00  0.00    +0.250 C 
ENDBRANCH  15  20
ENDBRANCH   9  16
ENDBRANCH   1   9
BRANCH   1  22
ATOM     22  C   LIG    1       -0.979   1.861   1.679  0.00  0.00    +0.320 C 
BRANCH  22  23
ATOM     23  C   LIG    1       -2.029   2.551   2.553  0.00  0.00    +0.130 C 
ATOM     24  C   LIG    1       -3.102   3.235   1.669  0.00  0.00    +0.020 C 
ATOM     25  C   LIG    1       -4.309   3.271   2.646  0.00  0.00    +0.000 C 
ATOM     26  C   LIG    1       -4.121   1.964   3.447  0.00  0.00    +0.190 C 
ATOM     27  O   LIG    1       -2.747   1.579   3.329  0.00  0.00    -0.360 OA
ENDBRANCH  22  23
ENDBRANCH   1  22
TORSDOF 7
