REMARK  Name = ZINCb80000001ycS.0
REMARK                            x       y       z     vdW  Elec       q    Type
REMARK                         _______ _______ _______ _____ _____    ______ ____
ROOT
ATOM      1  C   LIG    1        1.666  -1.658   0.950  0.00  0.00    +0.290 C 
ENDROOT
BRANCH   1   2
ATOM      2  C   LIG    1        1.480  -0.451   0.029  0.00  0.00    +0.070 C 
ATOM      3  C   LIG    1        2.192   0.804   0.604  0.00  0.00    +0.030 C 
ATOM      4  C   LIG    1        1.326   1.937  -0.000  0.00  0.00    +0.220 C 
ATOM      5  O   LIG    1       -0.017   1.428   0.010  0.00  0.00    -0.370 OA
ATOM      6  F   LIG    1        1.938  -0.736  -1.261  0.00  0.00    -0.190 F 
ATOM      7  C   LIG    1        0.002  -0.004   0.002  0.00  0.00    +0.200 C 
ENDBRANCH   1   2
BRANCH   1  10
ATOM      8  C   LIG    1        0.280  -5.191   0.447  0.00  0.00    +0.110 C 
ATOM      9  C   LIG    1        0.997  -4.000   1.029  0.00  0.00    +0.510 C 
ATOM     10  N   LIG    1        0.970  -2.816   0.385  0.00  0.00    -0.730 N 
ATOM     11  H   LIG    1        0.489  -2.731  -0.454  0.00  0.00    +0.400 HD
ATOM     12  O   LIG    1        1.598  -4.106   2.077  0.00  0.00    -0.540 OA
ENDBRANCH   1  10
TORSDOF 2
