REMARK  Name = ZINCbw0000000Hct.0
REMARK                            x       y       z     vdW  Elec       q    Type
REMARK                         _______ _______ _______ _____ _____    ______ ____
ROOT
ATOM      1  C   LIG    1       -0.093  -0.675  -2.275  0.00  0.00    +0.340 A 
ATOM      2  C   LIG    1        0.500  -1.117  -3.450  0.00  0.00    -0.040 A 
ATOM      3  C   LIG    1       -0.291  -1.332  -4.565  0.00  0.00    +0.140 A 
ATOM      4  C   LIG    1       -1.654  -1.085  -4.468  0.00  0.00    -0.190 A 
ATOM      5  C   LIG    1       -2.176  -0.641  -3.268  0.00  0.00    +0.350 A 
ATOM      6 BR   LIG    1       -2.783  -1.354  -5.960  0.00  0.00    -0.030 Br
ATOM      7  N   LIG    1       -1.396  -0.450  -2.221  0.00  0.00    -0.530 NA
ENDROOT
BRANCH   1   8
ATOM      8  O   LIG    1        0.671  -0.465  -1.174  0.00  0.00    -0.300 OA
BRANCH   8  10
ATOM      9  C   LIG    1       -0.019   1.526   0.010  0.00  0.00    +0.020 C 
ATOM     10  C   LIG    1        0.002  -0.004   0.002  0.00  0.00    +0.170 C 
ATOM     11  C   LIG    1        0.742  -0.511   1.242  0.00  0.00    +0.060 C 
ENDBRANCH   8  10
ENDBRANCH   1   8
TORSDOF 2
