REMARK  Name = ZINCpe0000150ctm.0
REMARK                            x       y       z     vdW  Elec       q    Type
REMARK                         _______ _______ _______ _____ _____    ______ ____
ROOT
ATOM      1  C   LIG    1       -4.526   0.355  -0.389  0.00  0.00    -0.040 A 
ATOM      2  C   LIG    1       -3.682   1.428  -0.274  0.00  0.00    +0.100 A 
ATOM      3  C   LIG    1       -2.404   0.879  -0.049  0.00  0.00    -0.030 A 
ATOM      4  N   LIG    1       -2.533  -0.434  -0.045  0.00  0.00    -0.210 NA
ATOM      5  N   LIG    1       -3.759  -0.767  -0.236  0.00  0.00    -0.260 N 
ENDROOT
BRANCH   1   9
ATOM      6  C   LIG    1       -8.084  -0.690  -1.187  0.00  0.00    +0.300 C 
ATOM      7  N   LIG    1       -6.662  -0.742  -0.840  0.00  0.00    -0.740 N 
ATOM      8  H   LIG    1       -6.213  -1.598  -0.759  0.00  0.00    +0.390 HD
ATOM      9  C   LIG    1       -5.977   0.400  -0.631  0.00  0.00    +0.590 C 
ATOM     10  O   LIG    1       -6.559   1.469  -0.643  0.00  0.00    -0.510 OA
ENDBRANCH   1   9
BRANCH   3  11
ATOM     11  C   LIG    1       -1.149   1.635   0.142  0.00  0.00    +0.610 C 
ATOM     12  N   LIG    1        0.009   0.977   0.350  0.00  0.00    -0.720 N 
ATOM     13  H   LIG    1        0.018   0.007   0.374  0.00  0.00    +0.410 HD
ATOM     14  C   LIG    1        1.254   1.726   0.533  0.00  0.00    +0.290 C 
ATOM     15  O   LIG    1       -1.161   2.850   0.112  0.00  0.00    -0.520 OA
ENDBRANCH   3  11
BRANCH   5  16
ATOM     16  C   LIG    1       -4.260  -2.143  -0.288  0.00  0.00    +0.440 C 
BRANCH  16  17
ATOM     17  C   LIG    1       -3.140  -3.097   0.037  0.00  0.00    +0.190 A 
ATOM     18  N   LIG    1       -2.884  -3.599   1.214  0.00  0.00    -0.450 NA
ATOM     19  C   LIG    1       -1.817  -4.408   1.131  0.00  0.00    +0.160 A 
ATOM     20  C   LIG    1       -1.391  -4.411  -0.147  0.00  0.00    +0.160 A 
ATOM     21  N   LIG    1       -2.232  -3.585  -0.848  0.00  0.00    -0.400 N 
BRANCH  21  22
ATOM     22  C   LIG    1       -2.163  -3.295  -2.218  0.00  0.00    +0.110 A 
ATOM     23  C   LIG    1       -3.265  -3.522  -3.032  0.00  0.00    +0.010 A 
ATOM     24  C   LIG    1       -3.197  -3.229  -4.380  0.00  0.00    +0.040 A 
ATOM     25  C   LIG    1       -2.030  -2.722  -4.921  0.00  0.00    +0.020 A 
ATOM     26  C   LIG    1       -0.929  -2.501  -4.114  0.00  0.00    +0.040 A 
ATOM     27  C   LIG    1       -0.993  -2.785  -2.764  0.00  0.00    +0.030 A 
ENDBRANCH  21  22
ENDBRANCH  16  17
ENDBRANCH   5  16
TORSDOF 5
