REMARK  Name = ZINCrH000004sHaw.1
REMARK                            x       y       z     vdW  Elec       q    Type
REMARK                         _______ _______ _______ _____ _____    ______ ____
ROOT
ATOM      1  C   LIG    1       -0.352   1.264  -2.679  0.00  0.00    +0.160 C 
ATOM      2  C   LIG    1       -1.246   1.256  -3.922  0.00  0.00    +0.030 C 
ATOM      3  C   LIG    1       -0.366   0.995  -5.150  0.00  0.00    +0.030 C 
ATOM      4  C   LIG    1        0.547   2.204  -5.361  0.00  0.00    +0.260 C 
ATOM      5  N   LIG    1        1.236   2.545  -4.123  0.00  0.00    -0.590 N 
ATOM      6  C   LIG    1        0.837   2.152  -2.913  0.00  0.00    +0.530 C 
ATOM      7  O   LIG    1        1.468   2.532  -1.949  0.00  0.00    -0.530 OA
ENDROOT
BRANCH   1   8
ATOM      8  N   LIG    1       -1.117   1.766  -1.530  0.00  0.00    -0.670 NA
ATOM      9  H   LIG    1       -2.095   1.532  -1.617  0.00  0.00    +0.350 HD
BRANCH   8  10
ATOM     10  C   LIG    1       -0.564   1.259  -0.267  0.00  0.00    +0.260 C 
BRANCH  10  16
ATOM     11  C   LIG    1       -3.357   0.139   0.726  0.00  0.00    +0.150 C 
ATOM     12  C   LIG    1       -2.607   1.300   1.325  0.00  0.00    +0.080 A 
ATOM     13  N   LIG    1       -2.994   2.018   2.348  0.00  0.00    -0.300 NA
ATOM     14  N   LIG    1       -2.023   2.999   2.586  0.00  0.00    -0.370 N 
ATOM     15  C   LIG    1       -1.039   2.841   1.676  0.00  0.00    +0.250 A 
ATOM     16  C   LIG    1       -1.374   1.794   0.886  0.00  0.00    -0.230 A 
BRANCH  14  17
ATOM     17  C   LIG    1       -2.067   4.018   3.638  0.00  0.00    +0.260 C 
ATOM     18  C   LIG    1       -1.437   5.313   3.122  0.00  0.00    +0.050 C 
ATOM     19  C   LIG    1       -1.288   3.524   4.859  0.00  0.00    +0.030 C 
ENDBRANCH  14  17
ENDBRANCH  10  16
ENDBRANCH   8  10
ENDBRANCH   1   8
BRANCH   5  20
ATOM     20  C   LIG    1        2.442   3.372  -4.213  0.00  0.00    +0.290 C 
ATOM     21  C   LIG    1        2.089   4.722  -4.840  0.00  0.00    +0.040 C 
BRANCH  20  22
ATOM     22  C   LIG    1        3.467   2.674  -5.070  0.00  0.00    -0.140 A 
ATOM     23  C   LIG    1        3.689   3.097  -6.366  0.00  0.00    +0.060 A 
ATOM     24  C   LIG    1        4.633   2.461  -7.150  0.00  0.00    +0.000 A 
ATOM     25  C   LIG    1        5.348   1.392  -6.642  0.00  0.00    +0.040 A 
ATOM     26  C   LIG    1        5.123   0.963  -5.347  0.00  0.00    -0.020 A 
ATOM     27  C   LIG    1        4.182   1.603  -4.559  0.00  0.00    +0.120 A 
ATOM     28  F   LIG    1        3.961   1.184  -3.294  0.00  0.00    -0.130 F 
ENDBRANCH  20  22
ENDBRANCH   5  20
TORSDOF 6
