REMARK  Name = ZINCtV000002AEMo.0
REMARK                            x       y       z     vdW  Elec       q    Type
REMARK                         _______ _______ _______ _____ _____    ______ ____
ROOT
ATOM      1  C   LIG    1       -0.135  -5.524  -0.732  0.00  0.00    +0.130 A 
ATOM      2  N   LIG    1       -0.795  -4.571  -1.325  0.00  0.00    -0.450 NA
ATOM      3  C   LIG    1       -1.850  -4.098  -0.702  0.00  0.00    +0.080 A 
ATOM      4  C   LIG    1       -2.133  -4.664   0.476  0.00  0.00    -0.050 A 
ATOM      5  S   LIG    1       -0.923  -5.904   0.797  0.00  0.00    +0.100 S 
ENDROOT
BRANCH   1   9
ATOM      6  C   LIG    1        3.351  -7.423  -2.256  0.00  0.00    +0.120 A 
ATOM      7  C   LIG    1        2.739  -6.412  -2.981  0.00  0.00    -0.040 A 
ATOM      8  C   LIG    1        1.608  -5.793  -2.489  0.00  0.00    +0.080 A 
ATOM      9  C   LIG    1        1.077  -6.186  -1.260  0.00  0.00    -0.030 A 
ATOM     10  C   LIG    1        1.696  -7.200  -0.527  0.00  0.00    -0.010 A 
ATOM     11  C   LIG    1        2.826  -7.819  -1.028  0.00  0.00    +0.100 A 
BRANCH   6  13
ATOM     12  C   LIG    1        4.950  -7.574  -4.010  0.00  0.00    +0.240 C 
ATOM     13  O   LIG    1        4.465  -8.030  -2.745  0.00  0.00    -0.300 OA
ENDBRANCH   6  13
BRANCH  11  14
ATOM     14  O   LIG    1        3.428  -8.812  -0.319  0.00  0.00    -0.300 OA
ATOM     15  C   LIG    1        2.836  -9.166   0.932  0.00  0.00    +0.240 C 
ENDBRANCH  11  14
ENDBRANCH   1   9
BRANCH   3  16
ATOM     16  C   LIG    1       -2.694  -2.992  -1.281  0.00  0.00    +0.180 C 
BRANCH  16  17
ATOM     17  S   LIG    1       -2.056  -1.392  -0.724  0.00  0.00    +0.010 S 
BRANCH  17  18
ATOM     18  C   LIG    1       -3.195  -0.313  -1.526  0.00  0.00    +0.190 A 
ATOM     19  N   LIG    1       -4.194  -0.683  -2.292  0.00  0.00    -0.480 NA
ATOM     20  C   LIG    1       -4.842   0.407  -2.735  0.00  0.00    +0.010 A 
ATOM     21  C   LIG    1       -4.236   1.494  -2.228  0.00  0.00    -0.020 A 
ATOM     22  C   LIG    1       -4.628   2.931  -2.462  0.00  0.00    +0.130 C 
ATOM     23  C   LIG    1       -6.044   0.411  -3.644  0.00  0.00    +0.140 C 
ATOM     24  N   LIG    1       -3.188   1.046  -1.455  0.00  0.00    -0.430 N 
BRANCH  24  25
ATOM     25  C   LIG    1       -2.243   1.875  -0.703  0.00  0.00    +0.240 C 
ATOM     26  C   LIG    1       -0.809   1.622  -1.200  0.00  0.00    +0.020 C 
ATOM     27  C   LIG    1       -0.013   1.086   0.008  0.00  0.00    +0.030 C 
ATOM     28  C   LIG    1       -0.789   1.611   1.242  0.00  0.00    +0.030 C 
ATOM     29  C   LIG    1       -2.268   1.485   0.789  0.00  0.00    +0.030 C 
ENDBRANCH  24  25
ENDBRANCH  17  18
ENDBRANCH  16  17
ENDBRANCH   3  16
TORSDOF 7
