REMARK  Name = ZINCpk00000y6xoN.0
REMARK                            x       y       z     vdW  Elec       q    Type
REMARK                         _______ _______ _______ _____ _____    ______ ____
ROOT
ATOM      1  C   LIG    1        0.093  -5.762   1.360  0.00  0.00    +0.570 C 
ATOM      2  N   LIG    1        0.102  -6.914   0.661  0.00  0.00    -0.700 N 
ATOM      3  H   LIG    1        0.093  -6.894  -0.308  0.00  0.00    +0.410 HD
ATOM      4  O   LIG    1        0.105  -5.788   2.576  0.00  0.00    -0.530 OA
ENDROOT
BRANCH   1  11
ATOM      5  C   LIG    1       -0.018   1.503   0.010  0.00  0.00    +0.240 C 
ATOM      6  C   LIG    1        0.002  -0.004   0.002  0.00  0.00    +0.260 A 
ATOM      7  N   LIG    1       -0.004  -0.741  -1.069  0.00  0.00    -0.490 NA
ATOM      8  C   LIG    1        0.023  -2.049  -0.702  0.00  0.00    +0.050 A 
ATOM      9  C   LIG    1        0.032  -3.251  -1.416  0.00  0.00    +0.070 A 
ATOM     10  C   LIG    1        0.055  -4.440  -0.750  0.00  0.00    +0.060 A 
ATOM     11  C   LIG    1        0.069  -4.468   0.650  0.00  0.00    -0.120 A 
ATOM     12  C   LIG    1        0.060  -3.277   1.375  0.00  0.00    +0.130 A 
ATOM     13  C   LIG    1        0.037  -2.068   0.703  0.00  0.00    -0.010 A 
ATOM     14  O   LIG    1        0.023  -0.776   1.099  0.00  0.00    -0.210 OA
ENDBRANCH   1  11
BRANCH   2  15
ATOM     15  C   LIG    1        0.127  -8.198   1.366  0.00  0.00    +0.240 C 
ATOM     16  C   LIG    1       -1.311  -8.697   1.633  0.00  0.00    +0.210 C 
ATOM     17  O   LIG    1       -1.607  -9.578   0.527  0.00  0.00    -0.360 OA
ATOM     18  C   LIG    1       -0.393 -10.328   0.303  0.00  0.00    +0.210 C 
ATOM     19  C   LIG    1        0.745  -9.296   0.471  0.00  0.00    +0.150 C 
BRANCH  19  20
ATOM     20  O   LIG    1        1.125  -8.754  -0.795  0.00  0.00    -0.290 OA
BRANCH  20  21
ATOM     21  C   LIG    1        2.184  -9.336  -1.424  0.00  0.00    -0.030 A 
ATOM     22  C   LIG    1        2.697  -8.971  -2.625  0.00  0.00    +0.210 A 
ATOM     23  N   LIG    1        3.741  -9.799  -2.893  0.00  0.00    -0.370 N 
ATOM     24  N   LIG    1        3.866 -10.693  -1.822  0.00  0.00    -0.270 NA
ATOM     25  C   LIG    1        4.585  -9.762  -4.090  0.00  0.00    +0.370 C 
ATOM     26  C   LIG    1        2.939 -10.413  -0.942  0.00  0.00    +0.180 A 
ENDBRANCH  20  21
ENDBRANCH  19  20
ENDBRANCH   2  15
TORSDOF 4
