REMARK  Name = ZINCpe00000MJIwG.0
REMARK                            x       y       z     vdW  Elec       q    Type
REMARK                         _______ _______ _______ _____ _____    ______ ____
ROOT
ATOM      1  C   LIG    1       -3.590   2.609   3.171  0.00  0.00    +0.320 C 
ATOM      2  C   LIG    1       -4.098   1.508   4.129  0.00  0.00    -0.010 C 
ATOM      3  C   LIG    1       -4.812   2.345   5.218  0.00  0.00    +0.070 C 
ATOM      4  C   LIG    1       -4.140   3.698   5.147  0.00  0.00    +0.520 C 
ATOM      5  O   LIG    1       -4.207   4.553   6.005  0.00  0.00    -0.530 OA
ATOM      6  N   LIG    1       -3.459   3.817   3.994  0.00  0.00    -0.610 N 
ATOM      7  C   LIG    1       -2.686   5.000   3.609  0.00  0.00    +0.310 C 
ENDROOT
BRANCH   1  15
ATOM      8  C   LIG    1       -0.822   2.633   4.714  0.00  0.00    +0.150 C 
ATOM      9  C   LIG    1       -1.030   2.233   3.276  0.00  0.00    +0.100 A 
ATOM     10  N   LIG    1       -0.098   1.835   2.448  0.00  0.00    -0.290 NA
ATOM     11  N   LIG    1       -0.698   1.558   1.213  0.00  0.00    -0.370 N 
ATOM     12  C   LIG    1       -2.019   1.810   1.328  0.00  0.00    +0.110 A 
ATOM     13  C   LIG    1       -3.051   1.654   0.241  0.00  0.00    +0.140 C 
ATOM     14  C   LIG    1       -0.013   1.086   0.008  0.00  0.00    +0.360 C 
ATOM     15  C   LIG    1       -2.252   2.222   2.596  0.00  0.00    -0.260 A 
ENDBRANCH   1  15
BRANCH   2  16
ATOM     16  C   LIG    1       -5.082   0.576   3.419  0.00  0.00    +0.330 C 
BRANCH  16  17
ATOM     17  N   LIG    1       -5.450  -0.521   4.317  0.00  0.00    -0.570 N 
ATOM     18  C   LIG    1       -6.486  -0.484   5.163  0.00  0.00    +0.700 C 
ATOM     19  N   LIG    1       -6.609  -1.619   5.875  0.00  0.00    -0.720 N 
ATOM     20  H   LIG    1       -7.284  -1.813   6.544  0.00  0.00    +0.440 HD
ATOM     21  C   LIG    1       -5.518  -2.509   5.441  0.00  0.00    +0.120 C 
ATOM     22  C   LIG    1       -6.082  -3.793   4.831  0.00  0.00    +0.090 C 
ATOM     23  C   LIG    1       -4.589  -2.833   6.613  0.00  0.00    +0.090 C 
ATOM     24  O   LIG    1       -7.233   0.468   5.276  0.00  0.00    -0.530 OA
ATOM     25  C   LIG    1       -4.791  -1.694   4.389  0.00  0.00    +0.530 C 
ATOM     26  O   LIG    1       -3.818  -2.028   3.747  0.00  0.00    -0.460 OA
ENDBRANCH  16  17
ENDBRANCH   2  16
TORSDOF 3
