REMARK  Name = ZINCkj00000Aj1s8.0
REMARK                            x       y       z     vdW  Elec       q    Type
REMARK                         _______ _______ _______ _____ _____    ______ ____
ROOT
ATOM      1  C   LIG    1        3.138   1.082  -3.414  0.00  0.00    +0.170 C 
ATOM      2  C   LIG    1        2.888   1.006  -1.888  0.00  0.00    +0.290 C 
ATOM      3  N   LIG    1        3.404   2.293  -1.364  0.00  0.00    -0.620 N 
ATOM      4  C   LIG    1        4.641   2.539  -2.143  0.00  0.00    +0.300 C 
ATOM      5  C   LIG    1        2.872   3.063  -0.395  0.00  0.00    +0.550 C 
ATOM      6  O   LIG    1        3.420   4.096  -0.071  0.00  0.00    -0.500 OA
ATOM      7  C   LIG    1        4.293   2.085  -3.572  0.00  0.00    -0.090 C 
ATOM      8  C   LIG    1        5.498   1.407  -4.217  0.00  0.00    -0.010 C 
ATOM      9  C   LIG    1        6.612   2.440  -4.416  0.00  0.00    +0.230 C 
ATOM     10  O   LIG    1        6.115   3.527  -5.200  0.00  0.00    -0.370 OA
ATOM     11  C   LIG    1        5.028   4.234  -4.599  0.00  0.00    +0.220 C 
ATOM     12  C   LIG    1        3.845   3.280  -4.409  0.00  0.00    +0.040 C 
ENDROOT
BRANCH   5  13
ATOM     13  C   LIG    1        1.595   2.642   0.287  0.00  0.00    -0.020 C 
ATOM     14  C   LIG    1        1.100   3.645   1.342  0.00  0.00    +0.060 C 
ATOM     15  C   LIG    1       -0.321   3.367   0.825  0.00  0.00    +0.190 C 
ATOM     16  F   LIG    1       -1.124   4.511   0.750  0.00  0.00    -0.200 F 
ATOM     17  C   LIG    1        0.328   2.978  -0.516  0.00  0.00    +0.040 C 
ENDBRANCH   5  13
BRANCH   1  19
ATOM     18  C   LIG    1        4.369  -0.921  -2.938  0.00  0.00    +0.320 C 
ATOM     19  N   LIG    1        3.531  -0.236  -3.931  0.00  0.00    -0.380 N 
ATOM     20  C   LIG    1        2.328  -1.037  -4.194  0.00  0.00    +0.330 C 
ATOM     21  H   LIG    1        4.052  -0.120  -4.787  0.00  0.00    +0.430 HD
ENDBRANCH   1  19
TORSDOF 2
