REMARK  Name = ZINCrD00000hQ5zz.0
REMARK                            x       y       z     vdW  Elec       q    Type
REMARK                         _______ _______ _______ _____ _____    ______ ____
ROOT
ATOM      1  C   LIG    1       -2.329   3.637  -0.562  0.00  0.00    +0.530 C 
ATOM      2  N   LIG    1       -2.706   4.915  -0.765  0.00  0.00    -0.720 N 
ATOM      3  H   LIG    1       -2.077   5.553  -1.139  0.00  0.00    +0.400 HD
ATOM      4  O   LIG    1       -3.139   2.821  -0.175  0.00  0.00    -0.500 OA
ENDROOT
BRANCH   1  15
ATOM      5  C   LIG    1       -0.068   5.336   0.244  0.00  0.00    +0.080 C 
ATOM      6  C   LIG    1        0.007   3.808   0.275  0.00  0.00    +0.150 C 
ATOM      7  O   LIG    1        1.349   3.385   0.012  0.00  0.00    -0.300 OA
ATOM      8  C   LIG    1        1.529   2.070  -0.287  0.00  0.00    +0.050 A 
ATOM      9  C   LIG    1        2.799   1.519  -0.200  0.00  0.00    +0.030 A 
ATOM     10  C   LIG    1        2.998   0.186  -0.508  0.00  0.00    +0.020 A 
ATOM     11  C   LIG    1        1.933  -0.601  -0.904  0.00  0.00    +0.020 A 
ATOM     12  C   LIG    1        0.665  -0.059  -0.991  0.00  0.00    +0.030 A 
ATOM     13  C   LIG    1        0.458   1.277  -0.682  0.00  0.00    +0.050 A 
ATOM     14  O   LIG    1       -0.798   1.795  -0.765  0.00  0.00    -0.280 OA
ATOM     15  C   LIG    1       -0.903   3.223  -0.815  0.00  0.00    +0.150 C 
ENDBRANCH   1  15
BRANCH   2  16
ATOM     16  C   LIG    1       -4.065   5.342  -0.422  0.00  0.00    +0.330 C 
ATOM     17  C   LIG    1       -4.083   6.855  -0.170  0.00  0.00    +0.020 C 
ATOM     18  C   LIG    1       -5.532   7.338  -0.067  0.00  0.00    +0.040 C 
ATOM     19  C   LIG    1       -6.196   7.267  -1.448  0.00  0.00    +0.110 C 
ATOM     20  C   LIG    1       -5.945   5.897  -2.026  0.00  0.00    +0.100 A 
ATOM     21  N   LIG    1       -6.580   5.301  -3.048  0.00  0.00    -0.350 N 
ATOM     22  N   LIG    1       -6.009   4.032  -3.228  0.00  0.00    -0.300 NA
ATOM     23  C   LIG    1       -5.059   3.880  -2.338  0.00  0.00    +0.250 A 
ATOM     24  C   LIG    1       -4.997   5.039  -1.569  0.00  0.00    -0.260 A 
BRANCH  21  25
ATOM     25  C   LIG    1       -7.675   5.874  -3.836  0.00  0.00    +0.180 C 
ATOM     26  C   LIG    1       -8.887   6.107  -2.931  0.00  0.00    +0.060 C 
ATOM     27  C   LIG    1       -8.055   4.908  -4.959  0.00  0.00    +0.070 C 
ATOM     28  C   LIG    1       -7.226   7.207  -4.439  0.00  0.00    +0.050 C 
ENDBRANCH  21  25
ENDBRANCH   2  16
TORSDOF 3
