REMARK  Name = ZINCrH000004tHzo.0
REMARK                            x       y       z     vdW  Elec       q    Type
REMARK                         _______ _______ _______ _____ _____    ______ ____
ROOT
ATOM      1  O   LIG    1        1.130   2.868   0.007  0.00  0.00    -0.500 OA
ATOM      2  C   LIG    1        1.147   1.655   0.000  0.00  0.00    +0.520 C 
ATOM      3  N   LIG    1       -0.011   0.966   0.007  0.00  0.00    -0.620 N 
ATOM      4  H   LIG    1        0.002  -0.004   0.002  0.00  0.00    +0.430 HD
ENDROOT
BRANCH   3   5
ATOM      5  C   LIG    1       -1.224   1.644   0.017  0.00  0.00    +0.270 A 
ATOM      6  N   LIG    1       -2.394   1.087   0.019  0.00  0.00    -0.480 NA
ATOM      7  C   LIG    1       -3.446   1.894   0.029  0.00  0.00    +0.120 A 
ATOM      8  C   LIG    1       -3.163   3.209   0.036  0.00  0.00    -0.100 A 
ATOM      9  S   LIG    1       -1.410   3.395   0.035  0.00  0.00    +0.210 S 
BRANCH   7  10
ATOM     10  C   LIG    1       -4.838   1.383   0.034  0.00  0.00    -0.020 A 
ATOM     11  C   LIG    1       -5.910   2.273   0.051  0.00  0.00    +0.040 A 
ATOM     12  C   LIG    1       -7.204   1.791   0.049  0.00  0.00    +0.010 A 
ATOM     13  C   LIG    1       -7.438   0.428   0.043  0.00  0.00    +0.030 A 
ATOM     14  C   LIG    1       -6.378  -0.461   0.031  0.00  0.00    +0.020 A 
ATOM     15  C   LIG    1       -5.079   0.009   0.027  0.00  0.00    -0.010 A 
ATOM     16 CL   LIG    1       -3.750  -1.108   0.013  0.00  0.00    -0.040 Cl
ENDBRANCH   7  10
ENDBRANCH   3   5
BRANCH   2  17
ATOM     17  C   LIG    1        2.462   0.920  -0.017  0.00  0.00    +0.090 C 
BRANCH  17  18
ATOM     18  C   LIG    1        3.611   1.930  -0.022  0.00  0.00    +0.310 C 
BRANCH  18  19
ATOM     19  N   LIG    1        4.890   1.215  -0.038  0.00  0.00    -1.120 NA
ATOM     20  H   LIG    1        4.919   0.269   0.174  0.00  0.00    +0.420 HD
BRANCH  19  21
ATOM     21  S   LIG    1        6.285   2.022  -0.418  0.00  0.00    +2.700 S 
ATOM     22  O   LIG    1        6.014   2.754  -1.605  0.00  0.00    -0.950 OA
ATOM     23  O   LIG    1        7.338   1.073  -0.314  0.00  0.00    -0.950 OA
BRANCH  21  24
ATOM     24  C   LIG    1        6.561   3.213   0.850  0.00  0.00    -0.680 A 
ATOM     25  C   LIG    1        6.039   4.487   0.726  0.00  0.00    +0.120 A 
ATOM     26  C   LIG    1        6.251   5.421   1.723  0.00  0.00    -0.010 A 
ATOM     27  C   LIG    1        6.994   5.083   2.840  0.00  0.00    +0.070 A 
ATOM     28  C   LIG    1        7.519   3.811   2.961  0.00  0.00    -0.010 A 
ATOM     29  C   LIG    1        7.303   2.876   1.966  0.00  0.00    +0.120 A 
ENDBRANCH  21  24
ENDBRANCH  19  21
ENDBRANCH  18  19
ENDBRANCH  17  18
ENDBRANCH   2  17
TORSDOF 7
