REMARK  Name = ZINCqH00000080Oh.0
REMARK                            x       y       z     vdW  Elec       q    Type
REMARK                         _______ _______ _______ _____ _____    ______ ____
ROOT
ATOM      1  C   LIG    1       -1.293  -0.775   0.010  0.00  0.00    +0.250 C 
ENDROOT
BRANCH   1   2
ATOM      2  C   LIG    1        0.002  -0.004   0.002  0.00  0.00    +0.520 C 
ATOM      3  N   LIG    1       -0.016   1.344   0.009  0.00  0.00    -0.720 N 
ATOM      4  H   LIG    1       -0.863   1.817   0.016  0.00  0.00    +0.400 HD
ATOM      5  O   LIG    1        1.060  -0.596  -0.011  0.00  0.00    -0.530 OA
BRANCH   3   6
ATOM      6  C   LIG    1        1.242   2.093   0.001  0.00  0.00    +0.280 C 
ATOM      7  C   LIG    1        1.731   2.254  -1.440  0.00  0.00    +0.040 C 
BRANCH   6   8
ATOM      8  C   LIG    1        1.021   3.453   0.611  0.00  0.00    -0.100 A 
ATOM      9  C   LIG    1       -0.135   4.158   0.329  0.00  0.00    +0.000 A 
ATOM     10  C   LIG    1       -0.340   5.403   0.892  0.00  0.00    +0.020 A 
ATOM     11  C   LIG    1        0.615   5.949   1.730  0.00  0.00    +0.000 A 
ATOM     12  C   LIG    1        1.772   5.247   2.008  0.00  0.00    +0.020 A 
ATOM     13  C   LIG    1        1.976   3.999   1.449  0.00  0.00    +0.020 A 
ENDBRANCH   6   8
ENDBRANCH   3   6
ENDBRANCH   1   2
BRANCH   1  14
ATOM     14  N   LIG    1       -1.005  -2.212  -0.000  0.00  0.00    -0.710 N 
ATOM     15  H   LIG    1       -0.167  -2.536  -0.365  0.00  0.00    +0.410 HD
ATOM     16  C   LIG    1       -1.906  -3.083   0.497  0.00  0.00    +0.570 C 
ATOM     17  O   LIG    1       -2.956  -2.676   0.954  0.00  0.00    -0.530 OA
BRANCH  16  18
ATOM     18  C   LIG    1       -1.616  -4.532   0.486  0.00  0.00    -0.130 A 
ATOM     19  C   LIG    1       -0.413  -5.003  -0.043  0.00  0.00    +0.040 A 
ATOM     20  C   LIG    1       -0.147  -6.357  -0.046  0.00  0.00    +0.010 A 
ATOM     21  C   LIG    1       -1.074  -7.248   0.465  0.00  0.00    +0.040 A 
ATOM     22  C   LIG    1       -2.270  -6.788   0.987  0.00  0.00    -0.090 A 
ATOM     23  C   LIG    1       -3.273  -7.766   1.542  0.00  0.00    +0.090 C 
ATOM     24  C   LIG    1       -2.547  -5.437   1.001  0.00  0.00    +0.080 A 
ENDBRANCH  16  18
ENDBRANCH   1  14
BRANCH   1  25
ATOM     25  C   LIG    1       -2.112  -0.410  -1.229  0.00  0.00    +0.060 C 
BRANCH  25  26
ATOM     26  C   LIG    1       -3.477  -1.096  -1.159  0.00  0.00    +0.100 C 
BRANCH  26  28
ATOM     27  C   LIG    1       -6.006  -1.556  -2.366  0.00  0.00    +0.140 C 
ATOM     28  S   LIG    1       -4.449  -0.663  -2.628  0.00  0.00    -0.270 S 
ENDBRANCH  26  28
ENDBRANCH  25  26
ENDBRANCH   1  25
TORSDOF 8
