REMARK  Name = ZINCqH0000050C64.0
REMARK                            x       y       z     vdW  Elec       q    Type
REMARK                         _______ _______ _______ _____ _____    ______ ____
ROOT
ATOM      1  S   LIG    1       -2.689   0.750   0.019  0.00  0.00    +0.090 S 
ENDROOT
BRANCH   1   6
ATOM      2  N   LIG    1       -5.387   1.501   0.036  0.00  0.00    -0.410 N 
ATOM      3  C   LIG    1       -6.081   2.682   0.046  0.00  0.00    +0.390 A 
ATOM      4  N   LIG    1       -5.205   3.647   0.047  0.00  0.00    -0.280 NA
ATOM      5  N   LIG    1       -4.014   3.163   0.044  0.00  0.00    -0.290 NA
ATOM      6  C   LIG    1       -4.064   1.851   0.031  0.00  0.00    +0.150 A 
BRANCH   2  13
ATOM      7  C   LIG    1       -4.909  -0.160   2.297  0.00  0.00    +0.110 C 
ATOM      8  C   LIG    1       -5.711  -0.638   1.114  0.00  0.00    -0.060 A 
ATOM      9  C   LIG    1       -6.238  -1.915   1.106  0.00  0.00    +0.030 A 
ATOM     10  C   LIG    1       -6.974  -2.354   0.021  0.00  0.00    +0.040 A 
ATOM     11  C   LIG    1       -7.184  -1.517  -1.059  0.00  0.00    +0.030 A 
ATOM     12  C   LIG    1       -6.665  -0.237  -1.054  0.00  0.00    +0.040 A 
ATOM     13  C   LIG    1       -5.921   0.204   0.031  0.00  0.00    +0.090 A 
ENDBRANCH   2  13
ENDBRANCH   1   6
BRANCH   1  14
ATOM     14  C   LIG    1       -1.330   1.944   0.019  0.00  0.00    +0.110 C 
BRANCH  14  15
ATOM     15  C   LIG    1       -0.014   1.209   0.009  0.00  0.00    +0.540 C 
ATOM     16  N   LIG    1        1.143   1.898   0.001  0.00  0.00    -0.600 N 
ATOM     17  C   LIG    1        1.141   3.368   0.003  0.00  0.00    +0.270 C 
ATOM     18  C   LIG    1        2.009   3.856   1.172  0.00  0.00    +0.020 C 
ATOM     19  C   LIG    1        3.403   3.234   1.061  0.00  0.00    -0.010 C 
ATOM     20  C   LIG    1        4.274   3.740   2.214  0.00  0.00    +0.010 C 
ATOM     21  C   LIG    1        3.628   3.352   3.545  0.00  0.00    +0.000 C 
ATOM     22  C   LIG    1        3.505   1.829   3.630  0.00  0.00    +0.000 C 
ATOM     23  C   LIG    1        2.641   1.321   2.474  0.00  0.00    +0.010 C 
ATOM     24  C   LIG    1        3.291   1.710   1.145  0.00  0.00    -0.020 C 
ATOM     25  C   LIG    1        2.434   1.196  -0.015  0.00  0.00    +0.290 C 
ATOM     26  O   LIG    1        0.002  -0.004   0.002  0.00  0.00    -0.520 OA
ENDBRANCH  14  15
ENDBRANCH   1  14
TORSDOF 4
