REMARK  Name = ZINCtV00000L6jLy.0
REMARK                            x       y       z     vdW  Elec       q    Type
REMARK                         _______ _______ _______ _____ _____    ______ ____
ROOT
ATOM      1  C   LIG    1        3.631   2.948  -0.098  0.00  0.00    +0.240 C 
ENDROOT
BRANCH   1   2
ATOM      2  C   LIG    1        4.507   3.742  -1.032  0.00  0.00    +0.520 C 
ATOM      3  N   LIG    1        5.600   3.174  -1.578  0.00  0.00    -0.720 N 
ATOM      4  H   LIG    1        5.786   2.234  -1.424  0.00  0.00    +0.400 HD
ATOM      5  O   LIG    1        4.228   4.894  -1.293  0.00  0.00    -0.520 OA
BRANCH   3   6
ATOM      6  C   LIG    1        6.508   3.974  -2.403  0.00  0.00    +0.300 C 
BRANCH   6   7
ATOM      7  C   LIG    1        7.659   3.095  -2.895  0.00  0.00    +0.060 C 
BRANCH   7   8
ATOM      8  S   LIG    1        8.784   4.087  -3.917  0.00  0.00    -0.070 S 
BRANCH   8   9
ATOM      9  C   LIG    1       10.023   2.925  -4.384  0.00  0.00    -0.070 A 
ATOM     10  C   LIG    1        9.947   1.610  -3.943  0.00  0.00    +0.000 A 
ATOM     11  C   LIG    1       10.916   0.700  -4.316  0.00  0.00    +0.070 A 
ATOM     12  C   LIG    1       11.970   1.101  -5.118  0.00  0.00    -0.100 A 
ATOM     13  C   LIG    1       12.052   2.411  -5.555  0.00  0.00    +0.070 A 
ATOM     14 BR   LIG    1       13.301  -0.146  -5.620  0.00  0.00    -0.040 Br
ATOM     15  C   LIG    1       11.082   3.324  -5.190  0.00  0.00    +0.050 A 
ENDBRANCH   8   9
ENDBRANCH   7   8
ENDBRANCH   6   7
ENDBRANCH   3   6
ENDBRANCH   1   2
BRANCH   1  17
ATOM     16  C   LIG    1        5.575   2.373   1.362  0.00  0.00    +0.030 C 
ATOM     17  C   LIG    1        4.194   3.029   1.322  0.00  0.00    -0.020 C 
ATOM     18  C   LIG    1        4.314   4.496   1.740  0.00  0.00    +0.030 C 
ENDBRANCH   1  17
BRANCH   1  19
ATOM     19  N   LIG    1        2.273   3.497  -0.118  0.00  0.00    -0.720 N 
ATOM     20  H   LIG    1        2.128   4.424  -0.362  0.00  0.00    +0.420 HD
BRANCH  19  21
ATOM     21  C   LIG    1        1.186   2.684   0.216  0.00  0.00    +0.260 A 
ATOM     22  C   LIG    1        1.391   1.356   0.566  0.00  0.00    -0.050 A 
ATOM     23  C   LIG    1        0.315   0.555   0.895  0.00  0.00    +0.130 A 
ATOM     24  C   LIG    1       -0.967   1.073   0.872  0.00  0.00    -0.230 A 
ATOM     25  C   LIG    1       -1.176   2.396   0.529  0.00  0.00    +0.140 A 
ATOM     26  C   LIG    1       -0.104   3.203   0.198  0.00  0.00    -0.120 A 
ATOM     27 CL   LIG    1       -0.367   4.862  -0.239  0.00  0.00    -0.050 Cl
BRANCH  24  28
ATOM     28  C   LIG    1       -2.139   0.194   1.227  0.00  0.00    +0.520 C 
ATOM     29  F   LIG    1       -1.850  -1.130   0.881  0.00  0.00    -0.180 F 
ATOM     30  F   LIG    1       -3.272   0.623   0.527  0.00  0.00    -0.180 F 
ATOM     31  F   LIG    1       -2.382   0.274   2.602  0.00  0.00    -0.180 F 
ENDBRANCH  24  28
ENDBRANCH  19  21
ENDBRANCH   1  19
TORSDOF 9
