REMARK  Name = ZINCpk00000y6yGV.0
REMARK                            x       y       z     vdW  Elec       q    Type
REMARK                         _______ _______ _______ _____ _____    ______ ____
ROOT
ATOM      1  C   LIG    1       -1.206  -0.904   0.009  0.00  0.00    +0.180 C 
ATOM      2  C   LIG    1        0.002  -0.004   0.002  0.00  0.00    +0.070 A 
ATOM      3  C   LIG    1        1.271  -0.402  -0.012  0.00  0.00    +0.020 A 
ATOM      4  N   LIG    1        2.079   0.722  -0.014  0.00  0.00    -0.350 N 
ATOM      5  C   LIG    1        1.281   1.815  -0.000  0.00  0.00    +0.440 A 
ATOM      6  N   LIG    1        2.034   2.906  -0.002  0.00  0.00    -0.510 NA
ATOM      7  C   LIG    1        3.321   2.569  -0.017  0.00  0.00    +0.370 A 
ATOM      8  N   LIG    1        4.502   3.296  -0.024  0.00  0.00    -0.510 N 
ATOM      9  C   LIG    1        4.461   4.760  -0.016  0.00  0.00    +0.350 C 
ATOM     10  C   LIG    1        5.686   2.655  -0.040  0.00  0.00    +0.710 A 
ATOM     11  O   LIG    1        6.713   3.307  -0.047  0.00  0.00    -0.530 OA
ATOM     12  N   LIG    1        5.762   1.313  -0.048  0.00  0.00    -0.550 N 
ATOM     13  C   LIG    1        4.648   0.553  -0.040  0.00  0.00    +0.590 A 
ATOM     14  O   LIG    1        4.732  -0.663  -0.047  0.00  0.00    -0.500 OA
ATOM     15  C   LIG    1        3.389   1.176  -0.024  0.00  0.00    -0.180 A 
ATOM     16  C   LIG    1        1.748  -1.831  -0.025  0.00  0.00    +0.170 C 
ATOM     17  N   LIG    1       -0.017   1.378   0.010  0.00  0.00    -0.560 N 
ATOM     18  H   LIG    1       -0.808   1.938   0.017  0.00  0.00    +0.440 HD
ENDROOT
BRANCH  12  19
ATOM     19  C   LIG    1        7.076   0.666  -0.065  0.00  0.00    +0.390 C 
BRANCH  19  20
ATOM     20  C   LIG    1        7.541   0.436   1.350  0.00  0.00    -0.160 A 
ATOM     21  C   LIG    1        8.455   1.298   1.926  0.00  0.00    +0.080 A 
ATOM     22  C   LIG    1        8.877   1.091   3.226  0.00  0.00    -0.010 A 
ATOM     23  C   LIG    1        8.396   0.015   3.947  0.00  0.00    +0.050 A 
ATOM     24  C   LIG    1        7.486  -0.852   3.371  0.00  0.00    -0.030 A 
ATOM     25  C   LIG    1        7.058  -0.642   2.071  0.00  0.00    +0.120 A 
ATOM     26  F   LIG    1        6.168  -1.489   1.508  0.00  0.00    -0.110 F 
ENDBRANCH  19  20
ENDBRANCH  12  19
TORSDOF 2
