REMARK  Name = ZINCpk00000y6ygV.1
REMARK                            x       y       z     vdW  Elec       q    Type
REMARK                         _______ _______ _______ _____ _____    ______ ____
ROOT
ATOM      1  C   LIG    1       -3.103   3.958   0.618  0.00  0.00    +0.680 C 
ATOM      2  N   LIG    1       -4.427   4.022   0.370  0.00  0.00    -0.600 N 
ATOM      3  C   LIG    1       -5.119   5.312   0.419  0.00  0.00    +0.290 C 
ATOM      4  O   LIG    1       -2.527   2.885   0.577  0.00  0.00    -0.640 OA
ENDROOT
BRANCH   1  11
ATOM      5  C   LIG    1        2.278   6.381   1.986  0.00  0.00    +0.190 C 
ATOM      6  C   LIG    1        1.036   5.600   1.642  0.00  0.00    +0.250 A 
ATOM      7  C   LIG    1       -0.227   6.133   1.476  0.00  0.00    -0.200 A 
ATOM      8  C   LIG    1       -1.119   5.011   1.151  0.00  0.00    +0.520 A 
ATOM      9  N   LIG    1       -0.334   3.886   1.143  0.00  0.00    -0.490 N 
ATOM     10  H   LIG    1       -0.635   2.983   0.960  0.00  0.00    +0.460 HD
ATOM     11  N   LIG    1       -2.421   5.074   0.908  0.00  0.00    -0.640 NA
ATOM     12  N   LIG    1        0.977   4.268   1.445  0.00  0.00    -0.370 N 
ATOM     13  C   LIG    1        2.119   3.355   1.534  0.00  0.00    +0.380 C 
BRANCH   7  14
ATOM     14  C   LIG    1       -0.596   7.511   1.598  0.00  0.00    +0.300 C 
ATOM     15  N   LIG    1       -0.889   8.605   1.694  0.00  0.00    -0.420 NA
ENDBRANCH   7  14
ENDBRANCH   1  11
BRANCH   2  16
ATOM     16  C   LIG    1       -5.173   2.802   0.053  0.00  0.00    +0.290 C 
BRANCH  16  17
ATOM     17  C   LIG    1       -5.704   2.179   1.345  0.00  0.00    -0.070 C 
ATOM     18  C   LIG    1       -6.629   3.174   2.049  0.00  0.00    +0.040 C 
ATOM     19  C   LIG    1       -4.531   1.835   2.266  0.00  0.00    +0.030 C 
BRANCH  17  20
ATOM     20  C   LIG    1       -6.483   0.904   1.014  0.00  0.00    +0.190 C 
BRANCH  20  21
ATOM     21  N   LIG    1       -7.144   0.405   2.228  0.00  0.00    -0.530 NA
ATOM     22  C   LIG    1       -6.299  -0.580   2.920  0.00  0.00    +0.140 C 
ATOM     23  C   LIG    1       -6.998  -1.028   4.206  0.00  0.00    +0.220 C 
ATOM     24  O   LIG    1       -8.289  -1.553   3.884  0.00  0.00    -0.390 OA
ATOM     25  C   LIG    1       -9.137  -0.620   3.209  0.00  0.00    +0.220 C 
ATOM     26  C   LIG    1       -8.460  -0.168   1.913  0.00  0.00    +0.150 C 
ENDBRANCH  20  21
ENDBRANCH  17  20
ENDBRANCH  16  17
ENDBRANCH   2  16
TORSDOF 6
