REMARK  Name = ZINCrH000004pCDQ.0
REMARK                            x       y       z     vdW  Elec       q    Type
REMARK                         _______ _______ _______ _____ _____    ______ ____
ROOT
ATOM      1  C   LIG    1       -4.664   0.302   0.116  0.00  0.00    +0.210 A 
ATOM      2  N   LIG    1       -3.700   1.172   0.283  0.00  0.00    -0.460 NA
ATOM      3  C   LIG    1       -2.554   0.454   0.265  0.00  0.00    +0.200 A 
ATOM      4  N   LIG    1       -2.888  -0.800   0.098  0.00  0.00    -0.360 NA
ATOM      5  O   LIG    1       -4.093  -0.902   0.011  0.00  0.00    +0.100 OA
ENDROOT
BRANCH   3   6
ATOM      6  C   LIG    1       -1.177   0.987   0.413  0.00  0.00    -0.010 A 
ATOM      7  C   LIG    1       -0.972   2.353   0.590  0.00  0.00    +0.130 A 
ATOM      8  C   LIG    1        0.312   2.844   0.722  0.00  0.00    +0.040 A 
ATOM      9  C   LIG    1        1.392   1.982   0.683  0.00  0.00    +0.120 A 
ATOM     10  C   LIG    1        1.194   0.624   0.512  0.00  0.00    -0.040 A 
ATOM     11  C   LIG    1       -0.085   0.122   0.380  0.00  0.00    +0.140 A 
BRANCH  10  12
ATOM     12  N   LIG    1        2.355  -0.293   0.471  0.00  0.00    +0.030 N 
ATOM     13  O   LIG    1        3.484   0.148   0.588  0.00  0.00    -0.150 OA
ATOM     14  O   LIG    1        2.182  -1.489   0.320  0.00  0.00    -0.150 OA
ENDBRANCH  10  12
ENDBRANCH   3   6
BRANCH   1  15
ATOM     15  C   LIG    1       -6.140   0.601   0.059  0.00  0.00    +0.350 C 
BRANCH  15  16
ATOM     16  N   LIG    1       -6.564   0.707  -1.344  0.00  0.00    -0.490 NA
BRANCH  16  17
ATOM     17  C   LIG    1       -6.070   1.950  -1.950  0.00  0.00    +0.090 C 
ATOM     18  C   LIG    1       -5.497   1.866  -3.367  0.00  0.00    +0.060 C 
ATOM     19  C   LIG    1       -4.561   2.076  -2.174  0.00  0.00    +0.010 C 
ENDBRANCH  16  17
BRANCH  16  21
ATOM     20  C   LIG    1       -8.491  -0.740  -0.908  0.00  0.00    +0.060 C 
ATOM     21  C   LIG    1       -8.025   0.609  -1.461  0.00  0.00    +0.200 C 
BRANCH  21  22
ATOM     22  C   LIG    1       -8.422   0.721  -2.910  0.00  0.00    +0.130 A 
ATOM     23  C   LIG    1       -9.688   1.165  -3.239  0.00  0.00    -0.040 A 
ATOM     24  C   LIG    1      -10.042   1.269  -4.576  0.00  0.00    +0.050 A 
ATOM     25  C   LIG    1       -9.107   0.913  -5.535  0.00  0.00    -0.040 A 
ATOM     26  C   LIG    1       -7.861   0.473  -5.130  0.00  0.00    +0.250 A 
ATOM     27  N   LIG    1       -7.558   0.391  -3.850  0.00  0.00    -0.440 NA
ENDBRANCH  21  22
ENDBRANCH  16  21
ENDBRANCH  15  16
ENDBRANCH   1  15
TORSDOF 7
