REMARK  Name = ZINCvU00000008JB.0
REMARK                            x       y       z     vdW  Elec       q    Type
REMARK                         _______ _______ _______ _____ _____    ______ ____
ROOT
ATOM      1  C   LIG    1        4.062   1.516   2.164  0.00  0.00    -0.690 A 
ATOM      2  C   LIG    1        4.773   0.382   2.515  0.00  0.00    +0.180 A 
ATOM      3  C   LIG    1        4.936   0.045   3.847  0.00  0.00    +0.020 A 
ATOM      4  C   LIG    1        4.389   0.840   4.835  0.00  0.00    +0.070 A 
ATOM      5  C   LIG    1        3.669   1.986   4.486  0.00  0.00    -0.150 A 
ATOM      6 CL   LIG    1        4.594   0.417   6.506  0.00  0.00    -0.010 Cl
ATOM      7  C   LIG    1        3.514   2.322   3.140  0.00  0.00    +0.180 A 
ENDROOT
BRANCH   5   8
ATOM      8  C   LIG    1        3.081   2.842   5.537  0.00  0.00    +0.560 C 
ATOM      9  N   LIG    1        2.387   3.946   5.196  0.00  0.00    -0.660 N 
ATOM     10  H   LIG    1        2.212   4.140   4.262  0.00  0.00    +0.420 HD
ATOM     11  O   LIG    1        3.221   2.549   6.708  0.00  0.00    -0.490 OA
BRANCH   9  12
ATOM     12  C   LIG    1        1.923   4.808   6.184  0.00  0.00    +0.210 A 
ATOM     13  C   LIG    1        2.586   4.896   7.401  0.00  0.00    +0.000 A 
ATOM     14  C   LIG    1        2.124   5.752   8.380  0.00  0.00    +0.070 A 
ATOM     15  C   LIG    1        0.998   6.529   8.160  0.00  0.00    -0.020 A 
ATOM     16  C   LIG    1        0.326   6.457   6.960  0.00  0.00    +0.090 A 
ATOM     17  C   LIG    1        0.784   5.599   5.954  0.00  0.00    -0.210 A 
BRANCH  17  18
ATOM     18  C   LIG    1        0.077   5.521   4.671  0.00  0.00    +0.400 C 
ATOM     19  O   LIG    1        0.416   4.704   3.840  0.00  0.00    -0.470 OA
ATOM     20  C   LIG    1       -1.069   6.456   4.384  0.00  0.00    +0.090 C 
ENDBRANCH  17  18
ENDBRANCH   9  12
ENDBRANCH   5   8
BRANCH   1  21
ATOM     21  S   LIG    1        3.862   1.935   0.464  0.00  0.00    +2.680 S 
ATOM     22  O   LIG    1        3.616   3.334   0.422  0.00  0.00    -0.940 OA
ATOM     23  O   LIG    1        4.934   1.313  -0.232  0.00  0.00    -0.940 OA
BRANCH  21  24
ATOM     24  N   LIG    1        2.475   1.200  -0.062  0.00  0.00    -0.940 N 
BRANCH  24  25
ATOM     25  C   LIG    1        1.273   1.911  -0.084  0.00  0.00    +0.130 A 
ATOM     26  C   LIG    1        1.165   3.074  -0.835  0.00  0.00    +0.030 A 
ATOM     27  C   LIG    1       -0.023   3.778  -0.850  0.00  0.00    +0.030 A 
ATOM     28  C   LIG    1       -1.109   3.319  -0.128  0.00  0.00    +0.020 A 
ATOM     29  C   LIG    1       -1.006   2.161   0.622  0.00  0.00    +0.020 A 
ATOM     30  C   LIG    1        0.181   1.456   0.645  0.00  0.00    +0.000 A 
ENDBRANCH  24  25
BRANCH  24  32
ATOM     31  C   LIG    1        2.676  -0.245  -2.025  0.00  0.00    +0.020 C 
ATOM     32  C   LIG    1        2.508  -0.196  -0.505  0.00  0.00    +0.290 C 
ENDBRANCH  24  32
ENDBRANCH  21  24
ENDBRANCH   1  21
TORSDOF 7
