REMARK  Name = ZINCpe000000UPoj.0
REMARK                            x       y       z     vdW  Elec       q    Type
REMARK                         _______ _______ _______ _____ _____    ______ ____
ROOT
ATOM      1  C   LIG    1       -1.386   1.943   0.033  0.00  0.00    +0.250 C 
ENDROOT
BRANCH   1   2
ATOM      2  C   LIG    1       -0.050   1.250   0.102  0.00  0.00    +0.520 C 
ATOM      3  N   LIG    1        0.076   0.096   0.787  0.00  0.00    -0.620 N 
ATOM      4  C   LIG    1       -0.972  -0.535   1.603  0.00  0.00    +0.240 C 
ATOM      5  C   LIG    1       -0.368  -1.818   2.212  0.00  0.00    +0.030 C 
ATOM      6  C   LIG    1        1.157  -1.536   2.169  0.00  0.00    +0.040 C 
ATOM      7  C   LIG    1        1.289  -0.740   0.847  0.00  0.00    +0.250 C 
ATOM      8  O   LIG    1        0.911   1.727  -0.463  0.00  0.00    -0.530 OA
ENDBRANCH   1   2
BRANCH   1  10
ATOM      9  C   LIG    1       -0.959   4.190   0.874  0.00  0.00    +0.530 C 
ATOM     10  N   LIG    1       -1.181   3.378  -0.179  0.00  0.00    -0.700 N 
ATOM     11  H   LIG    1       -1.205   3.744  -1.077  0.00  0.00    +0.410 HD
ATOM     12  O   LIG    1       -0.929   3.733   1.997  0.00  0.00    -0.530 OA
BRANCH   9  16
ATOM     13  C   LIG    1        1.767   6.646   3.331  0.00  0.00    +0.290 C 
ATOM     14  N   LIG    1        1.028   6.396   2.091  0.00  0.00    -0.620 N 
ATOM     15  C   LIG    1       -0.436   6.383   1.988  0.00  0.00    +0.300 C 
ATOM     16  C   LIG    1       -0.748   5.666   0.655  0.00  0.00    +0.000 C 
ATOM     17  C   LIG    1        0.544   5.927  -0.153  0.00  0.00    +0.080 C 
ATOM     18  C   LIG    1        1.604   6.148   0.902  0.00  0.00    +0.520 C 
ATOM     19  O   LIG    1        2.800   6.107   0.705  0.00  0.00    -0.530 OA
ENDBRANCH   9  16
ENDBRANCH   1  10
BRANCH   1  20
ATOM     20  C   LIG    1       -2.201   1.367  -1.127  0.00  0.00    +0.100 C 
BRANCH  20  21
ATOM     21  C   LIG    1       -3.584   1.966  -1.115  0.00  0.00    -0.080 A 
ATOM     22  C   LIG    1       -4.598   1.349  -0.408  0.00  0.00    +0.010 A 
ATOM     23  C   LIG    1       -5.865   1.900  -0.393  0.00  0.00    +0.000 A 
ATOM     24  C   LIG    1       -6.121   3.063  -1.095  0.00  0.00    +0.000 A 
ATOM     25  C   LIG    1       -5.108   3.678  -1.807  0.00  0.00    +0.000 A 
ATOM     26  C   LIG    1       -3.839   3.129  -1.817  0.00  0.00    +0.010 A 
ENDBRANCH  20  21
ENDBRANCH   1  20
TORSDOF 5
