REMARK  Name = ZINCpk000000nmjC.0
REMARK                            x       y       z     vdW  Elec       q    Type
REMARK                         _______ _______ _______ _____ _____    ______ ____
ROOT
ATOM      1  N   LIG    1        2.024   3.523   1.365  0.00  0.00    -0.520 NA
ATOM      2  C   LIG    1        2.715   4.822   1.386  0.00  0.00    +0.250 C 
ATOM      3  C   LIG    1        1.886   5.833   0.591  0.00  0.00    +0.230 C 
ATOM      4  N   LIG    1        0.497   5.806   1.041  0.00  0.00    -0.600 N 
ATOM      5  C   LIG    1       -0.021   4.789   1.738  0.00  0.00    +0.490 C 
ATOM      6  O   LIG    1       -1.193   4.834   2.046  0.00  0.00    -0.530 OA
ATOM      7  C   LIG    1        0.788   3.594   2.155  0.00  0.00    +0.270 C 
ENDROOT
BRANCH   1   8
ATOM      8  C   LIG    1        1.744   3.098  -0.013  0.00  0.00    +0.310 C 
BRANCH   8  13
ATOM      9  N   LIG    1        2.015   0.569  -0.208  0.00  0.00    -0.290 N 
ATOM     10  N   LIG    1        1.226  -0.448  -0.127  0.00  0.00    -0.090 NA
ATOM     11  N   LIG    1        0.032  -0.030   0.109  0.00  0.00    -0.080 NA
ATOM     12  N   LIG    1        0.036   1.256   0.183  0.00  0.00    -0.300 NA
ATOM     13  C   LIG    1        1.265   1.669  -0.010  0.00  0.00    +0.190 A 
BRANCH   9  15
ATOM     14  C   LIG    1        3.935  -0.919  -0.495  0.00  0.00    +0.080 C 
ATOM     15  C   LIG    1        3.457   0.534  -0.465  0.00  0.00    +0.160 C 
ATOM     16  C   LIG    1        4.191   1.290   0.645  0.00  0.00    +0.080 C 
ATOM     17  C   LIG    1        3.751   1.196  -1.812  0.00  0.00    +0.060 C 
ENDBRANCH   9  15
ENDBRANCH   8  13
ENDBRANCH   1   8
BRANCH   4  18
ATOM     18  C   LIG    1       -0.366   6.943   0.714  0.00  0.00    +0.340 C 
BRANCH  18  19
ATOM     19  C   LIG    1       -1.043   6.696  -0.610  0.00  0.00    -0.080 A 
ATOM     20  C   LIG    1       -0.444   7.118  -1.781  0.00  0.00    +0.010 A 
ATOM     21  C   LIG    1       -1.061   6.887  -2.997  0.00  0.00    +0.040 A 
ATOM     22  C   LIG    1       -2.283   6.244  -3.041  0.00  0.00    -0.010 A 
ATOM     23  C   LIG    1       -2.887   5.825  -1.867  0.00  0.00    +0.100 A 
ATOM     24  F   LIG    1       -4.082   5.196  -1.909  0.00  0.00    -0.140 F 
ATOM     25  C   LIG    1       -2.266   6.052  -0.651  0.00  0.00    +0.010 A 
ENDBRANCH  18  19
ENDBRANCH   4  18
TORSDOF 5
