REMARK  Name = ZINCqH0000003F0P.0
REMARK                            x       y       z     vdW  Elec       q    Type
REMARK                         _______ _______ _______ _____ _____    ______ ____
ROOT
ATOM      1  C   LIG    1       -0.016   1.338   0.009  0.00  0.00    +0.230 A 
ATOM      2  N   LIG    1        1.240   1.738  -0.000  0.00  0.00    -0.450 NA
ATOM      3  C   LIG    1        1.979   0.609  -0.014  0.00  0.00    +0.220 A 
ATOM      4  N   LIG    1        1.148  -0.402  -0.011  0.00  0.00    -0.350 NA
ATOM      5  O   LIG    1        0.002  -0.004   0.002  0.00  0.00    +0.100 OA
ENDROOT
BRANCH   3   6
ATOM      6  C   LIG    1        3.460   0.528  -0.028  0.00  0.00    +0.060 A 
ATOM      7  C   LIG    1        4.237   1.674  -0.029  0.00  0.00    +0.030 A 
ATOM      8  C   LIG    1        5.631   1.562  -0.042  0.00  0.00    +0.350 A 
ATOM      9  N   LIG    1        6.232   0.392  -0.053  0.00  0.00    -0.520 NA
ATOM     10  C   LIG    1        5.540  -0.753  -0.053  0.00  0.00    +0.170 A 
ATOM     11  C   LIG    1        6.198  -1.994  -0.065  0.00  0.00    +0.040 A 
ATOM     12  C   LIG    1        5.471  -3.146  -0.065  0.00  0.00    +0.040 A 
ATOM     13  C   LIG    1        4.079  -3.115  -0.053  0.00  0.00    +0.010 A 
ATOM     14  C   LIG    1        3.407  -1.929  -0.041  0.00  0.00    +0.050 A 
ATOM     15  C   LIG    1        4.124  -0.726  -0.035  0.00  0.00    -0.110 A 
BRANCH   8  16
ATOM     16  O   LIG    1        6.384   2.690  -0.042  0.00  0.00    -0.300 OA
ATOM     17  C   LIG    1        7.803   2.523  -0.056  0.00  0.00    +0.260 C 
ENDBRANCH   8  16
ENDBRANCH   3   6
BRANCH   1  20
ATOM     18  C   LIG    1       -3.597   2.498   0.034  0.00  0.00    +0.330 A 
ATOM     19  C   LIG    1       -2.500   1.649   0.024  0.00  0.00    +0.010 A 
ATOM     20  C   LIG    1       -1.217   2.203   0.020  0.00  0.00    +0.050 A 
ATOM     21  C   LIG    1       -1.098   3.598   0.032  0.00  0.00    +0.000 A 
ATOM     22  C   LIG    1       -2.241   4.369   0.038  0.00  0.00    +0.320 A 
ATOM     23  N   LIG    1       -3.437   3.811   0.041  0.00  0.00    -0.520 NA
BRANCH  18  24
ATOM     24  O   LIG    1       -4.849   1.975   0.038  0.00  0.00    -0.300 OA
BRANCH  24  26
ATOM     25  C   LIG    1       -7.261   2.131   0.052  0.00  0.00    +0.060 C 
ATOM     26  C   LIG    1       -5.938   2.900   0.049  0.00  0.00    +0.210 C 
ENDBRANCH  24  26
ENDBRANCH  18  24
ENDBRANCH   1  20
TORSDOF 5
