REMARK  Name = ZINCvU0000000HWp.0
REMARK                            x       y       z     vdW  Elec       q    Type
REMARK                         _______ _______ _______ _____ _____    ______ ____
ROOT
ATOM      1  O   LIG    1        3.490   3.371  -0.176  0.00  0.00    -0.490 OA
ATOM      2  C   LIG    1        2.430   3.958  -0.273  0.00  0.00    +0.520 C 
ENDROOT
BRANCH   2   3
ATOM      3  C   LIG    1        1.180   3.198  -0.454  0.00  0.00    -0.160 A 
ATOM      4  C   LIG    1       -0.041   3.869  -0.565  0.00  0.00    +0.130 A 
ATOM      5  C   LIG    1       -1.205   3.152  -0.734  0.00  0.00    -0.030 A 
ATOM      6  C   LIG    1       -1.172   1.769  -0.800  0.00  0.00    +0.100 A 
ATOM      7  C   LIG    1        0.027   1.093  -0.687  0.00  0.00    -0.080 A 
ATOM      8  C   LIG    1        1.209   1.797  -0.516  0.00  0.00    +0.200 A 
BRANCH   8   9
ATOM      9  O   LIG    1        2.388   1.135  -0.410  0.00  0.00    -0.280 OA
BRANCH   9  10
ATOM     10  C   LIG    1        2.339  -0.292  -0.483  0.00  0.00    +0.260 C 
BRANCH  10  11
ATOM     11  C   LIG    1        3.733  -0.850  -0.347  0.00  0.00    -0.090 A 
ATOM     12  C   LIG    1        4.806   0.005  -0.182  0.00  0.00    +0.070 A 
ATOM     13  C   LIG    1        6.085  -0.506  -0.058  0.00  0.00    +0.020 A 
ATOM     14  C   LIG    1        6.290  -1.873  -0.099  0.00  0.00    +0.030 A 
ATOM     15  C   LIG    1        5.217  -2.729  -0.264  0.00  0.00    +0.030 A 
ATOM     16  C   LIG    1        3.937  -2.218  -0.382  0.00  0.00    -0.030 A 
ATOM     17 CL   LIG    1        2.588  -3.292  -0.582  0.00  0.00    -0.070 Cl
ENDBRANCH  10  11
ENDBRANCH   9  10
ENDBRANCH   8   9
ENDBRANCH   2   3
BRANCH   2  18
ATOM     18  O   LIG    1        2.398   5.303  -0.214  0.00  0.00    -0.330 OA
BRANCH  18  19
ATOM     19  C   LIG    1        3.666   5.986  -0.034  0.00  0.00    +0.270 C 
BRANCH  19  20
ATOM     20  C   LIG    1        3.434   7.475   0.009  0.00  0.00    +0.520 C 
ATOM     21  N   LIG    1        4.482   8.317   0.105  0.00  0.00    -0.550 N 
ATOM     22  C   LIG    1        5.858   7.803   0.092  0.00  0.00    +0.270 C 
ATOM     23  C   LIG    1        6.637   8.520   1.203  0.00  0.00    +0.020 C 
ATOM     24  C   LIG    1        6.692  10.014   0.883  0.00  0.00    +0.080 C 
ATOM     25  C   LIG    1        5.311  10.542   0.594  0.00  0.00    -0.110 A 
ATOM     26  C   LIG    1        5.079  11.903   0.704  0.00  0.00    +0.030 A 
ATOM     27  C   LIG    1        3.824  12.420   0.424  0.00  0.00    -0.020 A 
ATOM     28  C   LIG    1        2.793  11.579   0.049  0.00  0.00    +0.030 A 
ATOM     29  C   LIG    1        3.017  10.220  -0.056  0.00  0.00    +0.010 A 
ATOM     30  C   LIG    1        4.277   9.700   0.215  0.00  0.00    +0.150 A 
ATOM     31  O   LIG    1        2.305   7.914  -0.044  0.00  0.00    -0.490 OA
ENDBRANCH  19  20
ENDBRANCH  18  19
ENDBRANCH   2  18
TORSDOF 7
