REMARK  Name = ZINCrH000004lnOX.0
REMARK                            x       y       z     vdW  Elec       q    Type
REMARK                         _______ _______ _______ _____ _____    ______ ____
ROOT
ATOM      1  N   LIG    1        7.945  -2.180  -0.626  0.00  0.00    -0.660 N 
ATOM      2  H   LIG    1        7.529  -3.026  -0.399  0.00  0.00    +0.410 HD
ATOM      3  C   LIG    1        7.293  -1.024  -0.389  0.00  0.00    +0.600 C 
ATOM      4  O   LIG    1        7.853   0.039  -0.578  0.00  0.00    -0.530 OA
ENDROOT
BRANCH   1   8
ATOM      5  C   LIG    1       11.748  -2.118  -2.333  0.00  0.00    +0.120 A 
ATOM      6  C   LIG    1       10.875  -1.061  -2.546  0.00  0.00    -0.060 A 
ATOM      7  C   LIG    1        9.615  -1.081  -1.981  0.00  0.00    +0.070 A 
ATOM      8  C   LIG    1        9.222  -2.159  -1.199  0.00  0.00    +0.110 A 
ATOM      9  C   LIG    1       10.099  -3.214  -0.982  0.00  0.00    -0.080 A 
ATOM     10  C   LIG    1        9.675  -4.382  -0.128  0.00  0.00    +0.110 C 
ATOM     11  C   LIG    1       11.356  -3.196  -1.552  0.00  0.00    +0.000 A 
BRANCH   5  12
ATOM     12  O   LIG    1       12.988  -2.098  -2.890  0.00  0.00    -0.310 OA
BRANCH  12  13
ATOM     13  C   LIG    1       13.326  -0.957  -3.681  0.00  0.00    +0.210 C 
BRANCH  13  14
ATOM     14  C   LIG    1       14.749  -1.112  -4.219  0.00  0.00    +0.190 C 
BRANCH  14  16
ATOM     15  C   LIG    1       16.094  -2.457  -5.678  0.00  0.00    +0.200 C 
ATOM     16  O   LIG    1       14.801  -2.223  -5.116  0.00  0.00    -0.390 OA
ENDBRANCH  14  16
ENDBRANCH  13  14
ENDBRANCH  12  13
ENDBRANCH   5  12
ENDBRANCH   1   8
BRANCH   3  17
ATOM     17  C   LIG    1        5.903  -1.048   0.101  0.00  0.00    -0.300 A 
ATOM     18  C   LIG    1        5.114   0.050   0.381  0.00  0.00    +0.170 A 
ATOM     19  N   LIG    1        3.922  -0.410   0.803  0.00  0.00    -0.310 N 
ATOM     20  N   LIG    1        3.954  -1.809   0.782  0.00  0.00    -0.280 NA
ATOM     21  C   LIG    1        5.514   1.496   0.242  0.00  0.00    +0.170 C 
ATOM     22  C   LIG    1        5.127  -2.199   0.366  0.00  0.00    +0.290 A 
BRANCH  19  23
ATOM     23  C   LIG    1        2.831   0.379   1.193  0.00  0.00    +0.140 A 
ATOM     24  C   LIG    1        1.536  -0.039   0.916  0.00  0.00    +0.040 A 
ATOM     25  C   LIG    1        0.463   0.741   1.301  0.00  0.00    +0.040 A 
ATOM     26  C   LIG    1        0.678   1.937   1.962  0.00  0.00    +0.020 A 
ATOM     27  C   LIG    1        1.966   2.355   2.240  0.00  0.00    +0.040 A 
ATOM     28  C   LIG    1        3.043   1.580   1.857  0.00  0.00    +0.000 A 
ENDBRANCH  19  23
ENDBRANCH   3  17
TORSDOF 7
