REMARK  Name = ZINCvU0000000JWo.0
REMARK                            x       y       z     vdW  Elec       q    Type
REMARK                         _______ _______ _______ _____ _____    ______ ____
ROOT
ATOM      1  C   LIG    1        1.228   1.738   0.123  0.00  0.00    +0.170 A 
ATOM      2  N   LIG    1       -0.005   1.283   0.128  0.00  0.00    -0.280 NA
ATOM      3  N   LIG    1       -0.006   0.009  -0.040  0.00  0.00    -0.260 NA
ATOM      4  C   LIG    1        1.225  -0.430  -0.164  0.00  0.00    +0.230 A 
ATOM      5  N   LIG    1        2.056   0.664  -0.063  0.00  0.00    -0.420 N 
ENDROOT
BRANCH   4   6
ATOM      6  C   LIG    1        1.641  -1.833  -0.371  0.00  0.00    -0.030 A 
ATOM      7  C   LIG    1        2.919  -2.121  -0.854  0.00  0.00    +0.070 A 
ATOM      8  C   LIG    1        3.304  -3.432  -1.040  0.00  0.00    -0.010 A 
ATOM      9  C   LIG    1        2.421  -4.463  -0.760  0.00  0.00    +0.120 A 
ATOM     10  C   LIG    1        1.149  -4.183  -0.286  0.00  0.00    +0.000 A 
ATOM     11  F   LIG    1        2.801  -5.745  -0.950  0.00  0.00    -0.130 F 
ATOM     12  C   LIG    1        0.755  -2.875  -0.091  0.00  0.00    +0.110 A 
ENDBRANCH   4   6
BRANCH   5  13
ATOM     13  C   LIG    1        3.455   0.675  -0.135  0.00  0.00    +0.100 A 
ATOM     14  C   LIG    1        4.208   0.094   0.876  0.00  0.00    +0.030 A 
ATOM     15  C   LIG    1        5.588   0.103   0.801  0.00  0.00    +0.040 A 
ATOM     16  C   LIG    1        6.218   0.698  -0.276  0.00  0.00    +0.040 A 
ATOM     17  C   LIG    1        5.471   1.282  -1.282  0.00  0.00    +0.040 A 
ATOM     18  C   LIG    1        4.092   1.273  -1.214  0.00  0.00    +0.030 A 
ENDBRANCH   5  13
BRANCH   1  19
ATOM     19  S   LIG    1        1.723   3.418   0.318  0.00  0.00    +0.020 S 
BRANCH  19  20
ATOM     20  C   LIG    1        0.103   4.203   0.508  0.00  0.00    +0.170 C 
BRANCH  20  26
ATOM     21  C   LIG    1        0.301   6.527  -0.414  0.00  0.00    +0.180 A 
ATOM     22  C   LIG    1        0.466   7.899  -0.250  0.00  0.00    -0.080 A 
ATOM     23  C   LIG    1        0.611   8.428   1.012  0.00  0.00    +0.120 A 
ATOM     24  C   LIG    1        0.592   7.582   2.128  0.00  0.00    -0.210 A 
ATOM     25  C   LIG    1        0.420   6.203   1.952  0.00  0.00    +0.140 A 
ATOM     26  C   LIG    1        0.282   5.687   0.695  0.00  0.00    -0.130 A 
BRANCH  24  27
ATOM     27  C   LIG    1        0.747   8.139   3.478  0.00  0.00    +0.400 C 
ATOM     28  O   LIG    1        0.729   7.404   4.443  0.00  0.00    -0.460 OA
ATOM     29  C   LIG    1        0.926   9.623   3.665  0.00  0.00    +0.070 C 
ENDBRANCH  24  27
BRANCH  21  31
ATOM     30  C   LIG    1        0.187   6.926  -2.752  0.00  0.00    +0.250 C 
ATOM     31  O   LIG    1        0.158   6.008  -1.659  0.00  0.00    -0.300 OA
ENDBRANCH  21  31
ENDBRANCH  20  26
ENDBRANCH  19  20
ENDBRANCH   1  19
TORSDOF 7
