REMARK  Name = ZINCrD00000F5Lix.0
REMARK                            x       y       z     vdW  Elec       q    Type
REMARK                         _______ _______ _______ _____ _____    ______ ____
ROOT
ATOM      1  N   LIG    1       -1.265   7.381   0.051  0.00  0.00    -0.110 NA
ATOM      2  C   LIG    1       -2.406   8.021  -0.035  0.00  0.00    +0.070 C 
ATOM      3  C   LIG    1       -2.613   9.480  -0.138  0.00  0.00    +0.590 C 
ATOM      4  N   LIG    1       -3.936   9.705  -0.207  0.00  0.00    -0.540 N 
ATOM      5  C   LIG    1       -4.658   8.518  -0.148  0.00  0.00    +0.180 A 
ATOM      6  C   LIG    1       -6.025   8.265  -0.178  0.00  0.00    +0.000 A 
ATOM      7  C   LIG    1       -6.492   6.968  -0.103  0.00  0.00    +0.080 A 
ATOM      8  C   LIG    1       -5.610   5.907   0.003  0.00  0.00    +0.000 A 
ATOM      9  C   LIG    1       -4.249   6.138   0.034  0.00  0.00    +0.060 A 
ATOM     10  O   LIG    1       -1.740  10.327  -0.161  0.00  0.00    -0.460 OA
ATOM     11  C   LIG    1       -3.769   7.440  -0.041  0.00  0.00    -0.160 A 
ENDROOT
BRANCH   1  14
ATOM     12  O   LIG    1        0.949   5.906   0.014  0.00  0.00    -0.480 OA
ATOM     13  C   LIG    1       -0.090   5.320   0.247  0.00  0.00    +0.580 C 
ATOM     14  N   LIG    1       -1.253   5.999   0.282  0.00  0.00    -0.570 N 
ATOM     15  H   LIG    1       -2.083   5.531   0.468  0.00  0.00    +0.390 HD
BRANCH  13  16
ATOM     16  C   LIG    1       -0.077   3.863   0.492  0.00  0.00    -0.140 A 
ATOM     17  C   LIG    1        1.127   3.156   0.456  0.00  0.00    +0.090 A 
ATOM     18  C   LIG    1        1.131   1.796   0.685  0.00  0.00    +0.020 A 
ATOM     19  C   LIG    1       -0.053   1.132   0.949  0.00  0.00    +0.040 A 
ATOM     20  C   LIG    1       -1.251   1.825   0.981  0.00  0.00    +0.010 A 
ATOM     21  C   LIG    1       -1.269   3.187   0.759  0.00  0.00    +0.030 A 
ENDBRANCH  13  16
ENDBRANCH   1  14
BRANCH   4  22
ATOM     22  C   LIG    1       -4.542  11.034  -0.322  0.00  0.00    +0.370 C 
BRANCH  22  23
ATOM     23  C   LIG    1       -4.799  11.590   1.056  0.00  0.00    -0.120 A 
ATOM     24  C   LIG    1       -6.009  11.352   1.682  0.00  0.00    +0.020 A 
ATOM     25  C   LIG    1       -6.243  11.857   2.947  0.00  0.00    +0.000 A 
ATOM     26  C   LIG    1       -5.272  12.609   3.582  0.00  0.00    +0.010 A 
ATOM     27  C   LIG    1       -4.064  12.851   2.953  0.00  0.00    +0.010 A 
ATOM     28  C   LIG    1       -3.828  12.341   1.690  0.00  0.00    +0.040 A 
ENDBRANCH  22  23
ENDBRANCH   4  22
TORSDOF 4
