REMARK  Name = ZINCpe00000gMEaT.1
REMARK                            x       y       z     vdW  Elec       q    Type
REMARK                         _______ _______ _______ _____ _____    ______ ____
ROOT
ATOM      1  N   LIG    1       -2.794   1.127  -5.931  0.00  0.00    -0.520 NA
ATOM      2  C   LIG    1       -1.407   1.515  -5.644  0.00  0.00    +0.180 C 
ATOM      3  C   LIG    1       -1.004   0.993  -4.263  0.00  0.00    +0.060 C 
ATOM      4  C   LIG    1       -1.946   1.578  -3.207  0.00  0.00    -0.010 C 
ATOM      5  C   LIG    1       -3.389   1.200  -3.555  0.00  0.00    +0.050 C 
ATOM      6  C   LIG    1       -3.722   1.716  -4.957  0.00  0.00    +0.170 C 
ENDROOT
BRANCH   4   7
ATOM      7  C   LIG    1       -1.592   1.020  -1.853  0.00  0.00    +0.520 C 
ATOM      8  N   LIG    1       -2.293   1.397  -0.765  0.00  0.00    -0.730 N 
ATOM      9  H   LIG    1       -3.025   2.028  -0.854  0.00  0.00    +0.400 HD
ATOM     10  O   LIG    1       -0.677   0.233  -1.741  0.00  0.00    -0.530 OA
BRANCH   8  11
ATOM     11  C   LIG    1       -1.949   0.856   0.552  0.00  0.00    +0.390 C 
BRANCH  11  12
ATOM     12  C   LIG    1       -2.877   1.432   1.590  0.00  0.00    -0.040 A 
ATOM     13  C   LIG    1       -4.054   0.906   1.973  0.00  0.00    -0.030 A 
ATOM     14  C   LIG    1       -4.586   1.766   2.961  0.00  0.00    -0.070 A 
ATOM     15  C   LIG    1       -3.701   2.766   3.124  0.00  0.00    +0.180 A 
ATOM     16  O   LIG    1       -2.666   2.556   2.295  0.00  0.00    -0.170 OA
ENDBRANCH  11  12
ENDBRANCH   8  11
ENDBRANCH   4   7
BRANCH   1  18
ATOM     17  C   LIG    1       -2.139   0.923  -8.282  0.00  0.00    +0.060 C 
ATOM     18  C   LIG    1       -3.170   1.491  -7.303  0.00  0.00    +0.130 C 
BRANCH  18  19
ATOM     19  C   LIG    1       -4.529   0.922  -7.620  0.00  0.00    +0.520 C 
ATOM     20  N   LIG    1       -5.299   1.501  -8.562  0.00  0.00    -0.620 N 
ATOM     21  C   LIG    1       -4.881   2.749  -9.220  0.00  0.00    +0.250 C 
ATOM     22  C   LIG    1       -4.995   2.551 -10.740  0.00  0.00    +0.220 C 
ATOM     23  O   LIG    1       -6.306   2.076 -11.054  0.00  0.00    -0.380 OA
ATOM     24  C   LIG    1       -6.619   0.802 -10.487  0.00  0.00    +0.220 C 
ATOM     25  C   LIG    1       -6.586   0.908  -8.958  0.00  0.00    +0.260 C 
ATOM     26  O   LIG    1       -4.930  -0.057  -7.026  0.00  0.00    -0.510 OA
ENDBRANCH  18  19
ENDBRANCH   1  18
TORSDOF 5
