REMARK  Name = ZINCvU00000009yU.0
REMARK                            x       y       z     vdW  Elec       q    Type
REMARK                         _______ _______ _______ _____ _____    ______ ____
ROOT
ATOM      1  C   LIG    1       -0.871   2.783   4.278  0.00  0.00    +0.290 A 
ATOM      2  N   LIG    1       -0.665   3.941   3.723  0.00  0.00    -0.480 NA
ATOM      3  C   LIG    1       -0.503   4.886   4.686  0.00  0.00    +0.050 A 
ATOM      4  C   LIG    1       -0.261   6.261   4.655  0.00  0.00    +0.070 A 
ATOM      5  C   LIG    1       -0.144   6.958   5.824  0.00  0.00    +0.000 A 
ATOM      6  C   LIG    1       -0.262   6.314   7.047  0.00  0.00    +0.030 A 
ATOM      7  C   LIG    1       -0.500   4.957   7.102  0.00  0.00    +0.010 A 
ATOM      8  C   LIG    1       -0.623   4.232   5.924  0.00  0.00    +0.060 A 
ATOM      9  N   LIG    1       -0.861   2.904   5.633  0.00  0.00    -0.480 N 
ENDROOT
BRANCH   1  13
ATOM     10  O   LIG    1       -2.689   0.430   0.507  0.00  0.00    -0.520 OA
ATOM     11  C   LIG    1       -1.922   0.822   1.361  0.00  0.00    +0.530 C 
ATOM     12  C   LIG    1       -2.321   1.605   2.592  0.00  0.00    +0.090 C 
ATOM     13  C   LIG    1       -1.095   1.494   3.529  0.00  0.00    +0.090 C 
ATOM     14  C   LIG    1        0.047   1.235   2.522  0.00  0.00    +0.290 C 
ATOM     15  N   LIG    1       -0.593   0.619   1.353  0.00  0.00    -0.610 N 
BRANCH  15  16
ATOM     16  C   LIG    1        0.125  -0.116   0.309  0.00  0.00    +0.360 C 
BRANCH  16  17
ATOM     17  C   LIG    1        0.198  -1.574   0.681  0.00  0.00    -0.120 A 
ATOM     18  C   LIG    1        1.268  -2.046   1.418  0.00  0.00    +0.050 A 
ATOM     19  C   LIG    1        1.334  -3.382   1.764  0.00  0.00    -0.020 A 
ATOM     20  C   LIG    1        0.333  -4.251   1.363  0.00  0.00    +0.100 A 
ATOM     21  C   LIG    1       -0.736  -3.778   0.620  0.00  0.00    -0.020 A 
ATOM     22  F   LIG    1        0.399  -5.558   1.696  0.00  0.00    -0.140 F 
ATOM     23  C   LIG    1       -0.802  -2.440   0.280  0.00  0.00    +0.070 A 
ENDBRANCH  16  17
ENDBRANCH  15  16
ENDBRANCH   1  13
BRANCH   9  24
ATOM     24  C   LIG    1       -1.061   1.825   6.603  0.00  0.00    +0.370 C 
BRANCH  24  25
ATOM     25  C   LIG    1       -2.537   1.604   6.811  0.00  0.00    -0.110 A 
ATOM     26  C   LIG    1       -3.221   0.707   6.012  0.00  0.00    +0.040 A 
ATOM     27  C   LIG    1       -4.575   0.504   6.203  0.00  0.00    +0.030 A 
ATOM     28  C   LIG    1       -5.247   1.199   7.192  0.00  0.00    +0.050 A 
ATOM     29  C   LIG    1       -4.564   2.097   7.991  0.00  0.00    +0.030 A 
ATOM     30  C   LIG    1       -3.207   2.295   7.805  0.00  0.00    -0.020 A 
ATOM     31 CL   LIG    1       -2.348   3.417   8.813  0.00  0.00    -0.060 Cl
ENDBRANCH  24  25
ENDBRANCH   9  24
TORSDOF 5
