REMARK  Name = ZINCnE000001Pwl5.0
REMARK                            x       y       z     vdW  Elec       q    Type
REMARK                         _______ _______ _______ _____ _____    ______ ____
ROOT
ATOM      1  C   LIG    1       -0.637   0.380  -5.894  0.00  0.00    +0.510 C 
ATOM      2  N   LIG    1       -0.079   1.138  -4.930  0.00  0.00    -0.610 N 
ATOM      3  C   LIG    1        1.304   1.616  -5.060  0.00  0.00    +0.260 C 
ATOM      4  C   LIG    1        2.086   1.210  -3.807  0.00  0.00    +0.010 C 
ATOM      5  C   LIG    1        1.357   1.728  -2.565  0.00  0.00    +0.010 C 
ATOM      6  C   LIG    1       -0.037   1.099  -2.490  0.00  0.00    -0.030 C 
ATOM      7  C   LIG    1       -0.843   1.504  -3.729  0.00  0.00    +0.270 C 
ATOM      8  O   LIG    1       -1.780  -0.009  -5.774  0.00  0.00    -0.540 OA
ENDROOT
BRANCH   1   9
ATOM      9  C   LIG    1        0.159   0.014  -7.120  0.00  0.00    +0.040 C 
BRANCH   9  10
ATOM     10  C   LIG    1       -0.702  -0.846  -8.049  0.00  0.00    +0.040 C 
BRANCH  10  11
ATOM     11  C   LIG    1        0.106  -1.217  -9.294  0.00  0.00    +0.060 C 
BRANCH  11  16
ATOM     12  C   LIG    1       -3.144  -4.462 -12.801  0.00  0.00    +0.100 C 
ATOM     13  C   LIG    1       -2.296  -3.616 -11.887  0.00  0.00    -0.090 A 
ATOM     14  C   LIG    1       -2.300  -2.240 -12.017  0.00  0.00    +0.000 A 
ATOM     15  C   LIG    1       -1.523  -1.463 -11.178  0.00  0.00    +0.010 A 
ATOM     16  C   LIG    1       -0.741  -2.063 -10.209  0.00  0.00    -0.080 A 
ATOM     17  C   LIG    1       -0.733  -3.440 -10.082  0.00  0.00    +0.010 A 
ATOM     18  C   LIG    1       -1.513  -4.216 -10.918  0.00  0.00    +0.000 A 
ENDBRANCH  11  16
ENDBRANCH  10  11
ENDBRANCH   9  10
ENDBRANCH   1   9
BRANCH   6  19
ATOM     19  C   LIG    1       -0.753   1.593  -1.232  0.00  0.00    +0.030 C 
BRANCH  19  20
ATOM     20  C   LIG    1       -0.013   1.086   0.008  0.00  0.00    -0.070 C 
BRANCH  20  21
ATOM     21  C   LIG    1       -0.718   1.572   1.248  0.00  0.00    +0.490 C 
ATOM     22  O   LIG    1       -0.287   1.277   2.350  0.00  0.00    -0.710 OA
ATOM     23  O   LIG    1       -1.720   2.260   1.149  0.00  0.00    -0.700 OA
ENDBRANCH  20  21
ENDBRANCH  19  20
ENDBRANCH   6  19
TORSDOF 7
