REMARK  Name = ZINCpe000000SARL.0
REMARK                            x       y       z     vdW  Elec       q    Type
REMARK                         _______ _______ _______ _____ _____    ______ ____
ROOT
ATOM      1  C   LIG    1       -2.482   0.853   0.018  0.00  0.00    +0.250 C 
ENDROOT
BRANCH   1   2
ATOM      2  N   LIG    1       -3.563   1.715   0.501  0.00  0.00    -0.720 N 
ATOM      3  H   LIG    1       -4.064   1.468   1.294  0.00  0.00    +0.400 HD
ATOM      4  C   LIG    1       -3.863   2.853  -0.158  0.00  0.00    +0.520 C 
ATOM      5  O   LIG    1       -3.237   3.162  -1.149  0.00  0.00    -0.520 OA
ATOM      6  C   LIG    1       -4.975   3.740   0.338  0.00  0.00    +0.080 C 
ENDBRANCH   1   2
BRANCH   1   9
ATOM      7  N   LIG    1       -0.011   0.966   0.007  0.00  0.00    -0.730 N 
ATOM      8  H   LIG    1        0.002  -0.004   0.002  0.00  0.00    +0.400 HD
ATOM      9  C   LIG    1       -1.187   1.624   0.017  0.00  0.00    +0.500 C 
ATOM     10  O   LIG    1       -1.204   2.837   0.023  0.00  0.00    -0.500 OA
BRANCH   7  11
ATOM     11  C   LIG    1        1.248   1.716  -0.001  0.00  0.00    +0.260 C 
BRANCH  11  12
ATOM     12  C   LIG    1        2.424   0.737  -0.017  0.00  0.00    +0.020 C 
BRANCH  12  13
ATOM     13  C   LIG    1        3.738   1.520  -0.025  0.00  0.00    +0.260 C 
BRANCH  13  16
ATOM     14  C   LIG    1        7.287   0.086  -0.067  0.00  0.00    +0.110 C 
ATOM     15  C   LIG    1        6.129   1.050  -0.051  0.00  0.00    +0.510 C 
ATOM     16  N   LIG    1        4.864   0.583  -0.041  0.00  0.00    -0.730 N 
ATOM     17  H   LIG    1        4.700  -0.372  -0.045  0.00  0.00    +0.400 HD
ATOM     18  O   LIG    1        6.334   2.245  -0.046  0.00  0.00    -0.540 OA
ENDBRANCH  13  16
ENDBRANCH  12  13
ENDBRANCH  11  12
ENDBRANCH   7  11
ENDBRANCH   1   9
BRANCH   1  19
ATOM     19  C   LIG    1       -2.799   0.384  -1.403  0.00  0.00    +0.120 C 
BRANCH  19  20
ATOM     20  C   LIG    1       -4.027  -0.489  -1.382  0.00  0.00    -0.170 A 
ATOM     21  C   LIG    1       -4.051  -1.830  -1.323  0.00  0.00    +0.220 A 
ATOM     22  N   LIG    1       -5.346  -2.273  -1.319  0.00  0.00    -0.600 N 
ATOM     23  H   LIG    1       -5.617  -3.204  -1.278  0.00  0.00    +0.420 HD
ATOM     24  C   LIG    1       -6.208  -1.201  -1.387  0.00  0.00    +0.090 A 
ATOM     25  C   LIG    1       -7.593  -1.087  -1.418  0.00  0.00    -0.010 A 
ATOM     26  C   LIG    1       -8.176   0.160  -1.490  0.00  0.00    +0.020 A 
ATOM     27  C   LIG    1       -7.393   1.305  -1.532  0.00  0.00    -0.030 A 
ATOM     28  C   LIG    1       -6.030   1.216  -1.503  0.00  0.00    +0.050 A 
ATOM     29  C   LIG    1       -5.419  -0.037  -1.430  0.00  0.00    -0.090 A 
ENDBRANCH  19  20
ENDBRANCH   1  19
TORSDOF 8
