REMARK  Name = ZINCpk00000e9yB6.0
REMARK                            x       y       z     vdW  Elec       q    Type
REMARK                         _______ _______ _______ _____ _____    ______ ____
ROOT
ATOM      1  C   LIG    1        1.313   0.639  -4.575  0.00  0.00    -0.130 A 
ATOM      2  C   LIG    1        0.103   1.334  -4.635  0.00  0.00    +0.350 A 
ATOM      3  N   LIG    1       -0.529   1.619  -3.509  0.00  0.00    -0.520 NA
ATOM      4  C   LIG    1       -0.029   1.254  -2.338  0.00  0.00    +0.480 A 
ATOM      5  N   LIG    1        1.118   0.598  -2.241  0.00  0.00    -0.540 NA
ATOM      6  C   LIG    1        1.806   0.272  -3.321  0.00  0.00    +0.340 A 
ENDROOT
BRANCH   1  11
ATOM      7  C   LIG    1        4.401  -1.652  -9.162  0.00  0.00    +0.240 C 
ATOM      8  C   LIG    1        4.771  -1.125  -7.777  0.00  0.00    +0.300 C 
ATOM      9  N   LIG    1        3.595  -0.491  -7.173  0.00  0.00    -0.430 N 
ATOM     10  C   LIG    1        3.248  -0.372  -5.885  0.00  0.00    +0.230 A 
ATOM     11  C   LIG    1        2.056   0.298  -5.815  0.00  0.00    -0.140 A 
ATOM     12  C   LIG    1        1.665   0.610  -7.135  0.00  0.00    +0.070 A 
ATOM     13  C   LIG    1        2.622   0.119  -7.954  0.00  0.00    -0.060 A 
ATOM     14  C   LIG    1        2.745   0.150  -9.418  0.00  0.00    +0.600 C 
ATOM     15  O   LIG    1        2.049   0.873 -10.106  0.00  0.00    -0.510 OA
ATOM     16  N   LIG    1        3.675  -0.672  -9.961  0.00  0.00    -0.730 N 
ATOM     17  H   LIG    1        3.864  -0.607 -10.910  0.00  0.00    +0.410 HD
BRANCH   7  19
ATOM     18  C   LIG    1        3.253  -3.511 -10.375  0.00  0.00    +0.030 C 
ATOM     19  C   LIG    1        3.530  -2.899  -9.000  0.00  0.00    +0.010 C 
ENDBRANCH   7  19
ENDBRANCH   1  11
BRANCH   4  20
ATOM     20  N   LIG    1       -0.723   1.572  -1.182  0.00  0.00    -0.460 N 
ATOM     21  C   LIG    1       -0.013   1.086   0.008  0.00  0.00    +0.210 C 
ATOM     22  C   LIG    1       -0.729   1.579   1.267  0.00  0.00    +0.010 C 
ATOM     23  C   LIG    1       -2.170   1.064   1.264  0.00  0.00    +0.150 C 
ATOM     24  C   LIG    1       -2.873   1.544  -0.009  0.00  0.00    +0.050 C 
ATOM     25  C   LIG    1       -2.095   1.052  -1.231  0.00  0.00    +0.220 C 
BRANCH  23  26
ATOM     26  O   LIG    1       -2.860   1.568   2.410  0.00  0.00    -0.560 OA
ATOM     27  H   LIG    1       -2.469   1.303   3.253  0.00  0.00    +0.380 HD
ENDBRANCH  23  26
ENDBRANCH   4  20
TORSDOF 4
