REMARK  Name = ZINCrH000004vA4N.0
REMARK                            x       y       z     vdW  Elec       q    Type
REMARK                         _______ _______ _______ _____ _____    ______ ____
ROOT
ATOM      1  O   LIG    1       -0.015   8.413   3.212  0.00  0.00    -0.520 OA
ATOM      2  C   LIG    1        0.828   8.320   2.341  0.00  0.00    +0.560 C 
ATOM      3  N   LIG    1        0.539   7.681   1.189  0.00  0.00    -0.600 N 
ATOM      4  C   LIG    1        1.557   7.648   0.121  0.00  0.00    +0.260 C 
ATOM      5  C   LIG    1        1.629   6.262  -0.540  0.00  0.00    +0.040 C 
ATOM      6  C   LIG    1        1.497   5.187   0.516  0.00  0.00    +0.220 C 
ATOM      7  N   LIG    1        0.089   4.814   0.646  0.00  0.00    -0.490 N 
ATOM      8  C   LIG    1       -0.685   5.588   1.542  0.00  0.00    +0.190 C 
ATOM      9  C   LIG    1       -0.759   7.053   1.048  0.00  0.00    +0.310 C 
ENDROOT
BRANCH   7  10
ATOM     10  C   LIG    1       -0.043   3.456   0.918  0.00  0.00    +0.300 A 
ATOM     11  N   LIG    1        1.034   2.727   1.161  0.00  0.00    -0.500 NA
ATOM     12  C   LIG    1        0.953   1.436   1.423  0.00  0.00    +0.290 A 
ATOM     13  C   LIG    1       -0.269   0.794   1.452  0.00  0.00    -0.020 A 
ATOM     14  C   LIG    1       -1.425   1.520   1.196  0.00  0.00    +0.070 A 
ATOM     15  C   LIG    1       -1.310   2.874   0.930  0.00  0.00    +0.030 A 
ATOM     16  F   LIG    1       -2.408   3.620   0.680  0.00  0.00    -0.120 F 
ENDBRANCH   7  10
BRANCH   2  17
ATOM     17  C   LIG    1        2.168   8.906   2.544  0.00  0.00    -0.140 A 
ATOM     18  C   LIG    1        2.746   9.695   1.547  0.00  0.00    +0.120 A 
ATOM     19  C   LIG    1        3.997  10.240   1.742  0.00  0.00    +0.000 A 
ATOM     20  C   LIG    1        4.681  10.007   2.925  0.00  0.00    +0.180 A 
ATOM     21  C   LIG    1        4.112   9.225   3.918  0.00  0.00    -0.230 A 
ATOM     22  F   LIG    1        5.907  10.544   3.111  0.00  0.00    -0.120 F 
ATOM     23  C   LIG    1        2.859   8.679   3.736  0.00  0.00    +0.170 A 
BRANCH  21  24
ATOM     24  C   LIG    1        4.861   8.975   5.202  0.00  0.00    +0.510 C 
ATOM     25  F   LIG    1        5.117  10.195   5.837  0.00  0.00    -0.170 F 
ATOM     26  F   LIG    1        6.072   8.334   4.918  0.00  0.00    -0.170 F 
ATOM     27  F   LIG    1        4.090   8.165   6.042  0.00  0.00    -0.170 F 
ENDBRANCH  21  24
ENDBRANCH   2  17
TORSDOF 3
