REMARK  Name = ZINCpe00000VTPvS.1
REMARK                            x       y       z     vdW  Elec       q    Type
REMARK                         _______ _______ _______ _____ _____    ______ ____
ROOT
ATOM      1  C   LIG    1        4.947   1.341   0.648  0.00  0.00    +0.280 C 
ATOM      2  C   LIG    1        5.359   2.087   1.922  0.00  0.00    +0.280 C 
ATOM      3  N   LIG    1        6.789   1.839   2.164  0.00  0.00    -0.610 N 
ATOM      4  C   LIG    1        7.727   2.058   1.052  0.00  0.00    +0.250 C 
ATOM      5  C   LIG    1        7.200   1.313  -0.179  0.00  0.00    +0.230 C 
ATOM      6  C   LIG    1        7.226   1.421   3.369  0.00  0.00    +0.530 C 
ATOM      7  O   LIG    1        6.437   1.245   4.273  0.00  0.00    -0.520 OA
ATOM      8  O   LIG    1        5.841   1.689  -0.413  0.00  0.00    -0.360 OA
ENDROOT
BRANCH   1  11
ATOM      9  C   LIG    1        1.401   1.607  -0.003  0.00  0.00    +0.300 A 
ATOM     10  N   LIG    1        2.458   0.971   0.431  0.00  0.00    -0.530 NA
ATOM     11  C   LIG    1        3.542   1.729   0.269  0.00  0.00    +0.230 A 
ATOM     12  N   LIG    1        3.187   2.865  -0.274  0.00  0.00    -0.280 NA
ATOM     13  N   LIG    1        1.797   2.806  -0.465  0.00  0.00    -0.480 N 
ATOM     14  H   LIG    1        1.234   3.495  -0.852  0.00  0.00    +0.440 HD
BRANCH   9  16
ATOM     15  C   LIG    1       -0.753   1.593  -1.232  0.00  0.00    +0.040 C 
ATOM     16  C   LIG    1       -0.013   1.086   0.008  0.00  0.00    +0.090 C 
ATOM     17  C   LIG    1       -0.729   1.579   1.267  0.00  0.00    +0.060 C 
ENDBRANCH   9  16
ENDBRANCH   1  11
BRANCH   6  18
ATOM     18  C   LIG    1        8.695   1.173   3.593  0.00  0.00    +0.000 C 
ATOM     19  C   LIG    1        9.513   2.469   3.386  0.00  0.00    +0.070 C 
ATOM     20  C   LIG    1       10.597   2.395   4.439  0.00  0.00    +0.520 C 
ATOM     21  N   LIG    1       10.277   1.480   5.369  0.00  0.00    -0.590 N 
ATOM     22  O   LIG    1       11.608   3.066   4.443  0.00  0.00    -0.520 OA
ATOM     23  C   LIG    1        8.982   0.853   5.077  0.00  0.00    +0.300 C 
BRANCH  21  24
ATOM     24  C   LIG    1       11.112   1.149   6.526  0.00  0.00    +0.210 C 
ATOM     25  C   LIG    1       12.330   2.036   6.794  0.00  0.00    +0.040 C 
ATOM     26  C   LIG    1       12.520   0.617   6.252  0.00  0.00    +0.000 C 
ENDBRANCH  21  24
ENDBRANCH   6  18
TORSDOF 4
