REMARK  Name = ZINCpe00000VTPvS.0
REMARK                            x       y       z     vdW  Elec       q    Type
REMARK                         _______ _______ _______ _____ _____    ______ ____
ROOT
ATOM      1  C   LIG    1        0.877  -1.272   5.116  0.00  0.00    +0.270 C 
ATOM      2  C   LIG    1        2.357  -1.669   5.159  0.00  0.00    +0.300 C 
ATOM      3  N   LIG    1        2.487  -2.889   5.973  0.00  0.00    -0.610 N 
ATOM      4  C   LIG    1        1.604  -4.025   5.662  0.00  0.00    +0.250 C 
ATOM      5  C   LIG    1        0.161  -3.512   5.595  0.00  0.00    +0.240 C 
ATOM      6  C   LIG    1        3.387  -2.962   6.973  0.00  0.00    +0.530 C 
ATOM      7  O   LIG    1        4.105  -2.015   7.213  0.00  0.00    -0.520 OA
ATOM      8  O   LIG    1        0.099  -2.397   4.702  0.00  0.00    -0.380 OA
ENDROOT
BRANCH   1  12
ATOM      9  C   LIG    1        0.000   1.080   2.488  0.00  0.00    +0.190 A 
ATOM     10  N   LIG    1        0.906   1.729   3.167  0.00  0.00    -0.290 NA
ATOM     11  N   LIG    1        1.314   1.004   4.147  0.00  0.00    -0.270 NA
ATOM     12  C   LIG    1        0.688  -0.141   4.137  0.00  0.00    +0.180 A 
ATOM     13  N   LIG    1       -0.168  -0.124   3.087  0.00  0.00    -0.560 N 
ATOM     14  H   LIG    1       -0.775  -0.830   2.817  0.00  0.00    +0.430 HD
BRANCH   9  16
ATOM     15  C   LIG    1       -0.013   1.086   0.008  0.00  0.00    +0.050 C 
ATOM     16  C   LIG    1       -0.729   1.579   1.267  0.00  0.00    +0.100 C 
ATOM     17  C   LIG    1       -2.164   1.050   1.278  0.00  0.00    +0.040 C 
ENDBRANCH   9  16
ENDBRANCH   1  12
BRANCH   6  18
ATOM     18  C   LIG    1        3.501  -4.222   7.792  0.00  0.00    +0.000 C 
ATOM     19  C   LIG    1        3.979  -5.407   6.922  0.00  0.00    +0.070 C 
ATOM     20  C   LIG    1        4.890  -6.196   7.837  0.00  0.00    +0.520 C 
ATOM     21  N   LIG    1        5.243  -5.447   8.895  0.00  0.00    -0.590 N 
ATOM     22  O   LIG    1        5.251  -7.337   7.642  0.00  0.00    -0.520 OA
ATOM     23  C   LIG    1        4.644  -4.108   8.825  0.00  0.00    +0.310 C 
BRANCH  21  24
ATOM     24  C   LIG    1        6.112  -5.907   9.981  0.00  0.00    +0.210 C 
ATOM     25  C   LIG    1        6.814  -7.254   9.800  0.00  0.00    +0.040 C 
ATOM     26  C   LIG    1        5.652  -7.122  10.788  0.00  0.00    +0.000 C 
ENDBRANCH  21  24
ENDBRANCH   6  18
TORSDOF 4
