REMARK  Name = ZINCpe00000VTPvS.2
REMARK                            x       y       z     vdW  Elec       q    Type
REMARK                         _______ _______ _______ _____ _____    ______ ____
ROOT
ATOM      1  C   LIG    1       -4.373   6.155  -5.654  0.00  0.00    +0.270 C 
ATOM      2  C   LIG    1       -3.079   6.273  -4.841  0.00  0.00    +0.290 C 
ATOM      3  N   LIG    1       -2.640   4.919  -4.468  0.00  0.00    -0.610 N 
ATOM      4  C   LIG    1       -2.545   3.906  -5.531  0.00  0.00    +0.250 C 
ATOM      5  C   LIG    1       -3.870   3.902  -6.309  0.00  0.00    +0.240 C 
ATOM      6  C   LIG    1       -2.329   4.617  -3.192  0.00  0.00    +0.530 C 
ATOM      7  O   LIG    1       -2.409   5.467  -2.331  0.00  0.00    -0.520 OA
ATOM      8  O   LIG    1       -4.171   5.235  -6.729  0.00  0.00    -0.380 OA
ENDROOT
BRANCH   1  13
ATOM      9  C   LIG    1       -5.662   9.450  -6.425  0.00  0.00    +0.240 A 
ATOM     10  N   LIG    1       -4.890   9.304  -7.470  0.00  0.00    -0.300 NA
ATOM     11  N   LIG    1       -4.277   8.047  -7.348  0.00  0.00    -0.460 N 
ATOM     12  H   LIG    1       -3.644   7.646  -7.965  0.00  0.00    +0.450 HD
ATOM     13  C   LIG    1       -4.743   7.506  -6.209  0.00  0.00    +0.290 A 
ATOM     14  N   LIG    1       -5.571   8.361  -5.664  0.00  0.00    -0.520 NA
BRANCH   9  16
ATOM     15  C   LIG    1       -5.625  11.895  -6.009  0.00  0.00    +0.050 C 
ATOM     16  C   LIG    1       -6.515  10.657  -6.129  0.00  0.00    +0.100 C 
ATOM     17  C   LIG    1       -7.522  10.860  -7.263  0.00  0.00    +0.050 C 
ENDBRANCH   9  16
ENDBRANCH   1  13
BRANCH   6  18
ATOM     18  C   LIG    1       -1.882   3.223  -2.835  0.00  0.00    +0.000 C 
ATOM     19  C   LIG    1       -0.502   2.907  -3.456  0.00  0.00    +0.070 C 
ATOM     20  C   LIG    1        0.201   2.081  -2.402  0.00  0.00    +0.520 C 
ATOM     21  N   LIG    1       -0.430   2.204  -1.222  0.00  0.00    -0.590 N 
ATOM     22  O   LIG    1        1.189   1.405  -2.594  0.00  0.00    -0.520 OA
ATOM     23  C   LIG    1       -1.581   3.108  -1.324  0.00  0.00    +0.310 C 
BRANCH  21  24
ATOM     24  C   LIG    1       -0.019   1.526   0.010  0.00  0.00    +0.210 C 
ATOM     25  C   LIG    1        1.317   0.779  -0.006  0.00  0.00    +0.040 C 
ATOM     26  C   LIG    1        0.002  -0.004   0.002  0.00  0.00    +0.000 C 
ENDBRANCH  21  24
ENDBRANCH   6  18
TORSDOF 4
