REMARK  Name = ZINCrH000004mtsM.0
REMARK                            x       y       z     vdW  Elec       q    Type
REMARK                         _______ _______ _______ _____ _____    ______ ____
ROOT
ATOM      1  C   LIG    1       -0.831   1.746  -1.149  0.00  0.00    -0.030 C 
ATOM      2  C   LIG    1       -0.111   1.468   0.183  0.00  0.00    +0.030 C 
ATOM      3  C   LIG    1       -0.913   2.197   1.280  0.00  0.00    +0.020 C 
ATOM      4  C   LIG    1       -1.660   3.322   0.519  0.00  0.00    +0.020 C 
ATOM      5  C   LIG    1       -2.046   2.636  -0.814  0.00  0.00    +0.030 C 
ENDROOT
BRANCH   1   6
ATOM      6  C   LIG    1       -1.293   0.452  -1.767  0.00  0.00    -0.070 A 
ATOM      7  C   LIG    1       -2.248  -0.316  -1.127  0.00  0.00    +0.020 A 
ATOM      8  C   LIG    1       -2.677  -1.502  -1.693  0.00  0.00    +0.030 A 
ATOM      9  C   LIG    1       -2.143  -1.929  -2.899  0.00  0.00    +0.050 A 
ATOM     10  O   LIG    1       -2.569  -3.103  -3.440  0.00  0.00    -0.310 OA
ATOM     11  C   LIG    1       -2.287  -3.312  -4.828  0.00  0.00    +0.220 C 
ATOM     12  C   LIG    1       -0.822  -2.933  -5.082  0.00  0.00    +0.220 C 
ATOM     13  O   LIG    1       -0.646  -1.558  -4.727  0.00  0.00    -0.310 OA
ATOM     14  C   LIG    1       -1.180  -1.159  -3.540  0.00  0.00    +0.050 A 
ATOM     15  C   LIG    1       -0.757   0.032  -2.970  0.00  0.00    +0.030 A 
ENDBRANCH   1   6
BRANCH   1  16
ATOM     16  C   LIG    1        0.108   2.481  -2.108  0.00  0.00    +0.280 C 
BRANCH  16  18
ATOM     17  C   LIG    1       -0.006   3.541  -4.299  0.00  0.00    +0.560 C 
ATOM     18  N   LIG    1       -0.627   2.856  -3.318  0.00  0.00    -0.730 N 
ATOM     19  H   LIG    1       -1.561   2.612  -3.414  0.00  0.00    +0.400 HD
ATOM     20  O   LIG    1        1.164   3.847  -4.179  0.00  0.00    -0.540 OA
BRANCH  17  24
ATOM     21  C   LIG    1       -2.137   4.629  -7.808  0.00  0.00    +0.160 A 
ATOM     22  C   LIG    1       -0.799   4.980  -7.672  0.00  0.00    -0.020 A 
ATOM     23  C   LIG    1       -0.105   4.629  -6.536  0.00  0.00    +0.120 A 
ATOM     24  C   LIG    1       -0.747   3.919  -5.518  0.00  0.00    -0.180 A 
ATOM     25  C   LIG    1       -2.091   3.563  -5.661  0.00  0.00    +0.090 A 
ATOM     26  C   LIG    1       -2.779   3.922  -6.798  0.00  0.00    -0.090 A 
BRANCH  21  28
ATOM     27  C   LIG    1       -4.190   4.583  -9.003  0.00  0.00    +0.240 C 
ATOM     28  O   LIG    1       -2.818   4.976  -8.929  0.00  0.00    -0.310 OA
ENDBRANCH  21  28
ENDBRANCH  17  24
ENDBRANCH  16  18
ENDBRANCH   1  16
TORSDOF 5
