REMARK  Name = ZINCrH00000No4BH.0
REMARK                            x       y       z     vdW  Elec       q    Type
REMARK                         _______ _______ _______ _____ _____    ______ ____
ROOT
ATOM      1  C   LIG    1       -0.222   1.232   2.431  0.00  0.00    +0.540 C 
ATOM      2  N   LIG    1       -0.698   1.558   1.213  0.00  0.00    -0.730 N 
ATOM      3  H   LIG    1       -1.495   2.106   1.135  0.00  0.00    +0.400 HD
ATOM      4  O   LIG    1        0.778   0.546   2.530  0.00  0.00    -0.540 OA
ENDROOT
BRANCH   1   6
ATOM      5  C   LIG    1       -0.432   1.379   4.855  0.00  0.00    +0.120 C 
ATOM      6  C   LIG    1       -0.908   1.705   3.638  0.00  0.00    -0.070 C 
BRANCH   5  10
ATOM      7  C   LIG    1       -2.419   2.749   8.349  0.00  0.00    -0.130 A 
ATOM      8  C   LIG    1       -1.272   1.961   8.463  0.00  0.00    +0.080 A 
ATOM      9  C   LIG    1       -0.627   1.516   7.331  0.00  0.00    +0.040 A 
ATOM     10  C   LIG    1       -1.121   1.854   6.066  0.00  0.00    -0.050 A 
ATOM     11  C   LIG    1       -2.267   2.648   5.954  0.00  0.00    +0.020 A 
ATOM     12  C   LIG    1       -2.914   3.087   7.087  0.00  0.00    +0.040 A 
BRANCH   7  16
ATOM     13  C   LIG    1       -4.903   4.461  10.662  0.00  0.00    +0.290 C 
ATOM     14  N   LIG    1       -4.218   3.988   9.457  0.00  0.00    -0.730 N 
ATOM     15  H   LIG    1       -4.561   4.222   8.580  0.00  0.00    +0.400 HD
ATOM     16  C   LIG    1       -3.111   3.227   9.566  0.00  0.00    +0.550 C 
ATOM     17  O   LIG    1       -2.681   2.933  10.664  0.00  0.00    -0.530 OA
ENDBRANCH   7  16
ENDBRANCH   5  10
ENDBRANCH   1   6
BRANCH   2  18
ATOM     18  C   LIG    1       -0.013   1.086   0.008  0.00  0.00    +0.250 C 
BRANCH  18  19
ATOM     19  C   LIG    1       -0.753   1.593  -1.232  0.00  0.00    +0.020 C 
BRANCH  19  20
ATOM     20  C   LIG    1       -0.037   1.099  -2.490  0.00  0.00    -0.050 C 
ATOM     21  C   LIG    1       -0.016  -0.431  -2.499  0.00  0.00    +0.020 C 
ATOM     22  C   LIG    1        0.700  -0.924  -3.757  0.00  0.00    -0.020 C 
ATOM     23  C   LIG    1        2.136  -0.394  -3.768  0.00  0.00    +0.010 C 
ATOM     24  C   LIG    1        2.115   1.135  -3.760  0.00  0.00    -0.020 C 
ATOM     25  C   LIG    1        1.375   1.642  -5.000  0.00  0.00    +0.010 C 
ATOM     26  C   LIG    1       -0.060   1.113  -4.989  0.00  0.00    -0.020 C 
ATOM     27  C   LIG    1       -0.040  -0.417  -4.997  0.00  0.00    +0.010 C 
ATOM     28  C   LIG    1        1.399   1.629  -2.501  0.00  0.00    +0.020 C 
ATOM     29  C   LIG    1       -0.777   1.606  -3.730  0.00  0.00    +0.020 C 
ENDBRANCH  19  20
ENDBRANCH  18  19
ENDBRANCH   2  18
TORSDOF 6
