REMARK  Name = ZINCqH0000008lyU.0
REMARK                            x       y       z     vdW  Elec       q    Type
REMARK                         _______ _______ _______ _____ _____    ______ ____
ROOT
ATOM      1  N   LIG    1       -3.491   3.452   0.940  0.00  0.00    -0.730 N 
ATOM      2  H   LIG    1       -3.381   2.505   1.120  0.00  0.00    +0.400 HD
ATOM      3  C   LIG    1       -4.503   4.133   1.512  0.00  0.00    +0.520 C 
ATOM      4  O   LIG    1       -4.640   5.317   1.287  0.00  0.00    -0.540 OA
ENDROOT
BRANCH   1   6
ATOM      5  C   LIG    1       -3.137   4.178  -1.369  0.00  0.00    +0.040 C 
ATOM      6  C   LIG    1       -2.556   4.141   0.047  0.00  0.00    +0.280 C 
BRANCH   6   7
ATOM      7  C   LIG    1       -1.241   3.405   0.031  0.00  0.00    -0.070 A 
ATOM      8  C   LIG    1       -0.054   4.113   0.024  0.00  0.00    +0.060 A 
ATOM      9  C   LIG    1        1.153   3.441   0.009  0.00  0.00    +0.030 A 
ATOM     10  C   LIG    1        1.175   2.057   0.002  0.00  0.00    +0.070 A 
ATOM     11  C   LIG    1       -0.016   1.347   0.009  0.00  0.00    +0.070 A 
ATOM     12  F   LIG    1        0.002  -0.004   0.002  0.00  0.00    -0.130 F 
ATOM     13  F   LIG    1        2.355   1.399  -0.013  0.00  0.00    -0.130 F 
ATOM     14  C   LIG    1       -1.223   2.023   0.019  0.00  0.00    +0.030 A 
ENDBRANCH   6   7
ENDBRANCH   1   6
BRANCH   3  15
ATOM     15  C   LIG    1       -5.465   3.425   2.431  0.00  0.00    +0.060 C 
BRANCH  15  16
ATOM     16  C   LIG    1       -6.510   4.419   2.941  0.00  0.00    +0.080 C 
BRANCH  16  17
ATOM     17  C   LIG    1       -7.486   3.699   3.874  0.00  0.00    +0.000 C 
ATOM     18  C   LIG    1       -8.448   4.717   4.486  0.00  0.00    +0.110 C 
ATOM     19  C   LIG    1       -9.579   3.996   5.173  0.00  0.00    -0.120 A 
ATOM     20  C   LIG    1      -10.161   4.542   6.300  0.00  0.00    +0.050 A 
ATOM     21  C   LIG    1      -11.226   3.902   6.909  0.00  0.00    -0.010 A 
ATOM     22  C   LIG    1      -11.713   2.718   6.388  0.00  0.00    +0.040 A 
ATOM     23  C   LIG    1      -11.130   2.164   5.265  0.00  0.00    -0.020 A 
ATOM     24  C   LIG    1      -10.049   2.793   4.663  0.00  0.00    +0.160 A 
ATOM     25  N   LIG    1       -9.451   2.230   3.532  0.00  0.00    -0.660 N 
ATOM     26  H   LIG    1       -9.900   1.512   3.060  0.00  0.00    +0.410 HD
ATOM     27  C   LIG    1       -8.261   2.672   3.091  0.00  0.00    +0.530 C 
ATOM     28  O   LIG    1       -7.806   2.239   2.054  0.00  0.00    -0.520 OA
ENDBRANCH  16  17
ENDBRANCH  15  16
ENDBRANCH   3  15
TORSDOF 5
