REMARK  Name = ZINCrg000000nk6b.0
REMARK                            x       y       z     vdW  Elec       q    Type
REMARK                         _______ _______ _______ _____ _____    ______ ____
ROOT
ATOM      1  C   LIG    1       -1.161   3.012   3.096  0.00  0.00    -0.290 A 
ATOM      2  C   LIG    1       -0.200   2.828   2.122  0.00  0.00    +0.320 A 
ATOM      3  N   LIG    1       -0.704   1.975   1.216  0.00  0.00    -0.350 N 
ATOM      4  N   LIG    1       -1.997   1.619   1.613  0.00  0.00    -0.260 NA
ATOM      5  C   LIG    1       -2.277   2.225   2.734  0.00  0.00    +0.270 A 
ENDROOT
BRANCH   1   8
ATOM      6  N   LIG    1       -2.068   3.953   5.161  0.00  0.00    -0.720 N 
ATOM      7  H   LIG    1       -2.882   3.450   5.003  0.00  0.00    +0.400 HD
ATOM      8  C   LIG    1       -1.044   3.869   4.290  0.00  0.00    +0.600 C 
ATOM      9  O   LIG    1       -0.023   4.500   4.488  0.00  0.00    -0.540 OA
BRANCH   6  12
ATOM     10  N   LIG    1       -3.207   5.203   8.352  0.00  0.00    -0.620 N 
ATOM     11  C   LIG    1       -3.346   5.189   6.891  0.00  0.00    +0.270 C 
ATOM     12  C   LIG    1       -1.952   4.805   6.348  0.00  0.00    +0.250 C 
ATOM     13  C   LIG    1       -1.354   4.018   7.537  0.00  0.00    +0.050 C 
ATOM     14  C   LIG    1       -2.100   4.548   8.743  0.00  0.00    +0.520 C 
ATOM     15  O   LIG    1       -1.749   4.402   9.895  0.00  0.00    -0.520 OA
BRANCH  10  17
ATOM     16  C   LIG    1       -4.734   4.802  10.220  0.00  0.00    +0.030 C 
ATOM     17  C   LIG    1       -4.152   5.848   9.267  0.00  0.00    +0.240 C 
ATOM     18  C   LIG    1       -3.425   6.926  10.074  0.00  0.00    +0.030 C 
ENDBRANCH  10  17
ENDBRANCH   6  12
ENDBRANCH   1   8
BRANCH   3  19
ATOM     19  C   LIG    1       -0.018   1.503   0.010  0.00  0.00    +0.360 C 
BRANCH  19  20
ATOM     20  C   LIG    1        0.002  -0.004   0.002  0.00  0.00    +0.500 C 
ATOM     21  N   LIG    1        0.585  -0.664  -1.018  0.00  0.00    -0.730 N 
ATOM     22  H   LIG    1        0.992  -0.170  -1.747  0.00  0.00    +0.400 HD
ATOM     23  O   LIG    1       -0.506  -0.622   0.913  0.00  0.00    -0.500 OA
BRANCH  21  24
ATOM     24  C   LIG    1        0.605  -2.129  -1.026  0.00  0.00    +0.240 C 
ATOM     25  C   LIG    1        1.801  -2.628  -0.213  0.00  0.00    +0.000 C 
ATOM     26  C   LIG    1        1.822  -4.157  -0.221  0.00  0.00    +0.010 C 
ATOM     27  C   LIG    1        1.941  -4.658  -1.662  0.00  0.00    +0.010 C 
ATOM     28  C   LIG    1        0.745  -4.160  -2.475  0.00  0.00    +0.020 C 
ATOM     29  C   LIG    1        0.724  -2.630  -2.467  0.00  0.00    +0.010 C 
ENDBRANCH  21  24
ENDBRANCH  19  20
ENDBRANCH   3  19
TORSDOF 6
