REMARK  Name = ZINCrH000004vDTL.0
REMARK                            x       y       z     vdW  Elec       q    Type
REMARK                         _______ _______ _______ _____ _____    ______ ____
ROOT
ATOM      1  O   LIG    1        0.204   4.275   0.341  0.00  0.00    -0.450 OA
ATOM      2  C   LIG    1       -0.060   5.350  -0.160  0.00  0.00    +0.580 C 
ATOM      3  N   LIG    1       -1.277   5.899   0.025  0.00  0.00    -0.570 N 
ATOM      4  C   LIG    1       -2.473   5.182   0.122  0.00  0.00    +0.160 A 
ATOM      5  C   LIG    1       -2.685   3.804   0.066  0.00  0.00    -0.010 A 
ATOM      6  C   LIG    1       -3.959   3.291   0.190  0.00  0.00    +0.040 A 
ATOM      7  C   LIG    1       -5.035   4.138   0.377  0.00  0.00    -0.010 A 
ATOM      8  C   LIG    1       -4.832   5.505   0.438  0.00  0.00    +0.060 A 
ATOM      9  C   LIG    1       -3.558   6.023   0.314  0.00  0.00    -0.140 A 
ATOM     10  C   LIG    1       -3.061   7.451   0.344  0.00  0.00    +0.110 C 
ATOM     11  C   LIG    1       -1.540   7.335   0.148  0.00  0.00    +0.230 C 
ENDROOT
BRANCH   2  12
ATOM     12  C   LIG    1        0.956   6.057  -0.977  0.00  0.00    +0.030 A 
ATOM     13  C   LIG    1        2.305   5.673  -0.933  0.00  0.00    +0.060 A 
ATOM     14  N   LIG    1        2.997   4.731  -0.275  0.00  0.00    -0.510 NA
ATOM     15  C   LIG    1        4.263   4.829  -0.625  0.00  0.00    +0.450 A 
ATOM     16  N   LIG    1        4.427   5.814  -1.499  0.00  0.00    -0.560 NA
ATOM     17  C   LIG    1        3.247   6.378  -1.732  0.00  0.00    +0.250 A 
ATOM     18  N   LIG    1        2.825   7.406  -2.520  0.00  0.00    -0.470 N 
ATOM     19  H   LIG    1        3.469   7.886  -3.065  0.00  0.00    +0.430 HD
ATOM     20  C   LIG    1        1.534   7.769  -2.550  0.00  0.00    +0.320 A 
ATOM     21  C   LIG    1        0.591   7.122  -1.808  0.00  0.00    -0.010 A 
ENDBRANCH   2  12
BRANCH  11  22
ATOM     22  C   LIG    1       -0.803   7.908   1.361  0.00  0.00    +0.090 C 
BRANCH  22  23
ATOM     23  C   LIG    1        0.684   7.826   1.128  0.00  0.00    -0.100 A 
ATOM     24  C   LIG    1        1.409   6.773   1.654  0.00  0.00    +0.010 A 
ATOM     25  C   LIG    1        2.772   6.696   1.437  0.00  0.00    +0.040 A 
ATOM     26  C   LIG    1        3.412   7.677   0.703  0.00  0.00    +0.000 A 
ATOM     27  C   LIG    1        2.687   8.733   0.181  0.00  0.00    +0.000 A 
ATOM     28  C   LIG    1        1.324   8.807   0.394  0.00  0.00    +0.000 A 
ENDBRANCH  22  23
ENDBRANCH  11  22
TORSDOF 3
