REMARK  Name = ZINCvU00000009ns.0
REMARK                            x       y       z     vdW  Elec       q    Type
REMARK                         _______ _______ _______ _____ _____    ______ ____
ROOT
ATOM      1  C   LIG    1        0.007   0.976   2.674  0.00  0.00    +0.080 A 
ATOM      2  C   LIG    1        1.372   1.056   2.433  0.00  0.00    +0.050 A 
ATOM      3  C   LIG    1        2.265   0.700   3.424  0.00  0.00    +0.030 A 
ATOM      4  C   LIG    1        1.800   0.252   4.655  0.00  0.00    +0.150 A 
ATOM      5  C   LIG    1        0.437   0.169   4.896  0.00  0.00    -0.100 A 
ATOM      6  C   LIG    1       -0.100  -0.305   6.221  0.00  0.00    +0.080 C 
ATOM      7  C   LIG    1        0.959  -1.115   6.970  0.00  0.00    +0.020 C 
ATOM      8  C   LIG    1        2.259  -0.302   7.022  0.00  0.00    +0.270 C 
ATOM      9  N   LIG    1        2.728  -0.116   5.642  0.00  0.00    -0.550 N 
ATOM     10  C   LIG    1        4.026  -0.295   5.329  0.00  0.00    +0.560 C 
ATOM     11  O   LIG    1        4.383  -0.254   4.167  0.00  0.00    -0.500 OA
ATOM     12  C   LIG    1       -0.457   0.531   3.904  0.00  0.00    -0.010 A 
ENDROOT
BRANCH  10  13
ATOM     13  C   LIG    1        5.017  -0.541   6.398  0.00  0.00    -0.120 A 
ATOM     14  C   LIG    1        4.789  -0.059   7.688  0.00  0.00    +0.030 A 
ATOM     15  C   LIG    1        5.716  -0.291   8.685  0.00  0.00    +0.030 A 
ATOM     16  C   LIG    1        6.870  -1.000   8.410  0.00  0.00    -0.080 A 
ATOM     17  C   LIG    1        7.107  -1.483   7.129  0.00  0.00    +0.140 A 
ATOM     18  C   LIG    1        7.877  -1.249   9.504  0.00  0.00    +0.110 C 
ATOM     19  C   LIG    1        6.180  -1.260   6.122  0.00  0.00    +0.090 A 
BRANCH  17  20
ATOM     20  N   LIG    1        8.277  -2.199   6.856  0.00  0.00    -0.670 N 
ATOM     21  H   LIG    1        8.670  -2.766   7.539  0.00  0.00    +0.410 HD
ATOM     22  C   LIG    1        8.860  -2.103   5.644  0.00  0.00    +0.510 C 
ATOM     23  O   LIG    1        8.424  -1.325   4.822  0.00  0.00    -0.510 OA
ATOM     24  C   LIG    1       10.053  -2.961   5.311  0.00  0.00    +0.110 C 
ENDBRANCH  17  20
ENDBRANCH  10  13
BRANCH   1  30
ATOM     25  C   LIG    1       -1.837   0.244   1.389  0.00  0.00    +0.130 C 
ATOM     26  C   LIG    1       -2.718   0.622   0.196  0.00  0.00    +0.030 C 
ATOM     27  C   LIG    1       -3.489   1.904   0.522  0.00  0.00    +0.010 C 
ATOM     28  C   LIG    1       -2.493   3.016   0.863  0.00  0.00    +0.020 C 
ATOM     29  C   LIG    1       -1.618   2.569   2.036  0.00  0.00    +0.170 C 
ATOM     30  N   LIG    1       -0.902   1.340   1.674  0.00  0.00    -0.500 N 
BRANCH  25  32
ATOM     31  C   LIG    1       -2.022  -2.181   0.817  0.00  0.00    +0.020 C 
ATOM     32  C   LIG    1       -1.049  -1.026   1.059  0.00  0.00    +0.010 C 
ENDBRANCH  25  32
ENDBRANCH   1  30
TORSDOF 4
