REMARK  Name = ZINCpk00000y6vGs.0
REMARK                            x       y       z     vdW  Elec       q    Type
REMARK                         _______ _______ _______ _____ _____    ______ ____
ROOT
ATOM      1  C   LIG    1       -2.063  -0.284   7.657  0.00  0.00    +0.050 C 
ATOM      2  C   LIG    1       -0.830   0.078   6.787  0.00  0.00    +0.050 C 
ATOM      3  C   LIG    1       -1.411   0.116   5.358  0.00  0.00    +0.280 C 
ATOM      4  N   LIG    1       -2.643  -0.686   5.367  0.00  0.00    -0.610 N 
ATOM      5  C   LIG    1       -3.460  -0.883   4.313  0.00  0.00    +0.620 C 
ATOM      6  O   LIG    1       -4.454  -1.573   4.435  0.00  0.00    -0.540 OA
ATOM      7  C   LIG    1       -2.834  -1.245   6.718  0.00  0.00    +0.280 C 
ENDROOT
BRANCH   1  10
ATOM      8  C   LIG    1       -0.486  -2.703   9.947  0.00  0.00    +0.640 A 
ATOM      9  N   LIG    1       -0.869  -2.067   8.857  0.00  0.00    -0.590 NA
ATOM     10  C   LIG    1       -1.644  -0.987   8.922  0.00  0.00    +0.240 A 
ATOM     11  C   LIG    1       -2.054  -0.511  10.134  0.00  0.00    -0.190 A 
ATOM     12  C   LIG    1       -1.654  -1.186  11.300  0.00  0.00    +0.540 A 
ATOM     13  O   LIG    1       -2.007  -0.791  12.399  0.00  0.00    -0.540 OA
ATOM     14  N   LIG    1       -0.869  -2.278  11.181  0.00  0.00    -0.650 N 
ATOM     15  H   LIG    1       -0.578  -2.757  11.973  0.00  0.00    +0.410 HD
BRANCH   8  17
ATOM     16  C   LIG    1        0.730  -4.279   8.511  0.00  0.00    +0.330 C 
ATOM     17  N   LIG    1        0.311  -3.810   9.834  0.00  0.00    -0.590 N 
ATOM     18  C   LIG    1        0.745  -4.527  11.036  0.00  0.00    +0.300 C 
ENDBRANCH   8  17
ENDBRANCH   1  10
BRANCH   5  19
ATOM     19  C   LIG    1       -3.149  -0.262   3.014  0.00  0.00    -0.060 A 
ATOM     20  C   LIG    1       -3.883  -0.376   1.869  0.00  0.00    +0.230 A 
ATOM     21  N   LIG    1       -3.247   0.352   0.921  0.00  0.00    -0.560 N 
ATOM     22  H   LIG    1       -3.532   0.466   0.001  0.00  0.00    +0.420 HD
ATOM     23  C   LIG    1       -2.136   0.891   1.489  0.00  0.00    +0.240 A 
ATOM     24  N   LIG    1       -2.080   0.527   2.737  0.00  0.00    -0.450 NA
BRANCH  23  25
ATOM     25  C   LIG    1       -1.136   1.773   0.788  0.00  0.00    +0.060 C 
ATOM     26  C   LIG    1       -0.013   1.086   0.008  0.00  0.00    +0.060 C 
ATOM     27  C   LIG    1       -1.150   1.781  -0.743  0.00  0.00    +0.020 C 
ENDBRANCH  23  25
ENDBRANCH   5  19
TORSDOF 4
