REMARK  Name = ZINCvU00000008O2.0
REMARK                            x       y       z     vdW  Elec       q    Type
REMARK                         _______ _______ _______ _____ _____    ______ ____
ROOT
ATOM      1  C   LIG    1       -4.588   4.274   6.098  0.00  0.00    +0.160 A 
ATOM      2  N   LIG    1       -4.015   3.882   7.216  0.00  0.00    -0.280 NA
ATOM      3  N   LIG    1       -4.664   4.336   8.228  0.00  0.00    -0.250 NA
ATOM      4  C   LIG    1       -5.692   5.045   7.821  0.00  0.00    +0.230 A 
ATOM      5  N   LIG    1       -5.671   5.033   6.443  0.00  0.00    -0.410 N 
ENDROOT
BRANCH   5   6
ATOM      6  C   LIG    1       -6.574   5.664   5.577  0.00  0.00    +0.100 A 
ATOM      7  C   LIG    1       -7.709   4.991   5.144  0.00  0.00    +0.050 A 
ATOM      8  C   LIG    1       -8.599   5.617   4.293  0.00  0.00    +0.050 A 
ATOM      9  C   LIG    1       -8.357   6.909   3.865  0.00  0.00    +0.070 A 
ATOM     10  C   LIG    1       -7.225   7.581   4.290  0.00  0.00    -0.030 A 
ATOM     11 CL   LIG    1       -6.924   9.203   3.750  0.00  0.00    -0.040 Cl
ATOM     12  C   LIG    1       -6.333   6.961   5.145  0.00  0.00    -0.040 A 
ATOM     13  C   LIG    1       -5.099   7.693   5.608  0.00  0.00    +0.120 C 
ENDBRANCH   5   6
BRANCH   4  14
ATOM     14  C   LIG    1       -6.679   5.733   8.679  0.00  0.00    +0.030 A 
ATOM     15  C   LIG    1       -7.890   6.199   8.152  0.00  0.00    -0.020 A 
ATOM     16  C   LIG    1       -8.784   6.830   8.990  0.00  0.00    +0.270 A 
ATOM     17  N   LIG    1       -8.507   7.007  10.268  0.00  0.00    -0.470 NA
ATOM     18  C   LIG    1       -7.376   6.590  10.804  0.00  0.00    +0.280 A 
ATOM     19  C   LIG    1       -6.427   5.943  10.041  0.00  0.00    +0.020 A 
ENDBRANCH   4  14
BRANCH   1  20
ATOM     20  S   LIG    1       -4.054   3.897   4.462  0.00  0.00    +0.080 S 
BRANCH  20  21
ATOM     21  C   LIG    1       -2.597   2.889   4.832  0.00  0.00    +0.090 C 
BRANCH  21  22
ATOM     22  C   LIG    1       -1.957   2.440   3.543  0.00  0.00    +0.420 C 
ATOM     23  O   LIG    1       -2.438   2.769   2.480  0.00  0.00    -0.420 OA
BRANCH  22  29
ATOM     24  C   LIG    1       -0.150   1.183   2.377  0.00  0.00    +0.190 A 
ATOM     25  C   LIG    1        0.992   0.398   2.421  0.00  0.00    -0.080 A 
ATOM     26  C   LIG    1        1.532   0.028   3.637  0.00  0.00    +0.090 A 
ATOM     27  C   LIG    1        0.940   0.436   4.821  0.00  0.00    -0.040 A 
ATOM     28  C   LIG    1       -0.195   1.215   4.800  0.00  0.00    +0.110 A 
ATOM     29  C   LIG    1       -0.750   1.604   3.575  0.00  0.00    -0.200 A 
BRANCH  24  31
ATOM     30  C   LIG    1       -0.013   1.086   0.008  0.00  0.00    +0.250 C 
ATOM     31  O   LIG    1       -0.682   1.547   1.184  0.00  0.00    -0.290 OA
ENDBRANCH  24  31
ENDBRANCH  22  29
ENDBRANCH  21  22
ENDBRANCH  20  21
ENDBRANCH   1  20
TORSDOF 7
