REMARK  Name = ZINC550000000003.0
REMARK                            x       y       z     vdW  Elec       q    Type
REMARK                         _______ _______ _______ _____ _____    ______ ____
ROOT
ATOM      1  C   LIG    1       -0.013   1.086   0.008  0.00  0.00    -0.270 C 
ATOM      2  S   LIG    1       -0.862   1.671   1.500  0.00  0.00    +2.430 S 
ATOM      3  O   LIG    1       -2.147   1.066   1.557  0.00  0.00    -0.940 OA
ATOM      4  O   LIG    1       -0.758   3.087   1.554  0.00  0.00    -0.940 OA
ATOM      5  C   LIG    1        0.167   0.966   2.818  0.00  0.00    -0.270 C 
ENDROOT
TORSDOF 0
