REMARK  Name = ZINCqH00000078jC.0
REMARK                            x       y       z     vdW  Elec       q    Type
REMARK                         _______ _______ _______ _____ _____    ______ ____
ROOT
ATOM      1  C   LIG    1       -0.705   2.215  -1.155  0.00  0.00    +0.520 C 
ATOM      2  N   LIG    1       -0.538   1.434  -2.240  0.00  0.00    -0.680 N 
ATOM      3  H   LIG    1        0.023   0.644  -2.187  0.00  0.00    +0.410 HD
ATOM      4  O   LIG    1       -1.328   3.252  -1.244  0.00  0.00    -0.510 OA
ENDROOT
BRANCH   2   5
ATOM      5  C   LIG    1       -1.175   1.762  -3.445  0.00  0.00    +0.130 A 
ATOM      6  C   LIG    1       -2.423   2.371  -3.427  0.00  0.00    +0.030 A 
ATOM      7  C   LIG    1       -3.048   2.699  -4.613  0.00  0.00    -0.020 A 
ATOM      8  C   LIG    1       -2.433   2.411  -5.825  0.00  0.00    +0.090 A 
ATOM      9  C   LIG    1       -1.187   1.797  -5.842  0.00  0.00    -0.090 A 
ATOM     10  C   LIG    1       -0.520   1.484  -7.157  0.00  0.00    +0.100 C 
ATOM     11  C   LIG    1       -0.560   1.474  -4.656  0.00  0.00    +0.010 A 
BRANCH   8  12
ATOM     12  N   LIG    1       -3.069   2.738  -7.027  0.00  0.00    -0.470 N 
ATOM     13  C   LIG    1       -3.114   1.569  -7.941  0.00  0.00    +0.180 C 
ATOM     14  C   LIG    1       -4.256   1.930  -8.923  0.00  0.00    +0.030 C 
ATOM     15  C   LIG    1       -5.286   2.636  -8.011  0.00  0.00    +0.020 C 
ATOM     16  C   LIG    1       -4.478   3.123  -6.794  0.00  0.00    +0.170 C 
ENDBRANCH   8  12
ENDBRANCH   2   5
BRANCH   1  17
ATOM     17  C   LIG    1       -0.118   1.800   0.170  0.00  0.00    +0.130 C 
BRANCH  17  21
ATOM     18  C   LIG    1       -1.046   4.748   3.127  0.00  0.00    +0.170 A 
ATOM     19  C   LIG    1        0.165   4.794   2.453  0.00  0.00    -0.110 A 
ATOM     20  C   LIG    1        0.465   3.837   1.501  0.00  0.00    +0.100 A 
ATOM     21  C   LIG    1       -0.446   2.839   1.212  0.00  0.00    -0.140 A 
ATOM     22  C   LIG    1       -1.659   2.789   1.884  0.00  0.00    +0.180 A 
ATOM     23  C   LIG    1       -1.959   3.744   2.842  0.00  0.00    -0.100 A 
BRANCH  18  25
ATOM     24  C   LIG    1       -0.350   6.690   4.308  0.00  0.00    +0.250 C 
ATOM     25  O   LIG    1       -1.337   5.686   4.067  0.00  0.00    -0.320 OA
ENDBRANCH  18  25
BRANCH  22  26
ATOM     26  O   LIG    1       -2.552   1.804   1.603  0.00  0.00    -0.310 OA
ATOM     27  C   LIG    1       -3.780   1.814   2.333  0.00  0.00    +0.250 C 
ENDBRANCH  22  26
ENDBRANCH  17  21
ENDBRANCH   1  17
TORSDOF 6
