REMARK  Name = ZINCkj000005kiR8.0
REMARK                            x       y       z     vdW  Elec       q    Type
REMARK                         _______ _______ _______ _____ _____    ______ ____
ROOT
ATOM      1  C   LIG    1        1.481  -4.759  -0.162  0.00  0.00    +0.520 C 
ATOM      2  N   LIG    1        1.744  -6.081  -0.193  0.00  0.00    -0.600 N 
ATOM      3  H   LIG    1        1.019  -6.721  -0.125  0.00  0.00    +0.410 HD
ATOM      4  O   LIG    1        2.388  -3.958  -0.246  0.00  0.00    -0.490 OA
ENDROOT
BRANCH   1   5
ATOM      5  C   LIG    1        0.060  -4.277  -0.021  0.00  0.00    +0.140 C 
BRANCH   5  12
ATOM      6  C   LIG    1        0.016  -2.822  -2.516  0.00  0.00    +0.090 C 
ATOM      7  C   LIG    1        0.018  -2.074  -1.208  0.00  0.00    -0.050 A 
ATOM      8  C   LIG    1       -0.006  -0.693  -1.203  0.00  0.00    -0.020 A 
ATOM      9  C   LIG    1        0.002  -0.004   0.002  0.00  0.00    +0.120 A 
ATOM     10  C   LIG    1        0.023  -0.705   1.199  0.00  0.00    -0.020 A 
ATOM     11  C   LIG    1        0.042  -2.087   1.188  0.00  0.00    +0.050 A 
ATOM     12  C   LIG    1        0.040  -2.770  -0.013  0.00  0.00    -0.090 A 
BRANCH   9  13
ATOM     13  O   LIG    1       -0.016   1.355   0.009  0.00  0.00    -0.500 OA
ATOM     14  H   LIG    1        0.862   1.760   0.003  0.00  0.00    +0.400 HD
ENDBRANCH   9  13
ENDBRANCH   5  12
ENDBRANCH   1   5
BRANCH   2  15
ATOM     15  O   LIG    1        3.079  -6.534  -0.324  0.00  0.00    -0.130 OA
BRANCH  15  16
ATOM     16  C   LIG    1        3.211  -7.957  -0.343  0.00  0.00    +0.140 C 
ATOM     17  C   LIG    1        3.282  -8.483   1.093  0.00  0.00    +0.040 C 
ATOM     18  C   LIG    1        3.503  -9.997   1.065  0.00  0.00    +0.270 C 
ATOM     19  N   LIG    1        4.759 -10.300   0.369  0.00  0.00    -0.390 N 
ATOM     20  C   LIG    1        4.671  -9.862  -1.029  0.00  0.00    +0.270 C 
ATOM     21  C   LIG    1        5.005 -11.747   0.412  0.00  0.00    +0.330 C 
ATOM     22  H   LIG    1        5.519  -9.816   0.824  0.00  0.00    +0.430 HD
ATOM     23  C   LIG    1        4.495  -8.342  -1.082  0.00  0.00    +0.080 C 
ENDBRANCH  15  16
ENDBRANCH   2  15
TORSDOF 5
