REMARK  Name = ZINCb80000001CM9.0
REMARK                            x       y       z     vdW  Elec       q    Type
REMARK                         _______ _______ _______ _____ _____    ______ ____
ROOT
ATOM      1  C   LIG    1        0.966   5.131   1.214  0.00  0.00    -0.140 A 
ATOM      2  C   LIG    1        0.891   5.825   0.005  0.00  0.00    +0.050 A 
ATOM      3  C   LIG    1        0.945   5.134  -1.188  0.00  0.00    +0.000 A 
ATOM      4  C   LIG    1        1.077   3.757  -1.187  0.00  0.00    +0.060 A 
ATOM      5  C   LIG    1        1.147   3.062   0.008  0.00  0.00    -0.100 A 
ATOM      6  C   LIG    1        1.095   3.741   1.207  0.00  0.00    +0.100 A 
ENDROOT
BRANCH   1  10
ATOM      7  N   LIG    1        0.786   7.207   2.499  0.00  0.00    -0.850 N 
ATOM      8  H   LIG    1        0.749   7.689   3.341  0.00  0.00    +0.410 HD
ATOM      9  H   LIG    1        0.733   7.691   1.661  0.00  0.00    +0.400 HD
ATOM     10  C   LIG    1        0.910   5.865   2.496  0.00  0.00    +0.560 C 
ATOM     11  O   LIG    1        0.976   5.258   3.547  0.00  0.00    -0.540 OA
ENDBRANCH   1  10
BRANCH   5  12
ATOM     12  C   LIG    1        1.286   1.562  -0.002  0.00  0.00    +0.240 C 
BRANCH  12  13
ATOM     13  O   LIG    1       -0.011   0.963   0.007  0.00  0.00    -0.570 OA
ATOM     14  H   LIG    1        0.002  -0.004   0.002  0.00  0.00    +0.380 HD
ENDBRANCH  12  13
ENDBRANCH   5  12
TORSDOF 3
