REMARK  Name = ZINCrD000000CwEo.0
REMARK                            x       y       z     vdW  Elec       q    Type
REMARK                         _______ _______ _______ _____ _____    ______ ____
ROOT
ATOM      1  O   LIG    1        1.316   2.287  -4.490  0.00  0.00    -0.500 OA
ATOM      2  C   LIG    1        1.932   2.118  -3.460  0.00  0.00    +0.530 C 
ATOM      3  N   LIG    1        1.345   1.497  -2.417  0.00  0.00    -0.610 N 
ATOM      4  C   LIG    1        2.108   1.195  -1.199  0.00  0.00    +0.280 C 
ATOM      5  C   LIG    1        1.362   1.774   0.007  0.00  0.00    +0.050 C 
ATOM      6  C   LIG    1       -0.073   1.242   0.017  0.00  0.00    +0.120 C 
ATOM      7  C   LIG    1       -0.793   1.690  -1.257  0.00  0.00    +0.050 C 
ATOM      8  C   LIG    1       -0.071   1.110  -2.478  0.00  0.00    +0.300 C 
ENDROOT
BRANCH   2   9
ATOM      9  C   LIG    1        3.355   2.602  -3.344  0.00  0.00    +0.140 C 
ATOM     10  C   LIG    1        4.313   1.403  -3.369  0.00  0.00    +0.250 C 
ATOM     11  O   LIG    1        5.653   1.898  -3.271  0.00  0.00    -0.300 OA
ATOM     12  C   LIG    1        5.976   2.951  -4.070  0.00  0.00    +0.040 A 
ATOM     13  C   LIG    1        7.311   3.249  -4.297  0.00  0.00    +0.030 A 
ATOM     14  C   LIG    1        7.655   4.318  -5.104  0.00  0.00    +0.020 A 
ATOM     15  C   LIG    1        6.669   5.093  -5.686  0.00  0.00    +0.030 A 
ATOM     16  C   LIG    1        5.336   4.801  -5.465  0.00  0.00    +0.030 A 
ATOM     17  C   LIG    1        4.985   3.729  -4.658  0.00  0.00    +0.050 A 
ATOM     18  O   LIG    1        3.668   3.449  -4.455  0.00  0.00    -0.280 OA
ENDBRANCH   2   9
BRANCH   6  19
ATOM     19  C   LIG    1       -0.800   1.783   1.221  0.00  0.00    +0.250 A 
ATOM     20  N   LIG    1       -0.989   3.044   1.470  0.00  0.00    -0.470 NA
ATOM     21  C   LIG    1       -1.683   3.162   2.634  0.00  0.00    +0.020 A 
ATOM     22  C   LIG    1       -2.157   4.249   3.370  0.00  0.00    +0.080 A 
ATOM     23  C   LIG    1       -2.839   4.032   4.546  0.00  0.00    +0.020 A 
ATOM     24  C   LIG    1       -3.058   2.740   5.003  0.00  0.00    +0.050 A 
ATOM     25  C   LIG    1       -2.595   1.657   4.286  0.00  0.00    +0.050 A 
ATOM     26  C   LIG    1       -1.906   1.857   3.100  0.00  0.00    +0.010 A 
ATOM     27  O   LIG    1       -1.341   1.031   2.192  0.00  0.00    -0.210 OA
ENDBRANCH   6  19
TORSDOF 2
