REMARK  Name = ZINCpe000000YBXI.0
REMARK                            x       y       z     vdW  Elec       q    Type
REMARK                         _______ _______ _______ _____ _____    ______ ____
ROOT
ATOM      1  N   LIG    1        2.407   1.043  -0.015  0.00  0.00    -0.700 N 
ATOM      2  H   LIG    1        2.818   0.794  -0.858  0.00  0.00    +0.410 HD
ATOM      3  C   LIG    1        2.871   0.528   1.140  0.00  0.00    +0.520 C 
ATOM      4  O   LIG    1        2.356   0.840   2.193  0.00  0.00    -0.530 OA
ENDROOT
BRANCH   1   5
ATOM      5  C   LIG    1        1.280   1.980   0.001  0.00  0.00    +0.260 C 
BRANCH   5   9
ATOM      6  N   LIG    1       -1.191   1.867   0.018  0.00  0.00    -0.850 N 
ATOM      7  H   LIG    1       -1.204   2.837   0.023  0.00  0.00    +0.400 HD
ATOM      8  H   LIG    1       -2.024   1.370   0.019  0.00  0.00    +0.400 HD
ATOM      9  C   LIG    1       -0.014   1.209   0.009  0.00  0.00    +0.510 C 
ATOM     10  O   LIG    1        0.002  -0.004   0.002  0.00  0.00    -0.530 OA
ENDBRANCH   5   9
BRANCH   5  11
ATOM     11  C   LIG    1        1.337   2.867  -1.245  0.00  0.00    +0.110 C 
BRANCH  11  12
ATOM     12  C   LIG    1        2.573   3.728  -1.191  0.00  0.00    -0.090 A 
ATOM     13  C   LIG    1        2.522   4.974  -0.595  0.00  0.00    +0.010 A 
ATOM     14  C   LIG    1        3.656   5.762  -0.542  0.00  0.00    +0.000 A 
ATOM     15  C   LIG    1        4.840   5.309  -1.095  0.00  0.00    +0.000 A 
ATOM     16  C   LIG    1        4.889   4.064  -1.695  0.00  0.00    +0.000 A 
ATOM     17  C   LIG    1        3.756   3.274  -1.744  0.00  0.00    +0.010 A 
ENDBRANCH  11  12
ENDBRANCH   5  11
ENDBRANCH   1   5
BRANCH   3  18
ATOM     18  C   LIG    1        4.029  -0.436   1.124  0.00  0.00    +0.320 C 
BRANCH  18  19
ATOM     19  N   LIG    1        4.341  -0.848   2.495  0.00  0.00    -0.740 N 
ATOM     20  H   LIG    1        3.822  -0.498   3.236  0.00  0.00    +0.410 HD
ATOM     21  C   LIG    1        5.348  -1.713   2.726  0.00  0.00    +0.710 C 
ATOM     22  N   LIG    1        5.635  -2.092   3.987  0.00  0.00    -0.740 N 
ATOM     23  H   LIG    1        5.116  -1.743   4.729  0.00  0.00    +0.400 HD
ATOM     24  O   LIG    1        5.998  -2.151   1.797  0.00  0.00    -0.590 OA
BRANCH  22  25
ATOM     25  C   LIG    1        6.730  -3.033   4.238  0.00  0.00    +0.250 C 
ATOM     26  C   LIG    1        6.218  -4.466   4.080  0.00  0.00    +0.000 C 
ATOM     27  C   LIG    1        7.361  -5.448   4.342  0.00  0.00    +0.000 C 
ATOM     28  C   LIG    1        7.888  -5.249   5.765  0.00  0.00    +0.000 C 
ATOM     29  C   LIG    1        8.400  -3.816   5.923  0.00  0.00    +0.020 C 
ATOM     30  C   LIG    1        7.257  -2.834   5.661  0.00  0.00    +0.010 C 
ENDBRANCH  22  25
ENDBRANCH  18  19
ENDBRANCH   3  18
TORSDOF 7
