REMARK  Name = ZINCrH000004mKCU.0
REMARK                            x       y       z     vdW  Elec       q    Type
REMARK                         _______ _______ _______ _____ _____    ______ ____
ROOT
ATOM      1  C   LIG    1        1.279   2.114   0.013  0.00  0.00    +0.170 C 
ENDROOT
BRANCH   1   2
ATOM      2  C   LIG    1        0.984   3.592   0.026  0.00  0.00    -0.130 A 
ATOM      3  C   LIG    1        0.838   4.338   1.123  0.00  0.00    +0.000 A 
ATOM      4  C   LIG    1        0.571   5.675   0.887  0.00  0.00    +0.160 A 
ATOM      5  C   LIG    1        0.499   6.016  -0.400  0.00  0.00    -0.790 A 
ATOM      6  S   LIG    1        0.786   4.599  -1.402  0.00  0.00    +0.230 S 
BRANCH   5   7
ATOM      7  S   LIG    1        0.175   7.639  -1.005  0.00  0.00    +2.710 S 
ATOM      8  O   LIG    1       -0.513   8.324   0.033  0.00  0.00    -0.950 OA
ATOM      9  O   LIG    1       -0.352   7.481  -2.315  0.00  0.00    -0.950 OA
BRANCH   7  10
ATOM     10  N   LIG    1        1.637   8.399  -1.178  0.00  0.00    -0.990 NA
ATOM     11  C   LIG    1        2.213   9.174  -0.070  0.00  0.00    +0.290 C 
ATOM     12  C   LIG    1        3.636   8.660   0.197  0.00  0.00    +0.010 C 
ATOM     13  C   LIG    1        4.446   8.720  -1.101  0.00  0.00    +0.020 C 
ATOM     14  C   LIG    1        3.797   7.817  -2.152  0.00  0.00    +0.010 C 
ATOM     15  C   LIG    1        2.378   8.316  -2.443  0.00  0.00    +0.290 C 
ENDBRANCH   7  10
ENDBRANCH   5   7
ENDBRANCH   1   2
BRANCH   1  18
ATOM     16  N   LIG    1        0.002  -0.004   0.002  0.00  0.00    -0.660 N 
ATOM     17  H   LIG    1        0.844  -0.477  -0.084  0.00  0.00    +0.420 HD
ATOM     18  C   LIG    1       -0.016   1.343   0.013  0.00  0.00    +0.510 C 
ATOM     19  O   LIG    1       -1.074   1.936   0.017  0.00  0.00    -0.500 OA
BRANCH  16  26
ATOM     20  C   LIG    1       -1.284  -2.018  -0.388  0.00  0.00    +0.100 A 
ATOM     21  C   LIG    1       -2.471  -2.723  -0.273  0.00  0.00    -0.040 A 
ATOM     22  C   LIG    1       -3.565  -2.141   0.340  0.00  0.00    +0.050 A 
ATOM     23  C   LIG    1       -3.479  -0.855   0.841  0.00  0.00    -0.050 A 
ATOM     24  C   LIG    1       -2.295  -0.146   0.734  0.00  0.00    +0.070 A 
ATOM     25 CL   LIG    1       -4.856  -0.130   1.610  0.00  0.00    -0.060 Cl
ATOM     26  C   LIG    1       -1.196  -0.722   0.115  0.00  0.00    +0.130 A 
BRANCH  20  28
ATOM     27  C   LIG    1       -0.370  -3.921  -1.483  0.00  0.00    +0.250 C 
ATOM     28  O   LIG    1       -0.207  -2.589  -0.991  0.00  0.00    -0.320 OA
ENDBRANCH  20  28
ENDBRANCH  16  26
ENDBRANCH   1  18
TORSDOF 6
