REMARK  Name = ZINCrD000000AK5g.0
REMARK                            x       y       z     vdW  Elec       q    Type
REMARK                         _______ _______ _______ _____ _____    ______ ____
ROOT
ATOM      1  O   LIG    1        5.587   2.766   2.086  0.00  0.00    -0.490 OA
ATOM      2  C   LIG    1        6.625   2.218   1.781  0.00  0.00    +0.520 C 
ATOM      3  N   LIG    1        7.513   1.877   2.736  0.00  0.00    -0.710 N 
ATOM      4  H   LIG    1        8.377   1.513   2.487  0.00  0.00    +0.400 HD
ENDROOT
BRANCH   2   5
ATOM      5  C   LIG    1        6.923   1.919   0.335  0.00  0.00    -0.010 C 
ATOM      6  C   LIG    1        6.707   0.420   0.024  0.00  0.00    +0.080 C 
ATOM      7  C   LIG    1        5.281   0.345  -0.475  0.00  0.00    +0.520 C 
ATOM      8  N   LIG    1        4.843   1.572  -0.808  0.00  0.00    -0.520 N 
ATOM      9  O   LIG    1        4.627  -0.673  -0.561  0.00  0.00    -0.510 OA
ATOM     10  C   LIG    1        5.884   2.585  -0.599  0.00  0.00    +0.310 C 
BRANCH   8  11
ATOM     11  C   LIG    1        3.553   1.849  -1.299  0.00  0.00    +0.020 A 
ATOM     12  C   LIG    1        2.546   0.951  -1.453  0.00  0.00    +0.230 A 
ATOM     13  N   LIG    1        1.475   1.619  -1.952  0.00  0.00    -0.470 N 
ATOM     14  H   LIG    1        0.610   1.233  -2.165  0.00  0.00    +0.440 HD
ATOM     15  N   LIG    1        1.839   2.962  -2.108  0.00  0.00    -0.270 NA
ATOM     16  C   LIG    1        3.080   3.100  -1.718  0.00  0.00    +0.220 A 
ENDBRANCH   8  11
ENDBRANCH   2   5
BRANCH   3  17
ATOM     17  C   LIG    1        7.173   2.056   4.150  0.00  0.00    +0.160 C 
ATOM     18  C   LIG    1        6.941   3.523   4.547  0.00  0.00    +0.030 C 
ATOM     19  C   LIG    1        8.450   3.597   4.846  0.00  0.00    +0.010 C 
ATOM     20  C   LIG    1        8.398   2.078   5.080  0.00  0.00    +0.030 C 
BRANCH  17  21
ATOM     21  C   LIG    1        6.064   1.111   4.618  0.00  0.00    +0.090 C 
BRANCH  21  22
ATOM     22  C   LIG    1        4.782   1.446   3.900  0.00  0.00    -0.040 A 
ATOM     23  C   LIG    1        4.110   2.616   4.197  0.00  0.00    +0.060 A 
ATOM     24  C   LIG    1        2.937   2.927   3.535  0.00  0.00    +0.040 A 
ATOM     25  C   LIG    1        2.429   2.061   2.583  0.00  0.00    -0.020 A 
ATOM     26  C   LIG    1        3.099   0.887   2.289  0.00  0.00    +0.040 A 
ATOM     27 CL   LIG    1        0.953   2.448   1.756  0.00  0.00    -0.070 Cl
ATOM     28  C   LIG    1        4.276   0.579   2.948  0.00  0.00    -0.030 A 
ATOM     29 CL   LIG    1        5.117  -0.894   2.581  0.00  0.00    -0.060 Cl
ENDBRANCH  21  22
ENDBRANCH  17  21
ENDBRANCH   3  17
TORSDOF 5
