REMARK  Name = ZINCvU0000000A0W.0
REMARK                            x       y       z     vdW  Elec       q    Type
REMARK                         _______ _______ _______ _____ _____    ______ ____
ROOT
ATOM      1  O   LIG    1        4.100   3.074  -5.030  0.00  0.00    -0.340 OA
ENDROOT
BRANCH   1   2
ATOM      2  C   LIG    1        4.719   2.333  -4.090  0.00  0.00    +0.560 C 
ATOM      3  O   LIG    1        5.841   1.910  -4.291  0.00  0.00    -0.480 OA
BRANCH   2   4
ATOM      4  C   LIG    1        4.037   2.034  -2.821  0.00  0.00    -0.250 A 
ATOM      5  C   LIG    1        4.084   2.793  -1.664  0.00  0.00    +0.180 A 
ATOM      6  N   LIG    1        3.327   2.170  -0.746  0.00  0.00    -0.340 N 
ATOM      7  N   LIG    1        2.800   1.008  -1.319  0.00  0.00    -0.260 NA
ATOM      8 CL   LIG    1        4.960   4.275  -1.442  0.00  0.00    +0.020 Cl
ATOM      9  C   LIG    1        3.210   0.919  -2.553  0.00  0.00    +0.130 A 
ATOM     10  C   LIG    1        2.867  -0.182  -3.523  0.00  0.00    +0.180 C 
BRANCH   6  11
ATOM     11  C   LIG    1        3.097   2.629   0.626  0.00  0.00    +0.400 C 
BRANCH  11  12
ATOM     12  C   LIG    1        1.884   3.522   0.661  0.00  0.00    -0.130 A 
ATOM     13  C   LIG    1        0.631   2.979   0.878  0.00  0.00    +0.040 A 
ATOM     14  C   LIG    1       -0.482   3.798   0.904  0.00  0.00    +0.010 A 
ATOM     15  C   LIG    1       -0.342   5.161   0.723  0.00  0.00    +0.030 A 
ATOM     16  C   LIG    1        0.911   5.704   0.506  0.00  0.00    +0.010 A 
ATOM     17  C   LIG    1        2.023   4.885   0.474  0.00  0.00    +0.020 A 
ENDBRANCH  11  12
ENDBRANCH   6  11
ENDBRANCH   2   4
ENDBRANCH   1   2
BRANCH   1  18
ATOM     18  C   LIG    1        4.833   3.328  -6.257  0.00  0.00    +0.340 C 
BRANCH  18  21
ATOM     19  C   LIG    1        3.584   5.270  -9.078  0.00  0.00    +0.300 A 
ATOM     20  N   LIG    1        4.403   4.551  -8.376  0.00  0.00    -0.530 NA
ATOM     21  C   LIG    1        3.988   4.166  -7.182  0.00  0.00    +0.100 A 
ATOM     22  C   LIG    1        2.760   4.575  -6.864  0.00  0.00    -0.090 A 
ATOM     23  S   LIG    1        2.133   5.523  -8.210  0.00  0.00    +0.140 S 
BRANCH  19  24
ATOM     24  N   LIG    1        3.846   5.763 -10.348  0.00  0.00    -0.630 N 
ATOM     25  H   LIG    1        4.728   5.655 -10.737  0.00  0.00    +0.420 HD
BRANCH  24  30
ATOM     26  C   LIG    1       -0.236   8.408 -13.264  0.00  0.00    +0.090 C 
ATOM     27  C   LIG    1        0.849   7.705 -12.489  0.00  0.00    -0.100 A 
ATOM     28  C   LIG    1        2.159   8.138 -12.588  0.00  0.00    +0.040 A 
ATOM     29  C   LIG    1        3.155   7.496 -11.879  0.00  0.00    -0.010 A 
ATOM     30  C   LIG    1        2.841   6.414 -11.066  0.00  0.00    +0.150 A 
ATOM     31  C   LIG    1        1.525   5.979 -10.973  0.00  0.00    -0.030 A 
ATOM     32  C   LIG    1        0.532   6.629 -11.680  0.00  0.00    +0.050 A 
ENDBRANCH  24  30
ENDBRANCH  19  24
ENDBRANCH  18  21
ENDBRANCH   1  18
TORSDOF 8
