REMARK  Name = ZINCtj0000000Deh.1
REMARK                            x       y       z     vdW  Elec       q    Type
REMARK                         _______ _______ _______ _____ _____    ______ ____
ROOT
ATOM      1  N   LIG    1        7.196  -2.681   1.122  0.00  0.00    -0.490 N 
ATOM      2  C   LIG    1        5.894  -2.343   1.227  0.00  0.00    +0.490 C 
ATOM      3  O   LIG    1        5.529  -1.604   2.118  0.00  0.00    -0.520 OA
ENDROOT
BRANCH   1   9
ATOM      4  N   LIG    1        9.318  -0.203   2.812  0.00  0.00    -0.540 N 
ATOM      5  C   LIG    1        9.994  -0.993   3.666  0.00  0.00    +0.710 A 
ATOM      6  N   LIG    1        9.777  -2.320   3.708  0.00  0.00    -0.660 N 
ATOM      7  H   LIG    1       10.276  -2.868   4.334  0.00  0.00    +0.440 HD
ATOM      8  C   LIG    1        8.872  -2.896   2.893  0.00  0.00    +0.570 A 
ATOM      9  C   LIG    1        8.148  -2.099   1.986  0.00  0.00    -0.180 A 
ATOM     10  O   LIG    1        8.683  -4.100   2.939  0.00  0.00    -0.520 OA
ATOM     11  O   LIG    1       10.815  -0.499   4.414  0.00  0.00    -0.510 OA
ATOM     12  C   LIG    1        8.389  -0.741   1.953  0.00  0.00    +0.520 A 
BRANCH  12  13
ATOM     13  N   LIG    1        7.704   0.065   1.076  0.00  0.00    -0.820 N 
ATOM     14  H   LIG    1        7.836   1.026   1.096  0.00  0.00    +0.410 HD
ATOM     15  H   LIG    1        7.088  -0.326   0.437  0.00  0.00    +0.410 HD
ENDBRANCH  12  13
BRANCH   4  16
ATOM     16  C   LIG    1        9.579   1.239   2.793  0.00  0.00    +0.310 C 
BRANCH  16  17
ATOM     17  C   LIG    1       10.695   1.542   1.791  0.00  0.00    +0.010 C 
BRANCH  17  19
ATOM     18  C   LIG    1       12.084   3.350   0.769  0.00  0.00    +0.020 C 
ATOM     19  C   LIG    1       10.968   3.047   1.771  0.00  0.00    +0.020 C 
ENDBRANCH  17  19
ENDBRANCH  16  17
ENDBRANCH   4  16
ENDBRANCH   1   9
BRANCH   1  20
ATOM     20  C   LIG    1        7.622  -3.651   0.110  0.00  0.00    +0.290 C 
ATOM     21  C   LIG    1        7.993  -2.914  -1.179  0.00  0.00    +0.020 C 
ENDBRANCH   1  20
BRANCH   2  22
ATOM     22  C   LIG    1        4.893  -2.883   0.239  0.00  0.00    +0.300 C 
BRANCH  22  23
ATOM     23  N   LIG    1        3.555  -2.372   0.567  0.00  0.00    -0.370 N 
ATOM     24  C   LIG    1        2.561  -2.982  -0.329  0.00  0.00    +0.280 C 
ATOM     25  C   LIG    1        1.164  -2.684   0.217  0.00  0.00    +0.130 C 
ATOM     26  C   LIG    1        1.027  -1.207   0.487  0.00  0.00    -0.090 A 
ATOM     27  C   LIG    1       -0.242  -0.677   0.654  0.00  0.00    +0.040 A 
ATOM     28  C   LIG    1       -0.406   0.670   0.910  0.00  0.00    +0.050 A 
ATOM     29  C   LIG    1        0.701   1.493   0.998  0.00  0.00    +0.040 A 
ATOM     30  C   LIG    1        1.965   0.966   0.830  0.00  0.00    +0.040 A 
ATOM     31  C   LIG    1        2.132  -0.386   0.572  0.00  0.00    -0.130 A 
ATOM     32  C   LIG    1        3.529  -0.917   0.389  0.00  0.00    +0.310 C 
ATOM     33  H   LIG    1        3.332  -2.598   1.525  0.00  0.00    +0.430 HD
ENDBRANCH  22  23
ENDBRANCH   2  22
TORSDOF 8
