REMARK  Name = ZINCtj0000000Deh.2
REMARK                            x       y       z     vdW  Elec       q    Type
REMARK                         _______ _______ _______ _____ _____    ______ ____
ROOT
ATOM      1  N   LIG    1        1.032   7.458  -1.205  0.00  0.00    -0.490 N 
ATOM      2  C   LIG    1        1.057   6.115  -1.072  0.00  0.00    +0.490 C 
ATOM      3  O   LIG    1        0.251   5.431  -1.667  0.00  0.00    -0.520 OA
ENDROOT
BRANCH   1   9
ATOM      4  N   LIG    1       -0.662   8.415  -4.322  0.00  0.00    -0.540 N 
ATOM      5  C   LIG    1       -1.617   9.235  -3.846  0.00  0.00    +0.710 A 
ATOM      6  N   LIG    1       -1.726   9.487  -2.529  0.00  0.00    -0.660 N 
ATOM      7  H   LIG    1       -2.423  10.082  -2.211  0.00  0.00    +0.440 HD
ATOM      8  C   LIG    1       -0.882   8.918  -1.647  0.00  0.00    +0.570 A 
ATOM      9  C   LIG    1        0.133   8.060  -2.110  0.00  0.00    -0.180 A 
ATOM     10  O   LIG    1       -0.993   9.150  -0.454  0.00  0.00    -0.520 OA
ATOM     11  O   LIG    1       -2.395   9.758  -4.620  0.00  0.00    -0.510 OA
ATOM     12  C   LIG    1        0.229   7.813  -3.464  0.00  0.00    +0.520 A 
BRANCH  12  13
ATOM     13  N   LIG    1        1.205   6.976  -3.951  0.00  0.00    -0.820 N 
ATOM     14  H   LIG    1        1.201   6.719  -4.886  0.00  0.00    +0.410 HD
ATOM     15  H   LIG    1        1.897   6.642  -3.359  0.00  0.00    +0.420 HD
ENDBRANCH  12  13
BRANCH   4  16
ATOM     16  C   LIG    1       -0.571   8.162  -5.762  0.00  0.00    +0.310 C 
BRANCH  16  17
ATOM     17  C   LIG    1       -1.433   6.951  -6.122  0.00  0.00    +0.010 C 
BRANCH  17  19
ATOM     18  C   LIG    1       -2.201   5.476  -7.987  0.00  0.00    +0.020 C 
ATOM     19  C   LIG    1       -1.338   6.687  -7.627  0.00  0.00    +0.020 C 
ENDBRANCH  17  19
ENDBRANCH  16  17
ENDBRANCH   4  16
ENDBRANCH   1   9
BRANCH   1  20
ATOM     20  C   LIG    1        1.939   8.290  -0.410  0.00  0.00    +0.290 C 
ATOM     21  C   LIG    1        3.222   8.547  -1.202  0.00  0.00    +0.020 C 
ENDBRANCH   1  20
BRANCH   2  22
ATOM     22  C   LIG    1        2.087   5.465  -0.183  0.00  0.00    +0.290 C 
BRANCH  22  23
ATOM     23  N   LIG    1        1.905   4.008  -0.208  0.00  0.00    -0.370 N 
ATOM     24  C   LIG    1        2.981   3.365   0.561  0.00  0.00    +0.280 C 
ATOM     25  C   LIG    1        2.958   1.863   0.271  0.00  0.00    +0.130 C 
ATOM     26  C   LIG    1        1.562   1.328   0.465  0.00  0.00    -0.100 A 
ATOM     27  C   LIG    1        1.387  -0.041   0.590  0.00  0.00    +0.030 A 
ATOM     28  C   LIG    1        0.123  -0.569   0.766  0.00  0.00    +0.050 A 
ATOM     29  C   LIG    1       -0.972   0.273   0.817  0.00  0.00    +0.040 A 
ATOM     30  C   LIG    1       -0.798   1.637   0.694  0.00  0.00    +0.040 A 
ATOM     31  C   LIG    1        0.470   2.169   0.519  0.00  0.00    -0.130 A 
ATOM     32  C   LIG    1        0.615   3.663   0.395  0.00  0.00    +0.330 C 
ATOM     33  H   LIG    1        1.930   3.681  -1.162  0.00  0.00    +0.430 HD
ENDBRANCH  22  23
ENDBRANCH   2  22
TORSDOF 8
