REMARK  Name = ZINCpe00000VVGKm.0
REMARK                            x       y       z     vdW  Elec       q    Type
REMARK                         _______ _______ _______ _____ _____    ______ ____
ROOT
ATOM      1  N   LIG    1       -0.680   2.779   1.887  0.00  0.00    -0.560 NA
ATOM      2  C   LIG    1        0.104   2.523   3.094  0.00  0.00    +0.180 C 
ATOM      3  C   LIG    1       -0.434   3.372   4.224  0.00  0.00    +0.030 C 
ATOM      4  C   LIG    1       -1.486   2.575   5.013  0.00  0.00    +0.250 C 
ATOM      5  N   LIG    1       -2.346   1.783   4.112  0.00  0.00    -0.600 N 
ATOM      6  C   LIG    1       -2.854   2.308   2.861  0.00  0.00    +0.290 C 
ATOM      7  C   LIG    1       -2.672   0.525   4.468  0.00  0.00    +0.530 C 
ATOM      8  O   LIG    1       -3.450  -0.114   3.791  0.00  0.00    -0.530 OA
ATOM      9  C   LIG    1       -1.851   2.001   1.722  0.00  0.00    +0.170 C 
ENDROOT
BRANCH   7  10
ATOM     10  C   LIG    1       -2.071  -0.089   5.705  0.00  0.00    -0.140 C 
ATOM     11  C   LIG    1       -2.840  -1.316   6.222  0.00  0.00    +0.080 C 
ATOM     12  C   LIG    1       -2.590  -0.775   7.641  0.00  0.00    +0.030 C 
ATOM     13  C   LIG    1       -2.481   0.621   7.006  0.00  0.00    +0.070 C 
BRANCH  10  14
ATOM     14  C   LIG    1       -0.586  -0.315   5.584  0.00  0.00    +0.550 C 
ATOM     15  N   LIG    1       -0.094  -1.023   4.548  0.00  0.00    -0.730 N 
ATOM     16  H   LIG    1       -0.700  -1.447   3.920  0.00  0.00    +0.400 HD
ATOM     17  C   LIG    1        1.354  -1.151   4.369  0.00  0.00    +0.290 C 
ATOM     18  O   LIG    1        0.167   0.140   6.419  0.00  0.00    -0.520 OA
ENDBRANCH  10  14
ENDBRANCH   7  10
BRANCH   1  19
ATOM     19  C   LIG    1        0.165   2.719   0.687  0.00  0.00    +0.260 C 
BRANCH  19  22
ATOM     20  N   LIG    1       -1.253   4.886  -1.881  0.00  0.00    -0.370 N 
ATOM     21  C   LIG    1       -0.471   4.692  -0.799  0.00  0.00    +0.250 A 
ATOM     22  C   LIG    1       -0.548   3.383  -0.463  0.00  0.00    -0.240 A 
ATOM     23  C   LIG    1       -1.402   2.755  -1.375  0.00  0.00    +0.230 A 
ATOM     24  N   LIG    1       -1.830   3.655  -2.223  0.00  0.00    -0.290 NA
BRANCH  20  26
ATOM     25  C   LIG    1       -1.123   5.989  -4.060  0.00  0.00    +0.040 C 
ATOM     26  C   LIG    1       -1.462   6.158  -2.578  0.00  0.00    +0.310 C 
ENDBRANCH  20  26
ENDBRANCH  19  22
ENDBRANCH   1  19
TORSDOF 5
