REMARK  Name = ZINCc70000006lns.0
REMARK                            x       y       z     vdW  Elec       q    Type
REMARK                         _______ _______ _______ _____ _____    ______ ____
ROOT
ATOM      1  C   LIG    1       -0.474   3.001   1.423  0.00  0.00    +0.200 C 
ATOM      2  N   LIG    1       -0.716   1.568   1.210  0.00  0.00    -0.530 NA
ATOM      3  C   LIG    1       -2.156   1.283   1.127  0.00  0.00    +0.240 C 
ATOM      4  C   LIG    1       -2.806   2.191   0.076  0.00  0.00    +0.290 C 
ATOM      5  N   LIG    1       -2.022   2.095  -1.165  0.00  0.00    -0.280 N 
ATOM      6  N   LIG    1       -2.384   2.446  -2.342  0.00  0.00    -0.220 NA
ATOM      7  C   LIG    1       -1.415   2.204  -3.208  0.00  0.00    -0.080 A 
ATOM      8  C   LIG    1       -0.335   1.641  -2.478  0.00  0.00    -0.010 A 
ATOM      9  C   LIG    1       -0.755   1.592  -1.203  0.00  0.00    -0.030 A 
ATOM     10  C   LIG    1       -0.013   1.086   0.008  0.00  0.00    +0.330 C 
ENDROOT
BRANCH   7  11
ATOM     11  C   LIG    1       -1.448   2.468  -4.654  0.00  0.00    +0.550 C 
ATOM     12  O   LIG    1       -2.438   2.955  -5.158  0.00  0.00    -0.450 OA
ENDBRANCH   7  11
TORSDOF 1
