REMARK  Name = ZINCrH00000No4PZ.0
REMARK                            x       y       z     vdW  Elec       q    Type
REMARK                         _______ _______ _______ _____ _____    ______ ____
ROOT
ATOM      1  C   LIG    1       -5.310  -5.755   1.381  0.00  0.00    +0.390 C 
ATOM      2  O   LIG    1       -6.186  -6.539   1.075  0.00  0.00    -0.450 OA
ENDROOT
BRANCH   1   3
ATOM      3  C   LIG    1       -4.687  -4.978   0.393  0.00  0.00    -0.230 C 
ATOM      4  C   LIG    1       -5.125  -5.035  -0.889  0.00  0.00    +0.270 C 
ATOM      5  N   LIG    1       -4.669  -4.293  -1.934  0.00  0.00    -0.530 N 
ATOM      6  C   LIG    1       -5.332  -4.600  -3.120  0.00  0.00    +0.140 A 
ATOM      7  C   LIG    1       -5.178  -4.086  -4.407  0.00  0.00    -0.020 A 
ATOM      8  C   LIG    1       -5.968  -4.551  -5.438  0.00  0.00    +0.040 A 
ATOM      9  C   LIG    1       -6.918  -5.528  -5.204  0.00  0.00    -0.010 A 
ATOM     10  C   LIG    1       -7.078  -6.043  -3.929  0.00  0.00    +0.070 A 
ATOM     11  C   LIG    1       -6.291  -5.581  -2.898  0.00  0.00    -0.130 A 
ATOM     12  C   LIG    1       -3.604  -3.292  -1.825  0.00  0.00    +0.320 C 
ATOM     13  C   LIG    1       -6.219  -5.930  -1.429  0.00  0.00    +0.000 C 
ATOM     14  C   LIG    1       -7.551  -5.624  -0.741  0.00  0.00    +0.070 C 
ATOM     15  C   LIG    1       -5.846  -7.402  -1.246  0.00  0.00    +0.090 C 
ENDBRANCH   1   3
BRANCH   1  17
ATOM     16  C   LIG    1       -3.544  -6.308   3.031  0.00  0.00    +0.060 C 
ATOM     17  C   LIG    1       -4.892  -5.616   2.822  0.00  0.00    +0.160 C 
BRANCH  17  18
ATOM     18  O   LIG    1       -5.891  -6.233   3.677  0.00  0.00    -0.330 OA
BRANCH  18  19
ATOM     19  C   LIG    1       -6.046  -5.715   4.905  0.00  0.00    +0.460 C 
ATOM     20  O   LIG    1       -5.370  -4.777   5.255  0.00  0.00    -0.510 OA
BRANCH  19  21
ATOM     21  C   LIG    1       -7.064  -6.304   5.848  0.00  0.00    +0.110 C 
BRANCH  21  22
ATOM     22  C   LIG    1       -7.038  -5.535   7.170  0.00  0.00    +0.050 C 
BRANCH  22  23
ATOM     23  C   LIG    1       -8.071  -6.132   8.128  0.00  0.00    +0.150 C 
ATOM     24  C   LIG    1       -7.968  -5.447   9.505  0.00  0.00    +0.010 C 
ATOM     25  C   LIG    1       -9.377  -4.852   9.739  0.00  0.00    +0.000 C 
ATOM     26  C   LIG    1      -10.251  -5.697   8.777  0.00  0.00    +0.200 C 
ATOM     27  O   LIG    1       -9.398  -5.891   7.629  0.00  0.00    -0.370 OA
ENDBRANCH  22  23
ENDBRANCH  21  22
ENDBRANCH  19  21
ENDBRANCH  18  19
ENDBRANCH  17  18
ENDBRANCH   1  17
TORSDOF 7
