REMARK  Name = ZINCrD000003APUg.0
REMARK                            x       y       z     vdW  Elec       q    Type
REMARK                         _______ _______ _______ _____ _____    ______ ____
ROOT
ATOM      1  C   LIG    1       -7.341   2.503   0.172  0.00  0.00    +0.040 C 
ATOM      2  C   LIG    1       -5.901   3.003   0.043  0.00  0.00    +0.230 C 
ENDROOT
BRANCH   2   3
ATOM      3  N   LIG    1       -5.583   3.874   1.178  0.00  0.00    -0.720 N 
ATOM      4  H   LIG    1       -5.141   3.509   1.960  0.00  0.00    +0.400 HD
ATOM      5  C   LIG    1       -5.904   5.182   1.135  0.00  0.00    +0.580 C 
ATOM      6  O   LIG    1       -6.459   5.640   0.153  0.00  0.00    -0.530 OA
BRANCH   5   7
ATOM      7  C   LIG    1       -5.586   6.054   2.272  0.00  0.00    -0.130 A 
ATOM      8  C   LIG    1       -4.982   5.613   3.383  0.00  0.00    -0.020 A 
ATOM      9  S   LIG    1       -4.742   6.854   4.520  0.00  0.00    +0.180 S 
ATOM     10  C   LIG    1       -5.492   8.068   3.493  0.00  0.00    -0.160 A 
ATOM     11  C   LIG    1       -5.709   9.432   3.708  0.00  0.00    +0.050 A 
ATOM     12  C   LIG    1       -6.326  10.197   2.746  0.00  0.00    +0.030 A 
ATOM     13  C   LIG    1       -6.738   9.619   1.554  0.00  0.00    +0.010 A 
ATOM     14  C   LIG    1       -6.534   8.281   1.324  0.00  0.00    +0.070 A 
ATOM     15  C   LIG    1       -5.904   7.483   2.296  0.00  0.00    -0.040 A 
ENDBRANCH   5   7
ENDBRANCH   2   3
BRANCH   2  16
ATOM     16  C   LIG    1       -4.945   1.809   0.033  0.00  0.00    +0.280 C 
BRANCH  16  17
ATOM     17  N   LIG    1       -3.562   2.291   0.029  0.00  0.00    -0.720 N 
ATOM     18  H   LIG    1       -3.380   3.244   0.034  0.00  0.00    +0.410 HD
ATOM     19  C   LIG    1       -2.541   1.410   0.020  0.00  0.00    +0.590 C 
ATOM     20  O   LIG    1       -2.769   0.216   0.015  0.00  0.00    -0.540 OA
BRANCH  19  21
ATOM     21  C   LIG    1       -1.148   1.895   0.017  0.00  0.00    +0.060 A 
ATOM     22  N   LIG    1       -0.786   3.175   0.025  0.00  0.00    -0.470 NA
ATOM     23  C   LIG    1        0.543   3.278   0.014  0.00  0.00    +0.020 A 
ATOM     24  C   LIG    1        1.446   4.351   0.011  0.00  0.00    +0.200 A 
ATOM     25  C   LIG    1        2.805   4.080  -0.004  0.00  0.00    -0.050 A 
ATOM     26  C   LIG    1        3.272   2.788  -0.014  0.00  0.00    +0.330 A 
ATOM     27  N   LIG    1        2.445   1.732  -0.011  0.00  0.00    -0.480 N 
ATOM     28  H   LIG    1        2.811   0.834  -0.019  0.00  0.00    +0.420 HD
ATOM     29  C   LIG    1        1.085   1.915   0.002  0.00  0.00    +0.020 A 
ATOM     30  C   LIG    1       -0.013   1.076   0.008  0.00  0.00    -0.070 A 
ENDBRANCH  19  21
ENDBRANCH  16  17
ENDBRANCH   2  16
TORSDOF 5
