REMARK  Name = ZINCrH000004spoS.0
REMARK                            x       y       z     vdW  Elec       q    Type
REMARK                         _______ _______ _______ _____ _____    ______ ____
ROOT
ATOM      1  C   LIG    1        4.002  -1.724  -0.541  0.00  0.00    +0.200 C 
ATOM      2  C   LIG    1        3.592  -0.285  -0.364  0.00  0.00    +0.280 A 
ATOM      3  N   LIG    1        4.394   0.745  -0.368  0.00  0.00    -0.480 NA
ATOM      4  C   LIG    1        3.690   1.871  -0.183  0.00  0.00    +0.210 A 
ATOM      5  N   LIG    1        2.416   1.558  -0.064  0.00  0.00    -0.250 NA
ATOM      6  N   LIG    1        2.332   0.161  -0.173  0.00  0.00    -0.330 N 
ENDROOT
BRANCH   6   7
ATOM      7  C   LIG    1        1.169  -0.618  -0.104  0.00  0.00    +0.130 A 
ATOM      8  C   LIG    1        0.908  -1.568  -1.082  0.00  0.00    +0.020 A 
ATOM      9  C   LIG    1       -0.239  -2.334  -1.010  0.00  0.00    +0.030 A 
ATOM     10  C   LIG    1       -1.128  -2.154   0.033  0.00  0.00    +0.030 A 
ATOM     11  C   LIG    1       -0.868  -1.213   1.012  0.00  0.00    +0.030 A 
ATOM     12  C   LIG    1        0.274  -0.440   0.944  0.00  0.00    -0.050 A 
BRANCH  12  13
ATOM     13  C   LIG    1        0.553   0.591   2.007  0.00  0.00    +0.030 C 
ATOM     14  C   LIG    1        0.518  -0.075   3.384  0.00  0.00    +0.030 C 
ATOM     15  C   LIG    1       -0.511   1.689   1.945  0.00  0.00    +0.030 C 
ENDBRANCH  12  13
ENDBRANCH   6   7
BRANCH   4  16
ATOM     16  C   LIG    1        4.251   3.240  -0.127  0.00  0.00    +0.580 C 
ATOM     17  O   LIG    1        3.513   4.195   0.046  0.00  0.00    -0.580 OA
BRANCH  16  18
ATOM     18  N   LIG    1        5.567   3.430  -0.268  0.00  0.00    -0.610 NA
ATOM     19  C   LIG    1        6.071   4.660  -0.218  0.00  0.00    +0.480 A 
ATOM     20  C   LIG    1        7.431   5.013  -0.349  0.00  0.00    -0.070 A 
ATOM     21  C   LIG    1        7.531   6.356  -0.242  0.00  0.00    +0.220 A 
ATOM     22  N   LIG    1        6.287   6.878  -0.046  0.00  0.00    -0.490 N 
ATOM     23  H   LIG    1        6.076   7.819   0.062  0.00  0.00    +0.440 HD
ATOM     24  N   LIG    1        5.364   5.824  -0.035  0.00  0.00    -0.480 N 
ATOM     25  H   LIG    1        4.404   5.901   0.082  0.00  0.00    +0.460 HD
BRANCH  21  26
ATOM     26  C   LIG    1        8.811   7.148  -0.324  0.00  0.00    +0.040 C 
ATOM     27  C   LIG    1        8.743   8.636   0.022  0.00  0.00    +0.030 C 
ATOM     28  C   LIG    1        8.923   8.196  -1.432  0.00  0.00    -0.010 C 
ATOM     29  C   LIG    1        7.727   8.361  -2.373  0.00  0.00    +0.060 C 
ENDBRANCH  21  26
ENDBRANCH  16  18
ENDBRANCH   4  16
TORSDOF 5
