REMARK  Name = ZINCvU00000008ac.0
REMARK                            x       y       z     vdW  Elec       q    Type
REMARK                         _______ _______ _______ _____ _____    ______ ____
ROOT
ATOM      1  N   LIG    1        6.420   2.301  -0.633  0.00  0.00    -0.620 N 
ATOM      2  H   LIG    1        6.296   3.252  -0.780  0.00  0.00    +0.420 HD
ATOM      3  C   LIG    1        5.387   1.544  -0.213  0.00  0.00    +0.510 C 
ATOM      4  O   LIG    1        5.541   0.355  -0.029  0.00  0.00    -0.460 OA
ENDROOT
BRANCH   1   8
ATOM      5  C   LIG    1        9.677   0.299  -1.130  0.00  0.00    -0.330 A 
ATOM      6  C   LIG    1        9.896   1.595  -1.434  0.00  0.00    +0.050 A 
ATOM      7  C   LIG    1        8.774   2.401  -1.290  0.00  0.00    -0.200 A 
ATOM      8  C   LIG    1        7.654   1.723  -0.855  0.00  0.00    +0.060 A 
ATOM      9  C   LIG    1       11.233   2.119  -1.892  0.00  0.00    +0.140 C 
ATOM     10  S   LIG    1        8.007   0.068  -0.638  0.00  0.00    +0.410 S 
BRANCH   5  11
ATOM     11  C   LIG    1       10.684  -0.760  -1.201  0.00  0.00    +0.550 C 
ATOM     12  O   LIG    1       11.818  -0.498  -1.555  0.00  0.00    -0.490 OA
BRANCH  11  14
ATOM     13  C   LIG    1       11.388  -3.010  -0.965  0.00  0.00    +0.270 C 
ATOM     14  O   LIG    1       10.355  -2.026  -0.873  0.00  0.00    -0.350 OA
ENDBRANCH  11  14
ENDBRANCH   5  11
BRANCH   7  15
ATOM     15  C   LIG    1        8.780   3.841  -1.571  0.00  0.00    +0.530 C 
ATOM     16  O   LIG    1        9.054   4.631  -0.688  0.00  0.00    -0.480 OA
BRANCH  15  17
ATOM     17  O   LIG    1        8.483   4.288  -2.808  0.00  0.00    -0.350 OA
ATOM     18  C   LIG    1        8.508   5.725  -3.013  0.00  0.00    +0.280 C 
ENDBRANCH  15  17
ENDBRANCH   7  15
ENDBRANCH   1   8
BRANCH   3  19
ATOM     19  C   LIG    1        4.040   2.175   0.029  0.00  0.00    +0.070 C 
BRANCH  19  20
ATOM     20  C   LIG    1        4.039   2.857   1.373  0.00  0.00    -0.090 A 
ATOM     21  C   LIG    1        4.332   2.134   2.515  0.00  0.00    +0.030 A 
ATOM     22  C   LIG    1        4.335   2.760   3.747  0.00  0.00    +0.020 A 
ATOM     23  C   LIG    1        4.036   4.107   3.839  0.00  0.00    +0.030 A 
ATOM     24  C   LIG    1        3.737   4.828   2.698  0.00  0.00    +0.010 A 
ATOM     25  C   LIG    1        3.738   4.203   1.465  0.00  0.00    +0.040 A 
ENDBRANCH  19  20
BRANCH  19  26
ATOM     26  S   LIG    1        2.757   0.892   0.001  0.00  0.00    -0.020 S 
BRANCH  26  27
ATOM     27  C   LIG    1        2.729   0.397  -1.690  0.00  0.00    -0.100 A 
ATOM     28  C   LIG    1        1.936  -0.671  -2.090  0.00  0.00    +0.030 A 
ATOM     29  C   LIG    1        1.921  -1.060  -3.415  0.00  0.00    +0.030 A 
ATOM     30  C   LIG    1        2.687  -0.381  -4.345  0.00  0.00    +0.010 A 
ATOM     31  C   LIG    1        3.478   0.683  -3.951  0.00  0.00    +0.030 A 
ATOM     32  C   LIG    1        3.502   1.074  -2.627  0.00  0.00    -0.030 A 
ENDBRANCH  26  27
ENDBRANCH  19  26
ENDBRANCH   3  19
TORSDOF 9
