REMARK  Name = ZINCrD000000CaTb.0
REMARK                            x       y       z     vdW  Elec       q    Type
REMARK                         _______ _______ _______ _____ _____    ______ ____
ROOT
ATOM      1  O   LIG    1       -1.605   5.864  -0.880  0.00  0.00    -0.550 OA
ATOM      2  C   LIG    1       -0.696   5.456  -0.184  0.00  0.00    +0.720 C 
ATOM      3  N   LIG    1       -0.099   6.282   0.697  0.00  0.00    -0.560 N 
ATOM      4  C   LIG    1       -0.236   7.744   0.707  0.00  0.00    +0.330 C 
ATOM      5  C   LIG    1        0.621   8.208   1.886  0.00  0.00    -0.050 C 
ATOM      6  C   LIG    1        1.210   6.955   2.473  0.00  0.00    -0.110 A 
ATOM      7  C   LIG    1        2.061   6.756   3.543  0.00  0.00    +0.070 A 
ATOM      8  C   LIG    1        2.461   5.479   3.887  0.00  0.00    -0.010 A 
ATOM      9  C   LIG    1        2.006   4.396   3.157  0.00  0.00    +0.060 A 
ATOM     10  C   LIG    1        1.157   4.588   2.088  0.00  0.00    -0.050 A 
ATOM     11  C   LIG    1        1.611   9.332   1.579  0.00  0.00    +0.040 C 
ATOM     12  C   LIG    1        0.513  10.309   2.037  0.00  0.00    +0.010 C 
ATOM     13  C   LIG    1       -0.062   9.153   2.876  0.00  0.00    +0.040 C 
ATOM     14  C   LIG    1        0.748   5.874   1.734  0.00  0.00    +0.140 A 
ATOM     15  N   LIG    1       -0.286   4.176  -0.293  0.00  0.00    -0.670 N 
ATOM     16  H   LIG    1        0.444   3.853   0.258  0.00  0.00    +0.420 HD
ENDROOT
BRANCH  15  17
ATOM     17  C   LIG    1       -0.914   3.314  -1.202  0.00  0.00    +0.120 A 
ATOM     18  C   LIG    1       -2.180   3.605  -1.691  0.00  0.00    +0.080 A 
ATOM     19  C   LIG    1       -2.764   2.719  -2.586  0.00  0.00    -0.020 A 
ATOM     20  C   LIG    1       -2.073   1.586  -2.965  0.00  0.00    +0.250 A 
ATOM     21  N   LIG    1       -0.867   1.334  -2.489  0.00  0.00    -0.490 NA
ATOM     22  C   LIG    1       -0.273   2.150  -1.635  0.00  0.00    +0.270 A 
BRANCH  22  23
ATOM     23  N   LIG    1        0.999   1.845  -1.158  0.00  0.00    -0.480 N 
ATOM     24  C   LIG    1        2.016   2.701  -1.785  0.00  0.00    +0.160 C 
ATOM     25  C   LIG    1        3.388   2.373  -1.191  0.00  0.00    +0.230 C 
ATOM     26  O   LIG    1        3.663   0.982  -1.376  0.00  0.00    -0.380 OA
ATOM     27  C   LIG    1        2.692   0.119  -0.778  0.00  0.00    +0.220 C 
ATOM     28  C   LIG    1        1.313   0.424  -1.368  0.00  0.00    +0.190 C 
ENDBRANCH  22  23
ENDBRANCH  15  17
TORSDOF 2
