REMARK  Name = ZINCpe000000Yo6G.0
REMARK                            x       y       z     vdW  Elec       q    Type
REMARK                         _______ _______ _______ _____ _____    ______ ____
ROOT
ATOM      1  C   LIG    1       -2.478  -2.774   0.102  0.00  0.00    +0.200 A 
ATOM      2  C   LIG    1       -3.665  -2.053   0.115  0.00  0.00    +0.010 A 
ATOM      3  C   LIG    1       -4.873  -2.717   0.209  0.00  0.00    +0.150 A 
ATOM      4  C   LIG    1       -4.901  -4.096   0.301  0.00  0.00    -0.690 A 
ATOM      5  C   LIG    1       -3.720  -4.816   0.294  0.00  0.00    +0.150 A 
ATOM      6  C   LIG    1       -2.509  -4.160   0.195  0.00  0.00    -0.020 A 
ENDROOT
BRANCH   1   8
ATOM      7  C   LIG    1       -1.163  -0.970  -0.718  0.00  0.00    +0.600 C 
ATOM      8  N   LIG    1       -1.254  -2.106   0.002  0.00  0.00    -0.660 N 
ATOM      9  H   LIG    1       -0.470  -2.460   0.451  0.00  0.00    +0.420 HD
ATOM     10  O   LIG    1       -2.119  -0.579  -1.358  0.00  0.00    -0.490 OA
BRANCH   7  14
ATOM     11  C   LIG    1        3.356  -0.534   0.781  0.00  0.00    +0.360 C 
ATOM     12  N   LIG    1        2.250   0.004  -0.014  0.00  0.00    -0.330 N 
ATOM     13  N   LIG    1        1.133  -0.627  -0.037  0.00  0.00    -0.180 NA
ATOM     14  C   LIG    1        0.100  -0.201  -0.729  0.00  0.00    +0.010 A 
ATOM     15  C   LIG    1        0.193   0.991  -1.487  0.00  0.00    +0.130 A 
ATOM     16  C   LIG    1        1.373   1.673  -1.473  0.00  0.00    -0.010 A 
ATOM     17  C   LIG    1        2.433   1.146  -0.702  0.00  0.00    +0.480 A 
ATOM     18  O   LIG    1        3.508   1.722  -0.661  0.00  0.00    -0.510 OA
ENDBRANCH   7  14
ENDBRANCH   1   8
BRANCH   4  19
ATOM     19  S   LIG    1       -6.443  -4.938   0.427  0.00  0.00    +2.710 S 
ATOM     20  O   LIG    1       -6.218  -6.260  -0.042  0.00  0.00    -0.950 OA
ATOM     21  O   LIG    1       -7.421  -4.071  -0.131  0.00  0.00    -0.950 OA
BRANCH  19  22
ATOM     22  N   LIG    1       -6.800  -5.069   2.039  0.00  0.00    -1.010 NA
ATOM     23  C   LIG    1       -6.415  -6.186   2.914  0.00  0.00    +0.270 C 
ATOM     24  C   LIG    1       -6.984  -5.886   4.317  0.00  0.00    +0.030 C 
ATOM     25  C   LIG    1       -8.143  -4.899   4.016  0.00  0.00    +0.030 C 
ATOM     26  C   LIG    1       -7.561  -4.087   2.833  0.00  0.00    +0.270 C 
ENDBRANCH  19  22
ENDBRANCH   4  19
TORSDOF 4
