REMARK  Name = ZINCvU0000000BJ5.0
REMARK                            x       y       z     vdW  Elec       q    Type
REMARK                         _______ _______ _______ _____ _____    ______ ____
ROOT
ATOM      1  C   LIG    1        0.983  -6.728   0.922  0.00  0.00    +0.000 C 
ATOM      2  C   LIG    1        1.629  -6.083  -0.307  0.00  0.00    +0.080 C 
ATOM      3  C   LIG    1        1.593  -4.560  -0.156  0.00  0.00    +0.200 C 
ATOM      4  N   LIG    1        0.201  -4.113  -0.021  0.00  0.00    -0.480 N 
ATOM      5  C   LIG    1       -0.425  -4.682   1.179  0.00  0.00    +0.200 C 
ATOM      6  C   LIG    1       -0.450  -6.208   1.068  0.00  0.00    +0.060 C 
ENDROOT
BRANCH   4   7
ATOM      7  C   LIG    1        0.122  -2.724  -0.013  0.00  0.00    +0.340 A 
ATOM      8  N   LIG    1        0.685  -2.041   0.971  0.00  0.00    -0.490 NA
ATOM      9  C   LIG    1        0.634  -0.723   1.016  0.00  0.00    +0.350 A 
ATOM     10  C   LIG    1       -0.014  -0.005   0.031  0.00  0.00    -0.230 A 
ATOM     11  C   LIG    1       -0.623  -0.684  -1.017  0.00  0.00    +0.150 A 
ATOM     12  C   LIG    1       -0.547  -2.066  -1.040  0.00  0.00    -0.060 A 
ATOM     13 CL   LIG    1       -1.284  -2.965  -2.330  0.00  0.00    -0.010 Cl
BRANCH  10  14
ATOM     14  C   LIG    1       -0.066   1.500   0.095  0.00  0.00    +0.520 C 
ATOM     15  F   LIG    1       -1.400   1.918   0.150  0.00  0.00    -0.170 F 
ATOM     16  F   LIG    1        0.545   2.036  -1.043  0.00  0.00    -0.170 F 
ATOM     17  F   LIG    1        0.609   1.941   1.239  0.00  0.00    -0.170 F 
ENDBRANCH  10  14
ENDBRANCH   4   7
BRANCH   1  19
ATOM     18  O   LIG    1        1.417  -8.728  -0.253  0.00  0.00    -0.530 OA
ATOM     19  C   LIG    1        0.961  -8.225   0.752  0.00  0.00    +0.520 C 
ATOM     20  N   LIG    1        0.435  -9.005   1.717  0.00  0.00    -0.520 N 
ATOM     21  H   LIG    1        0.071  -8.603   2.521  0.00  0.00    +0.420 HD
BRANCH  20  22
ATOM     22  N   LIG    1        0.415 -10.397   1.559  0.00  0.00    -0.540 N 
ATOM     23  H   LIG    1        0.779 -10.799   0.755  0.00  0.00    +0.440 HD
BRANCH  22  24
ATOM     24  C   LIG    1       -0.130 -11.206   2.559  0.00  0.00    +0.220 A 
ATOM     25  C   LIG    1       -0.648 -10.632   3.713  0.00  0.00    -0.050 A 
ATOM     26  C   LIG    1       -1.190 -11.434   4.699  0.00  0.00    +0.080 A 
ATOM     27  C   LIG    1       -1.209 -12.807   4.541  0.00  0.00    +0.010 A 
ATOM     28  C   LIG    1       -0.691 -13.382   3.395  0.00  0.00    -0.130 A 
ATOM     29  C   LIG    1       -0.151 -12.586   2.404  0.00  0.00    +0.000 A 
BRANCH  28  30
ATOM     30  C   LIG    1       -0.714 -14.880   3.228  0.00  0.00    +0.510 C 
ATOM     31  F   LIG    1       -0.808 -15.196   1.868  0.00  0.00    -0.180 F 
ATOM     32  F   LIG    1       -1.818 -15.408   3.906  0.00  0.00    -0.170 F 
ATOM     33  F   LIG    1        0.462 -15.426   3.753  0.00  0.00    -0.170 F 
ENDBRANCH  28  30
ENDBRANCH  22  24
ENDBRANCH  20  22
ENDBRANCH   1  19
TORSDOF 6
