REMARK  Name = ZINCrD000000BUEP.0
REMARK                            x       y       z     vdW  Elec       q    Type
REMARK                         _______ _______ _______ _____ _____    ______ ____
ROOT
ATOM      1  O   UNK A  0       -1.204   2.839   0.025  0.00  0.00    -0.530 OA
ATOM      2  C   UNK A  0       -1.187   1.624   0.018  0.00  0.00    +0.700 C 
ATOM      3  N   TRP A  1       -0.011   0.966   0.011  0.00  0.00    -0.720 N 
ATOM      4  H   TRP A  1        0.002  -0.004   0.005  0.00  0.00    +0.400 HD
ATOM      5  N   UNK A  0       -2.345   0.934   0.018  0.00  0.00    -0.670 N 
ATOM      6  H   UNK A  0       -2.334  -0.033  -0.061  0.00  0.00    +0.410 HD
ENDROOT
BRANCH   5   7
ATOM      7  C   UNK A  0       -3.559   1.610   0.133  0.00  0.00    +0.390 A 
ATOM      8  C   UNK A  0       -4.742   0.888   0.239  0.00  0.00    -0.020 A 
ATOM      9  C   UNK A  0       -5.940   1.572   0.353  0.00  0.00    -0.110 A 
ATOM     10  C   UNK A  0       -5.913   2.959   0.356  0.00  0.00    -0.010 A 
ATOM     11  C   UNK A  0       -4.700   3.612   0.247  0.00  0.00    +0.310 A 
ATOM     12  N   UNK A  0       -3.574   2.934   0.145  0.00  0.00    -0.450 NA
BRANCH   9  13
ATOM     13  C   UNK A  0       -7.244   0.826   0.469  0.00  0.00    +0.510 C 
ATOM     14  F   UNK A  0       -7.146  -0.394  -0.208  0.00  0.00    -0.170 F 
ATOM     15  F   UNK A  0       -8.271   1.591  -0.095  0.00  0.00    -0.170 F 
ATOM     16  F   UNK A  0       -7.527   0.589   1.819  0.00  0.00    -0.170 F 
ENDBRANCH   9  13
ENDBRANCH   5   7
BRANCH   3  17
ATOM     17  CA  TRP A  1        1.248   1.715   0.004  0.00  0.00    +0.280 C 
BRANCH  17  18
ATOM     18  CB  TRP A  1        2.350   0.856  -0.619  0.00  0.00    +0.130 C 
BRANCH  18  19
ATOM     19  CG  TRP A  1        2.029   0.603  -2.069  0.00  0.00    -0.170 A 
ATOM     20  CD1 TRP A  1        1.405  -0.474  -2.573  0.00  0.00    +0.220 A 
ATOM     21  NE1 TRP A  1        1.288  -0.352  -3.931  0.00  0.00    -0.600 N 
ATOM     22  HE1 TRP A  1        0.870  -1.005  -4.514  0.00  0.00    +0.420 HD
ATOM     23  CE2 TRP A  1        1.856   0.831  -4.346  0.00  0.00    +0.100 A 
ATOM     24  CZ2 TRP A  1        2.013   1.434  -5.589  0.00  0.00    -0.010 A 
ATOM     25  CH2 TRP A  1        2.643   2.656  -5.683  0.00  0.00    +0.030 A 
ATOM     26  CZ3 TRP A  1        3.123   3.293  -4.548  0.00  0.00    -0.030 A 
ATOM     27  CE3 TRP A  1        2.980   2.719  -3.316  0.00  0.00    +0.050 A 
ATOM     28  CD2 TRP A  1        2.345   1.481  -3.198  0.00  0.00    -0.100 A 
ENDBRANCH  18  19
ENDBRANCH  17  18
BRANCH  17  29
ATOM     29  C   TRP A  1        1.633   2.077   1.440  0.00  0.00    +0.170 C 
BRANCH  29  30
ATOM     30  O   TRP A  1        1.908   0.882   2.175  0.00  0.00    -0.570 OA
ATOM     31  H   TRP A  1        2.160   1.036   3.095  0.00  0.00    +0.380 HD
ENDBRANCH  29  30
ENDBRANCH  17  29
ENDBRANCH   3  17
TORSDOF 7
