REMARK  Name = ZINCnE000001DFAs.0
REMARK                            x       y       z     vdW  Elec       q    Type
REMARK                         _______ _______ _______ _____ _____    ______ ____
ROOT
ATOM      1  C   LIG    1        5.838   4.369  -0.030  0.00  0.00    +0.070 C 
ATOM      2  C   LIG    1        6.011   3.603  -1.343  0.00  0.00    +0.090 C 
ENDROOT
BRANCH   1   3
ATOM      3  C   LIG    1        6.919   5.412   0.090  0.00  0.00    +0.480 A 
ATOM      4  N   LIG    1        6.730   6.567  -0.485  0.00  0.00    -0.580 NA
ATOM      5  C   LIG    1        7.647   7.551  -0.418  0.00  0.00    +0.530 A 
ATOM      6  C   LIG    1        8.895   7.286   0.321  0.00  0.00    -0.210 A 
ATOM      7  C   LIG    1        9.901   8.242   0.438  0.00  0.00    +0.110 A 
ATOM      8  C   LIG    1       11.046   7.936   1.142  0.00  0.00    -0.020 A 
ATOM      9  C   LIG    1       11.200   6.689   1.729  0.00  0.00    +0.070 A 
ATOM     10  C   LIG    1       10.211   5.733   1.621  0.00  0.00    -0.020 A 
ATOM     11  C   LIG    1        9.051   6.021   0.916  0.00  0.00    +0.180 A 
ATOM     12  O   LIG    1        7.453   8.627  -0.956  0.00  0.00    -0.480 OA
ATOM     13  N   LIG    1        8.031   5.100   0.778  0.00  0.00    -0.620 N 
ATOM     14  H   LIG    1        8.118   4.222   1.181  0.00  0.00    +0.420 HD
ENDBRANCH   1   3
BRANCH   1  15
ATOM     15  S   LIG    1        4.214   5.177  -0.010  0.00  0.00    +0.050 S 
BRANCH  15  20
ATOM     16  N   LIG    1       -0.018   1.461   0.010  0.00  0.00    -0.630 NA
ATOM     17  C   LIG    1        1.109   2.132   0.003  0.00  0.00    +0.340 A 
ATOM     18  N   LIG    1        2.379   1.632  -0.012  0.00  0.00    -0.510 NA
ATOM     19  N   LIG    1        3.398   2.557  -0.017  0.00  0.00    -0.250 NA
ATOM     20  C   LIG    1        3.094   3.817  -0.007  0.00  0.00    -0.080 A 
ATOM     21  S   LIG    1        1.323   3.893   0.003  0.00  0.00    -0.100 S 
BRANCH  16  23
ATOM     22  C   LIG    1       -0.700  -0.530   1.255  0.00  0.00    +0.000 C 
ATOM     23  C   LIG    1        0.002  -0.004   0.002  0.00  0.00    +0.150 C 
ATOM     24  C   LIG    1       -0.724  -0.517  -1.243  0.00  0.00    +0.000 C 
ENDBRANCH  16  23
ENDBRANCH  15  20
ENDBRANCH   1  15
TORSDOF 4
