REMARK  Name = ZINCrH000004kSHx.0
REMARK                            x       y       z     vdW  Elec       q    Type
REMARK                         _______ _______ _______ _____ _____    ______ ____
ROOT
ATOM      1  C   LIG    1       -1.036   5.620   1.728  0.00  0.00    -0.160 A 
ATOM      2  C   LIG    1       -1.584   4.748   2.677  0.00  0.00    +0.060 A 
ATOM      3  C   LIG    1       -1.508   3.385   2.483  0.00  0.00    +0.080 A 
ATOM      4  C   LIG    1       -0.877   2.871   1.349  0.00  0.00    +0.170 A 
ATOM      5  C   LIG    1       -0.332   3.727   0.405  0.00  0.00    -0.030 A 
ATOM      6  C   LIG    1       -0.406   5.099   0.586  0.00  0.00    +0.220 A 
ENDROOT
BRANCH   6   7
ATOM      7  N   LIG    1        0.142   5.960  -0.363  0.00  0.00    -0.650 N 
ATOM      8  H   LIG    1       -0.291   6.806  -0.558  0.00  0.00    +0.430 HD
ATOM      9  C   LIG    1        1.273   5.616  -1.010  0.00  0.00    +0.610 C 
ATOM     10  O   LIG    1        1.772   4.522  -0.825  0.00  0.00    -0.500 OA
BRANCH   9  11
ATOM     11  C   LIG    1        1.905   6.564  -1.938  0.00  0.00    -0.050 A 
ATOM     12  C   LIG    1        3.042   6.328  -2.642  0.00  0.00    -0.060 A 
ATOM     13  C   LIG    1        3.292   7.537  -3.426  0.00  0.00    -0.150 A 
ATOM     14  C   LIG    1        4.281   7.923  -4.333  0.00  0.00    +0.070 A 
ATOM     15  C   LIG    1        4.226   9.160  -4.910  0.00  0.00    -0.010 A 
ATOM     16  C   LIG    1        3.194  10.035  -4.600  0.00  0.00    +0.060 A 
ATOM     17  C   LIG    1        2.208   9.674  -3.708  0.00  0.00    +0.030 A 
ATOM     18  C   LIG    1        2.243   8.421  -3.108  0.00  0.00    +0.080 A 
ATOM     19  C   LIG    1        3.877   5.074  -2.621  0.00  0.00    +0.140 C 
ATOM     20  O   LIG    1        1.439   7.798  -2.224  0.00  0.00    -0.180 OA
ENDBRANCH   9  11
ENDBRANCH   6   7
BRANCH   1  21
ATOM     21  C   LIG    1       -1.119   7.075   1.927  0.00  0.00    +0.520 C 
ATOM     22  O   LIG    1       -0.724   7.830   1.061  0.00  0.00    -0.510 OA
BRANCH  21  24
ATOM     23  C   LIG    1       -1.686   9.016   3.198  0.00  0.00    +0.290 C 
ATOM     24  O   LIG    1       -1.635   7.570   3.070  0.00  0.00    -0.350 OA
ENDBRANCH  21  24
ENDBRANCH   1  21
BRANCH   4  25
ATOM     25  O   LIG    1       -0.802   1.528   1.167  0.00  0.00    -0.290 OA
ATOM     26  C   LIG    1       -0.148   1.069  -0.018  0.00  0.00    +0.260 C 
ENDBRANCH   4  25
BRANCH   3  27
ATOM     27  O   LIG    1       -2.045   2.538   3.402  0.00  0.00    -0.300 OA
ATOM     28  C   LIG    1       -2.676   3.130   4.539  0.00  0.00    +0.240 C 
ENDBRANCH   3  27
TORSDOF 6
