REMARK  Name = ZINCpe000000WyND.0
REMARK                            x       y       z     vdW  Elec       q    Type
REMARK                         _______ _______ _______ _____ _____    ______ ____
ROOT
ATOM      1  C   LIG    1        2.523   1.124  -0.534  0.00  0.00    +0.310 C 
ATOM      2  C   LIG    1        3.513   2.295  -0.736  0.00  0.00    +0.010 C 
ATOM      3  C   LIG    1        3.000   3.321   0.301  0.00  0.00    +0.070 C 
ATOM      4  C   LIG    1        1.541   2.966   0.483  0.00  0.00    +0.520 C 
ATOM      5  O   LIG    1        0.709   3.688   0.992  0.00  0.00    -0.520 OA
ATOM      6  N   LIG    1        1.300   1.736  -0.001  0.00  0.00    -0.580 N 
ENDROOT
BRANCH   2   7
ATOM      7  C   LIG    1        4.923   1.866  -0.418  0.00  0.00    +0.550 C 
ATOM      8  N   LIG    1        5.918   2.776  -0.409  0.00  0.00    -0.400 N 
ATOM      9  C   LIG    1        7.340   2.531  -0.116  0.00  0.00    +0.330 C 
ATOM     10  C   LIG    1        7.995   3.888  -0.248  0.00  0.00    -0.250 C 
ATOM     11  C   LIG    1        7.045   4.758  -0.565  0.00  0.00    +0.420 C 
ATOM     12  N   LIG    1        5.809   4.148  -0.670  0.00  0.00    -0.560 N 
ATOM     13  H   LIG    1        4.983   4.606  -0.892  0.00  0.00    +0.430 HD
ATOM     14  O   LIG    1        5.162   0.703  -0.172  0.00  0.00    -0.510 OA
BRANCH  11  15
ATOM     15  N   LIG    1        7.265   6.115  -0.767  0.00  0.00    -0.860 N 
ATOM     16  H   LIG    1        8.159   6.480  -0.678  0.00  0.00    +0.420 HD
ATOM     17  H   LIG    1        6.524   6.698  -0.997  0.00  0.00    +0.400 HD
ENDBRANCH  11  15
ENDBRANCH   2   7
BRANCH   1  22
ATOM     18  C   LIG    1        2.580  -1.371  -3.371  0.00  0.00    +0.130 A 
ATOM     19  C   LIG    1        1.710  -0.779  -4.275  0.00  0.00    -0.070 A 
ATOM     20  C   LIG    1        1.107   0.425  -3.965  0.00  0.00    +0.050 A 
ATOM     21  C   LIG    1        1.367   1.036  -2.752  0.00  0.00    -0.010 A 
ATOM     22  C   LIG    1        2.238   0.451  -1.852  0.00  0.00    -0.070 A 
ATOM     23  C   LIG    1        2.843  -0.752  -2.158  0.00  0.00    +0.010 A 
BRANCH  18  25
ATOM     24  C   LIG    1        2.857  -3.135  -4.941  0.00  0.00    +0.250 C 
ATOM     25  O   LIG    1        3.174  -2.555  -3.674  0.00  0.00    -0.320 OA
ENDBRANCH  18  25
ENDBRANCH   1  22
BRANCH   6  26
ATOM     26  C   LIG    1       -0.013   1.086   0.008  0.00  0.00    +0.210 C 
ATOM     27  C   LIG    1       -1.136   1.773   0.788  0.00  0.00    +0.040 C 
ATOM     28  C   LIG    1       -1.150   1.781  -0.743  0.00  0.00    +0.000 C 
ENDBRANCH   6  26
TORSDOF 5
