REMARK  Name = ZINCrH000004nRdV.0
REMARK                            x       y       z     vdW  Elec       q    Type
REMARK                         _______ _______ _______ _____ _____    ______ ____
ROOT
ATOM      1  C   LIG    1        4.870   0.709  -2.928  0.00  0.00    +0.260 C 
ENDROOT
BRANCH   1   2
ATOM      2  C   LIG    1        4.377   0.744  -1.505  0.00  0.00    +0.500 C 
ATOM      3  N   LIG    1        3.198   1.327  -1.214  0.00  0.00    -0.720 N 
ATOM      4  H   LIG    1        2.666   1.725  -1.921  0.00  0.00    +0.400 HD
ATOM      5  O   LIG    1        5.042   0.247  -0.620  0.00  0.00    -0.520 OA
BRANCH   3   6
ATOM      6  C   LIG    1        2.719   1.361   0.170  0.00  0.00    +0.320 C 
BRANCH   6   7
ATOM      7  C   LIG    1        1.387   2.064   0.224  0.00  0.00    -0.100 A 
ATOM      8  C   LIG    1        0.226   1.334   0.392  0.00  0.00    +0.050 A 
ATOM      9  C   LIG    1       -0.997   1.978   0.436  0.00  0.00    +0.020 A 
ATOM     10  C   LIG    1       -1.058   3.354   0.321  0.00  0.00    +0.040 A 
ATOM     11  C   LIG    1        0.103   4.086   0.152  0.00  0.00    +0.030 A 
ATOM     12  C   LIG    1        1.326   3.442   0.103  0.00  0.00    -0.020 A 
ATOM     13 CL   LIG    1        2.784   4.360  -0.108  0.00  0.00    -0.060 Cl
ENDBRANCH   6   7
ENDBRANCH   3   6
ENDBRANCH   1   2
BRANCH   1  14
ATOM     14  N   LIG    1        6.165   0.026  -2.980  0.00  0.00    -1.090 NA
ATOM     15  H   LIG    1        6.230  -0.909  -2.731  0.00  0.00    +0.430 HD
BRANCH  14  16
ATOM     16  S   LIG    1        7.517   0.850  -3.465  0.00  0.00    +2.690 S 
ATOM     17  O   LIG    1        7.177   1.498  -4.683  0.00  0.00    -0.950 OA
ATOM     18  O   LIG    1        8.604  -0.058  -3.345  0.00  0.00    -0.950 OA
BRANCH  16  19
ATOM     19  C   LIG    1        7.801   2.126  -2.285  0.00  0.00    -0.680 A 
ATOM     20  C   LIG    1        7.234   3.374  -2.466  0.00  0.00    +0.140 A 
ATOM     21  C   LIG    1        7.452   4.374  -1.538  0.00  0.00    +0.010 A 
ATOM     22  C   LIG    1        8.249   4.130  -0.433  0.00  0.00    +0.020 A 
ATOM     23  C   LIG    1        8.821   2.883  -0.255  0.00  0.00    +0.020 A 
ATOM     24 CL   LIG    1        8.530   5.389   0.729  0.00  0.00    -0.050 Cl
ATOM     25  C   LIG    1        8.597   1.882  -1.181  0.00  0.00    +0.160 A 
ENDBRANCH  16  19
ENDBRANCH  14  16
ENDBRANCH   1  14
BRANCH   1  26
ATOM     26  C   LIG    1        3.861  -0.042  -3.799  0.00  0.00    +0.070 C 
BRANCH  26  27
ATOM     27  C   LIG    1        4.303   0.023  -5.263  0.00  0.00    +0.090 C 
BRANCH  27  29
ATOM     28  C   LIG    1        3.833  -0.747  -7.955  0.00  0.00    +0.140 C 
ATOM     29  S   LIG    1        3.155  -0.943  -6.284  0.00  0.00    -0.260 S 
ENDBRANCH  27  29
ENDBRANCH  26  27
ENDBRANCH   1  26
TORSDOF 9
