REMARK  Name = ZINCqH0000031BKm.0
REMARK                            x       y       z     vdW  Elec       q    Type
REMARK                         _______ _______ _______ _____ _____    ______ ____
ROOT
ATOM      1  N   LIG    1        0.002  -0.004   0.002  0.00  0.00    -0.540 NA
ATOM      2  C   LIG    1       -1.245  -0.546  -0.568  0.00  0.00    +0.190 C 
ATOM      3  C   LIG    1       -0.850  -1.453  -1.753  0.00  0.00    +0.010 C 
ATOM      4  C   LIG    1        0.622  -1.824  -1.433  0.00  0.00    +0.050 C 
ATOM      5  C   LIG    1        1.142  -0.514  -0.789  0.00  0.00    +0.210 C 
ENDROOT
BRANCH   5   6
ATOM      6  C   LIG    1        2.317  -0.802   0.109  0.00  0.00    -0.070 A 
ATOM      7  C   LIG    1        2.112  -1.084   1.446  0.00  0.00    +0.080 A 
ATOM      8  C   LIG    1        3.194  -1.350   2.272  0.00  0.00    +0.090 A 
ATOM      9  C   LIG    1        4.481  -1.331   1.757  0.00  0.00    -0.040 A 
ATOM     10  C   LIG    1        4.687  -1.048   0.421  0.00  0.00    -0.040 A 
ATOM     11  C   LIG    1        3.605  -0.788  -0.407  0.00  0.00    +0.100 A 
BRANCH   8  12
ATOM     12  O   LIG    1        2.992  -1.629   3.588  0.00  0.00    -0.320 OA
ATOM     13  C   LIG    1        4.151  -1.893   4.381  0.00  0.00    +0.230 C 
ENDBRANCH   8  12
BRANCH  11  14
ATOM     14  O   LIG    1        3.806  -0.515  -1.724  0.00  0.00    -0.320 OA
ATOM     15  C   LIG    1        5.158  -0.518  -2.187  0.00  0.00    +0.230 C 
ENDBRANCH  11  14
ENDBRANCH   5   6
BRANCH   1  16
ATOM     16  C   LIG    1       -0.018   1.465   0.010  0.00  0.00    +0.520 C 
BRANCH  16  19
ATOM     17  N   LIG    1       -2.195   2.759   2.567  0.00  0.00    -0.490 N 
ATOM     18  C   LIG    1       -1.948   2.457   1.276  0.00  0.00    +0.470 A 
ATOM     19  N   LIG    1       -0.704   1.937   1.215  0.00  0.00    -0.360 N 
ATOM     20  N   LIG    1       -0.187   1.939   2.518  0.00  0.00    -0.260 NA
ATOM     21  S   LIG    1       -3.016   2.687  -0.042  0.00  0.00    -0.590 S 
ATOM     22  C   LIG    1       -1.087   2.431   3.308  0.00  0.00    +0.260 A 
ATOM     23  C   LIG    1       -0.942   2.613   4.797  0.00  0.00    +0.220 C 
BRANCH  17  24
ATOM     24  C   LIG    1       -3.433   3.345   3.088  0.00  0.00    +0.380 C 
BRANCH  24  26
ATOM     25  C   LIG    1       -4.243   5.553   2.435  0.00  0.00    +0.090 C 
ATOM     26  C   LIG    1       -3.330   4.848   3.056  0.00  0.00    -0.090 C 
ENDBRANCH  24  26
ENDBRANCH  17  24
ENDBRANCH  16  19
ENDBRANCH   1  16
TORSDOF 7
