REMARK  Name = ZINCkj000005kxs9.0
REMARK                            x       y       z     vdW  Elec       q    Type
REMARK                         _______ _______ _______ _____ _____    ______ ____
ROOT
ATOM      1  N   LIG    1       -0.831   1.751  -1.348  0.00  0.00    -0.490 N 
ATOM      2  H   LIG    1       -0.259   1.498  -2.140  0.00  0.00    +0.440 HD
ATOM      3  H   LIG    1       -1.125   2.712  -1.439  0.00  0.00    +0.440 HD
ENDROOT
BRANCH   1   9
ATOM      4  C   LIG    1        4.593   2.865   3.501  0.00  0.00    +0.140 C 
ATOM      5  C   LIG    1        3.497   2.387   2.584  0.00  0.00    +0.020 A 
ATOM      6  C   LIG    1        2.919   3.104   1.599  0.00  0.00    +0.140 A 
ATOM      7  N   LIG    1        1.984   2.296   1.023  0.00  0.00    -0.470 N 
ATOM      8  C   LIG    1        1.087   2.614  -0.090  0.00  0.00    +0.320 C 
ATOM      9  C   LIG    1       -0.054   1.591  -0.112  0.00  0.00    +0.170 C 
ATOM     10  C   LIG    1        0.527   0.175  -0.054  0.00  0.00    +0.060 C 
ATOM     11  C   LIG    1        1.133  -0.066   1.334  0.00  0.00    +0.190 C 
ATOM     12  C   LIG    1        2.020   1.108   1.673  0.00  0.00    +0.190 A 
ATOM     13  N   LIG    1        2.926   1.171   2.605  0.00  0.00    -0.460 NA
ENDBRANCH   1   9
BRANCH   1  14
ATOM     14  C   LIG    1       -2.013   0.879  -1.300  0.00  0.00    +0.170 C 
ATOM     15  C   LIG    1       -2.949   1.350  -0.185  0.00  0.00    +0.120 C 
BRANCH  14  16
ATOM     16  C   LIG    1       -2.736   0.939  -2.621  0.00  0.00    +0.510 C 
ATOM     17  N   LIG    1       -3.857   0.215  -2.810  0.00  0.00    -0.690 N 
ATOM     18  H   LIG    1       -4.198  -0.344  -2.095  0.00  0.00    +0.410 HD
ATOM     19  O   LIG    1       -2.308   1.639  -3.515  0.00  0.00    -0.520 OA
BRANCH  17  20
ATOM     20  C   LIG    1       -4.559   0.274  -4.094  0.00  0.00    +0.170 C 
ATOM     21  C   LIG    1       -4.998   1.714  -4.370  0.00  0.00    +0.050 C 
ATOM     22  C   LIG    1       -5.790  -0.634  -4.044  0.00  0.00    +0.070 C 
ATOM     23  C   LIG    1       -3.623  -0.197  -5.209  0.00  0.00    +0.050 C 
ENDBRANCH  17  20
ENDBRANCH  14  16
ENDBRANCH   1  14
TORSDOF 4
