REMARK  Name = ZINCrH000004jGrm.0
REMARK                            x       y       z     vdW  Elec       q    Type
REMARK                         _______ _______ _______ _____ _____    ______ ____
ROOT
ATOM      1  C   LIG    1        0.216  -4.228   0.317  0.00  0.00    +0.560 C 
ATOM      2  N   LIG    1        0.122  -2.884   0.351  0.00  0.00    -0.660 N 
ATOM      3  H   LIG    1       -0.326  -2.410  -0.367  0.00  0.00    +0.420 HD
ATOM      4  O   LIG    1        0.688  -4.829   1.262  0.00  0.00    -0.500 OA
ENDROOT
BRANCH   1   7
ATOM      5  C   LIG    1       -0.599  -7.051  -2.021  0.00  0.00    -0.680 A 
ATOM      6  C   LIG    1       -0.154  -6.363  -0.912  0.00  0.00    +0.220 A 
ATOM      7  C   LIG    1       -0.255  -4.971  -0.871  0.00  0.00    -0.150 A 
ATOM      8  C   LIG    1       -0.798  -4.283  -1.958  0.00  0.00    +0.130 A 
ATOM      9  C   LIG    1       -1.235  -4.982  -3.064  0.00  0.00    +0.030 A 
ATOM     10  C   LIG    1       -1.137  -6.363  -3.097  0.00  0.00    +0.080 A 
ATOM     11 CL   LIG    1       -1.689  -7.235  -4.492  0.00  0.00    -0.030 Cl
BRANCH   5  12
ATOM     12  S   LIG    1       -0.478  -8.808  -2.073  0.00  0.00    +2.690 S 
ATOM     13  O   LIG    1       -1.740  -9.284  -2.520  0.00  0.00    -0.930 OA
ATOM     14  O   LIG    1        0.112  -9.206  -0.843  0.00  0.00    -0.940 OA
BRANCH  12  16
ATOM     15  C   LIG    1        2.049  -9.155  -2.972  0.00  0.00    +0.310 C 
ATOM     16  N   LIG    1        0.613  -9.189  -3.259  0.00  0.00    -1.000 NA
ATOM     17  C   LIG    1        0.142  -9.560  -4.596  0.00  0.00    +0.300 C 
ENDBRANCH  12  16
ENDBRANCH   5  12
ENDBRANCH   1   7
BRANCH   2  18
ATOM     18  C   LIG    1        0.671  -2.171   1.425  0.00  0.00    +0.150 A 
ATOM     19  C   LIG    1        1.696  -2.727   2.177  0.00  0.00    +0.060 A 
ATOM     20  C   LIG    1        2.232  -2.024   3.240  0.00  0.00    +0.030 A 
ATOM     21  C   LIG    1        1.754  -0.765   3.551  0.00  0.00    +0.050 A 
ATOM     22  C   LIG    1        0.738  -0.202   2.802  0.00  0.00    -0.030 A 
ATOM     23  C   LIG    1        0.195  -0.899   1.736  0.00  0.00    +0.070 A 
BRANCH  23  24
ATOM     24  O   LIG    1       -0.805  -0.346   0.998  0.00  0.00    -0.320 OA
BRANCH  24  25
ATOM     25  C   LIG    1       -1.248   0.958   1.379  0.00  0.00    +0.610 C 
ATOM     26  F   LIG    1       -1.725   0.923   2.693  0.00  0.00    -0.160 F 
ATOM     27  F   LIG    1       -2.272   1.372   0.521  0.00  0.00    -0.130 F 
ATOM     28  F   LIG    1       -0.178   1.856   1.295  0.00  0.00    -0.160 F 
ENDBRANCH  24  25
ENDBRANCH  23  24
ENDBRANCH   2  18
TORSDOF 6
