REMARK  Name = ZINCpe00000MJI8K.0
REMARK                            x       y       z     vdW  Elec       q    Type
REMARK                         _______ _______ _______ _____ _____    ______ ____
ROOT
ATOM      1  O   LIG    1       -2.074   5.475  -2.363  0.00  0.00    -0.530 OA
ATOM      2  C   LIG    1       -1.063   6.046  -2.010  0.00  0.00    +0.500 C 
ATOM      3  N   LIG    1       -0.816   7.301  -2.435  0.00  0.00    -0.730 N 
ATOM      4  H   LIG    1       -0.008   7.758  -2.153  0.00  0.00    +0.400 HD
ENDROOT
BRANCH   3   5
ATOM      5  C   LIG    1       -1.767   7.975  -3.321  0.00  0.00    +0.330 C 
BRANCH   5   6
ATOM      6  C   LIG    1       -1.259   9.357  -3.645  0.00  0.00    -0.200 A 
ATOM      7  C   LIG    1       -0.444   9.563  -4.749  0.00  0.00    +0.120 A 
ATOM      8  C   LIG    1       -0.000  10.848  -5.011  0.00  0.00    -0.040 A 
ATOM      9  C   LIG    1       -0.383  11.881  -4.165  0.00  0.00    +0.330 A 
ATOM     10  N   LIG    1       -1.162  11.644  -3.123  0.00  0.00    -0.540 NA
ATOM     11  C   LIG    1       -1.605  10.431  -2.850  0.00  0.00    +0.320 A 
BRANCH   9  12
ATOM     12  O   LIG    1        0.045  13.144  -4.411  0.00  0.00    -0.300 OA
BRANCH  12  13
ATOM     13  C   LIG    1       -0.383  14.162  -3.505  0.00  0.00    +0.240 C 
BRANCH  13  14
ATOM     14  C   LIG    1        0.196  15.510  -3.940  0.00  0.00    -0.040 C 
ATOM     15  C   LIG    1        1.175  16.199  -2.988  0.00  0.00    +0.020 C 
ATOM     16  C   LIG    1       -0.242  16.752  -3.161  0.00  0.00    +0.030 C 
ENDBRANCH  13  14
ENDBRANCH  12  13
ENDBRANCH   9  12
ENDBRANCH   5   6
ENDBRANCH   3   5
BRANCH   2  17
ATOM     17  C   LIG    1       -0.085   5.352  -1.098  0.00  0.00    +0.320 C 
BRANCH  17  18
ATOM     18  N   LIG    1       -0.578   4.009  -0.783  0.00  0.00    -0.590 N 
ATOM     19  C   LIG    1       -1.442   3.804   0.391  0.00  0.00    +0.280 C 
ATOM     20  C   LIG    1       -0.640   3.072   1.468  0.00  0.00    +0.010 C 
ATOM     21  C   LIG    1       -0.711   1.569   1.266  0.00  0.00    +0.030 C 
ATOM     22  C   LIG    1       -0.013   1.086   0.008  0.00  0.00    +0.050 C 
ATOM     23  C   LIG    1       -0.741   1.587  -1.242  0.00  0.00    +0.180 C 
ATOM     24  C   LIG    1       -0.242   2.980  -1.562  0.00  0.00    +0.490 C 
ATOM     25  O   LIG    1        0.466   3.161  -2.530  0.00  0.00    -0.530 OA
BRANCH  23  26
ATOM     26  O   LIG    1       -0.470   0.712  -2.338  0.00  0.00    -0.540 OA
ATOM     27  H   LIG    1       -0.901   0.971  -3.164  0.00  0.00    +0.390 HD
ENDBRANCH  23  26
ENDBRANCH  17  18
ENDBRANCH   2  17
TORSDOF 8
