REMARK  Name = ZINCvU0000000ASB.0
REMARK                            x       y       z     vdW  Elec       q    Type
REMARK                         _______ _______ _______ _____ _____    ______ ____
ROOT
ATOM      1  C   LIG    1       -2.432  -0.853  -2.403  0.00  0.00    +0.500 C 
ATOM      2  N   LIG    1       -2.680  -0.391  -3.645  0.00  0.00    -0.610 N 
ATOM      3  C   LIG    1       -4.040   0.002  -4.039  0.00  0.00    +0.270 C 
ATOM      4  C   LIG    1       -4.000   1.430  -4.592  0.00  0.00    +0.010 C 
ATOM      5  C   LIG    1       -2.971   1.506  -5.722  0.00  0.00    +0.020 C 
ATOM      6  C   LIG    1       -1.584   1.161  -5.176  0.00  0.00    +0.020 C 
ATOM      7  C   LIG    1       -1.596  -0.265  -4.628  0.00  0.00    +0.320 C 
ATOM      8  O   LIG    1       -1.329  -1.271  -2.122  0.00  0.00    -0.480 OA
ENDROOT
BRANCH   7   9
ATOM      9  C   LIG    1       -0.275  -0.560  -3.964  0.00  0.00    +0.130 A 
ATOM     10  N   LIG    1        0.415  -1.616  -4.172  0.00  0.00    -0.460 NA
ATOM     11  C   LIG    1        1.579  -1.748  -3.508  0.00  0.00    +0.100 A 
ATOM     12  C   LIG    1        2.524  -2.793  -3.547  0.00  0.00    +0.060 A 
ATOM     13  C   LIG    1        3.653  -2.731  -2.787  0.00  0.00    +0.020 A 
ATOM     14  C   LIG    1        3.894  -1.642  -1.962  0.00  0.00    +0.020 A 
ATOM     15  C   LIG    1        2.988  -0.606  -1.904  0.00  0.00    +0.050 A 
ATOM     16  C   LIG    1        1.829  -0.653  -2.674  0.00  0.00    -0.160 A 
ATOM     17  S   LIG    1        0.490   0.478  -2.845  0.00  0.00    +0.100 S 
ENDBRANCH   7   9
BRANCH   1  18
ATOM     18  C   LIG    1       -3.524  -0.850  -1.365  0.00  0.00    +0.070 C 
BRANCH  18  30
ATOM     19  C   LIG    1        0.425   0.052   0.892  0.00  0.00    +0.090 C 
ATOM     20  C   LIG    1       -0.643  -0.868   0.358  0.00  0.00    +0.520 C 
ATOM     21  N   LIG    1       -1.943  -0.533   0.477  0.00  0.00    -0.560 N 
ATOM     22  C   LIG    1       -2.301   0.657   1.096  0.00  0.00    +0.240 C 
ATOM     23  C   LIG    1       -3.450   0.727   1.780  0.00  0.00    -0.040 C 
ATOM     24  C   LIG    1       -4.327  -0.458   1.836  0.00  0.00    -0.030 A 
ATOM     25  C   LIG    1       -5.375  -0.526   2.754  0.00  0.00    +0.020 A 
ATOM     26  C   LIG    1       -6.175  -1.651   2.795  0.00  0.00    +0.010 A 
ATOM     27  C   LIG    1       -5.937  -2.706   1.932  0.00  0.00    +0.000 A 
ATOM     28  C   LIG    1       -4.901  -2.642   1.016  0.00  0.00    +0.020 A 
ATOM     29  C   LIG    1       -4.101  -1.522   0.960  0.00  0.00    -0.100 A 
ATOM     30  C   LIG    1       -2.983  -1.422  -0.053  0.00  0.00    +0.320 C 
ATOM     31  O   LIG    1       -0.331  -1.908  -0.183  0.00  0.00    -0.480 OA
ENDBRANCH  18  30
ENDBRANCH   1  18
TORSDOF 3
