REMARK  Name = ZINCb70000002qDO.0
REMARK                            x       y       z     vdW  Elec       q    Type
REMARK                         _______ _______ _______ _____ _____    ______ ____
ROOT
ATOM      1  C   LIG    1        2.884   3.431   0.095  0.00  0.00    +0.110 C 
ATOM      2  C   LIG    1        1.414   3.009   0.057  0.00  0.00    +0.150 C 
ATOM      3  C   LIG    1        0.706   3.504   1.321  0.00  0.00    +0.250 C 
ATOM      4  N   LIG    1       -0.691   3.050   1.305  0.00  0.00    -0.500 N 
ATOM      5  C   LIG    1       -0.730   1.582   1.267  0.00  0.00    +0.120 C 
ATOM      6  C   LIG    1       -2.186   1.109   1.234  0.00  0.00    +0.280 C 
ATOM      7  O   LIG    1       -2.815   1.593   0.046  0.00  0.00    -0.370 OA
ATOM      8  C   LIG    1       -2.216   1.124  -1.164  0.00  0.00    +0.250 C 
ATOM      9  C   LIG    1       -0.754   1.595  -1.231  0.00  0.00    -0.010 C 
ATOM     10  C   LIG    1       -0.013   1.086   0.008  0.00  0.00    +0.230 C 
ATOM     11  H   LIG    1       -1.155   3.420   0.490  0.00  0.00    +0.430 HD
ATOM     12  H   LIG    1       -1.160   3.377   2.137  0.00  0.00    +0.430 HD
ATOM     13  O   LIG    1        1.328   1.582  -0.002  0.00  0.00    -0.340 OA
ENDROOT
TORSDOF 0
