REMARK  Name = ZINCrD00000rOBvf.0
REMARK                            x       y       z     vdW  Elec       q    Type
REMARK                         _______ _______ _______ _____ _____    ______ ____
ROOT
ATOM      1  C   LIG    1       -4.946   0.928   0.198  0.00  0.00    +0.550 C 
ATOM      2  N   LIG    1       -6.107   1.593   0.040  0.00  0.00    -0.670 N 
ATOM      3  H   LIG    1       -6.110   2.562  -0.003  0.00  0.00    +0.410 HD
ATOM      4  O   LIG    1       -4.952  -0.280   0.348  0.00  0.00    -0.520 OA
ENDROOT
BRANCH   2   5
ATOM      5  C   LIG    1       -7.311   0.885  -0.064  0.00  0.00    +0.220 A 
ATOM      6  C   LIG    1       -7.333  -0.358  -0.682  0.00  0.00    -0.090 A 
ATOM      7  C   LIG    1       -8.523  -1.062  -0.780  0.00  0.00    +0.170 A 
ATOM      8  C   LIG    1       -9.696  -0.518  -0.270  0.00  0.00    +0.010 A 
ATOM      9  C   LIG    1       -9.674   0.729   0.343  0.00  0.00    +0.170 A 
ATOM     10  C   LIG    1       -8.482   1.429   0.446  0.00  0.00    -0.120 A 
BRANCH   9  11
ATOM     11  O   LIG    1      -10.821   1.262   0.842  0.00  0.00    -0.300 OA
ATOM     12  C   LIG    1      -10.724   2.547   1.459  0.00  0.00    +0.240 C 
ENDBRANCH   9  11
BRANCH   8  13
ATOM     13  O   LIG    1      -10.866  -1.206  -0.371  0.00  0.00    -0.310 OA
ATOM     14  C   LIG    1      -11.654  -0.978  -1.542  0.00  0.00    +0.200 C 
ENDBRANCH   8  13
BRANCH   7  15
ATOM     15  O   LIG    1       -8.544  -2.282  -1.381  0.00  0.00    -0.300 OA
ATOM     16  C   LIG    1       -7.302  -2.780  -1.882  0.00  0.00    +0.240 C 
ENDBRANCH   7  15
ENDBRANCH   2   5
BRANCH   1  18
ATOM     17  C   LIG    1       -2.515   0.992   0.350  0.00  0.00    +0.150 C 
ATOM     18  C   LIG    1       -3.679   1.658   0.191  0.00  0.00    -0.100 C 
BRANCH  17  22
ATOM     19  C   LIG    1        1.160   3.115   0.322  0.00  0.00    +0.120 A 
ATOM     20  C   LIG    1       -0.037   3.799   0.165  0.00  0.00    -0.040 A 
ATOM     21  C   LIG    1       -1.233   3.115   0.177  0.00  0.00    +0.040 A 
ATOM     22  C   LIG    1       -1.242   1.726   0.343  0.00  0.00    -0.080 A 
ATOM     23  C   LIG    1       -0.034   1.037   0.508  0.00  0.00    -0.010 A 
ATOM     24  C   LIG    1        1.159   1.731   0.494  0.00  0.00    +0.100 A 
BRANCH  19  26
ATOM     25  C   LIG    1        2.264   5.211   0.129  0.00  0.00    +0.240 C 
ATOM     26  O   LIG    1        2.336   3.795   0.309  0.00  0.00    -0.300 OA
ENDBRANCH  19  26
BRANCH  24  27
ATOM     27  O   LIG    1        2.335   1.065   0.649  0.00  0.00    -0.300 OA
ATOM     28  C   LIG    1        2.260  -0.352   0.822  0.00  0.00    +0.240 C 
ENDBRANCH  24  27
ENDBRANCH  17  22
ENDBRANCH   1  18
TORSDOF 8
