REMARK  Name = ZINCvU0000000Ivz.0
REMARK                            x       y       z     vdW  Elec       q    Type
REMARK                         _______ _______ _______ _____ _____    ______ ____
ROOT
ATOM      1  C   LIG    1        0.063   5.908   1.119  0.00  0.00    +0.270 A 
ATOM      2  N   LIG    1       -0.131   7.181   1.246  0.00  0.00    -0.400 NA
ATOM      3  C   LIG    1       -0.203   7.636   2.503  0.00  0.00    +0.060 A 
ATOM      4  C   LIG    1       -0.059   6.675   3.464  0.00  0.00    -0.040 A 
ATOM      5  S   LIG    1        0.166   5.158   2.707  0.00  0.00    +0.180 S 
ENDROOT
BRANCH   3   6
ATOM      6  C   LIG    1       -0.412   9.003   2.812  0.00  0.00    +0.260 C 
ATOM      7  C   LIG    1       -1.262   9.767   2.031  0.00  0.00    -0.060 C 
ATOM      8  N   LIG    1       -1.470  11.113   2.111  0.00  0.00    -0.440 NA
ATOM      9  C   LIG    1       -2.340  11.464   1.205  0.00  0.00    +0.330 C 
ATOM     10  O   LIG    1       -2.763  10.403   0.490  0.00  0.00    -0.290 OA
ATOM     11  C   LIG    1       -2.134   9.297   0.945  0.00  0.00    +0.480 C 
ATOM     12  O   LIG    1       -2.263   8.156   0.541  0.00  0.00    -0.390 OA
BRANCH   9  13
ATOM     13  C   LIG    1       -2.808  12.848   0.994  0.00  0.00    -0.020 A 
ATOM     14  C   LIG    1       -3.749  13.127   0.000  0.00  0.00    +0.070 A 
ATOM     15  C   LIG    1       -4.181  14.422  -0.192  0.00  0.00    +0.030 A 
ATOM     16  C   LIG    1       -3.686  15.445   0.597  0.00  0.00    +0.060 A 
ATOM     17  C   LIG    1       -2.753  15.178   1.584  0.00  0.00    +0.040 A 
ATOM     18  C   LIG    1       -2.316  13.885   1.791  0.00  0.00    -0.050 A 
ATOM     19 BR   LIG    1       -1.048  13.519   3.145  0.00  0.00    +0.000 Br
ENDBRANCH   9  13
ENDBRANCH   3   6
BRANCH   1  22
ATOM     20  C   LIG    1       -2.290   4.959  -0.067  0.00  0.00    +0.110 C 
ATOM     21  C   LIG    1       -0.943   4.810  -0.726  0.00  0.00    +0.530 C 
ATOM     22  N   LIG    1        0.169   5.233  -0.091  0.00  0.00    -0.490 N 
ATOM     23  O   LIG    1       -0.858   4.308  -1.827  0.00  0.00    -0.500 OA
BRANCH  22  24
ATOM     24  C   LIG    1        1.430   4.994  -0.652  0.00  0.00    +0.120 A 
ATOM     25  C   LIG    1        1.993   5.920  -1.519  0.00  0.00    -0.050 A 
ATOM     26  C   LIG    1        3.237   5.681  -2.070  0.00  0.00    +0.010 A 
ATOM     27  C   LIG    1        3.920   4.520  -1.760  0.00  0.00    +0.030 A 
ATOM     28  C   LIG    1        3.359   3.592  -0.901  0.00  0.00    +0.010 A 
ATOM     29  C   LIG    1        1.249   7.186  -1.857  0.00  0.00    +0.100 C 
ATOM     30  C   LIG    1        2.119   3.828  -0.342  0.00  0.00    -0.070 A 
ATOM     31  C   LIG    1        1.511   2.820   0.598  0.00  0.00    +0.100 C 
ENDBRANCH  22  24
ENDBRANCH   1  22
TORSDOF 4
