REMARK  Name = ZINCtV000002FZg0.0
REMARK                            x       y       z     vdW  Elec       q    Type
REMARK                         _______ _______ _______ _____ _____    ______ ____
ROOT
ATOM      1  C   LIG    1        1.208   2.965  -1.629  0.00  0.00    +0.070 C 
ENDROOT
BRANCH   1   2
ATOM      2  C   LIG    1        1.304   4.134  -0.646  0.00  0.00    +0.070 C 
BRANCH   2   5
ATOM      3  N   LIG    1        3.021   5.740   0.123  0.00  0.00    -0.680 N 
ATOM      4  H   LIG    1        2.338   6.162   0.668  0.00  0.00    +0.410 HD
ATOM      5  C   LIG    1        2.701   4.697  -0.668  0.00  0.00    +0.510 C 
ATOM      6  O   LIG    1        3.539   4.211  -1.399  0.00  0.00    -0.510 OA
BRANCH   3  11
ATOM      7  C   LIG    1        8.356   7.662   0.268  0.00  0.00    +0.090 C 
ATOM      8  C   LIG    1        6.939   7.151   0.230  0.00  0.00    -0.080 A 
ATOM      9  C   LIG    1        5.896   8.028  -0.007  0.00  0.00    +0.010 A 
ATOM     10  C   LIG    1        4.596   7.563  -0.043  0.00  0.00    -0.090 A 
ATOM     11  C   LIG    1        4.337   6.214   0.159  0.00  0.00    +0.130 A 
ATOM     12  C   LIG    1        5.386   5.337   0.403  0.00  0.00    -0.070 A 
ATOM     13  C   LIG    1        5.108   3.873   0.628  0.00  0.00    +0.090 C 
ATOM     14  C   LIG    1        3.460   8.519  -0.303  0.00  0.00    +0.090 C 
ATOM     15  C   LIG    1        6.684   5.807   0.432  0.00  0.00    +0.000 A 
ENDBRANCH   3  11
ENDBRANCH   2   5
ENDBRANCH   1   2
BRANCH   1  16
ATOM     16  C   LIG    1       -0.211   2.394  -1.606  0.00  0.00    +0.070 C 
BRANCH  16  17
ATOM     17  S   LIG    1       -0.323   1.008  -2.771  0.00  0.00    -0.230 S 
BRANCH  17  18
ATOM     18  C   LIG    1       -2.049   0.474  -2.604  0.00  0.00    +0.190 C 
BRANCH  18  19
ATOM     19  C   LIG    1       -2.305  -0.692  -3.525  0.00  0.00    +0.000 A 
ATOM     20  C   LIG    1       -2.150  -1.992  -3.218  0.00  0.00    +0.180 A 
ATOM     21  O   LIG    1       -2.483  -2.704  -4.314  0.00  0.00    -0.190 OA
ATOM     22  C   LIG    1       -2.837  -1.833  -5.275  0.00  0.00    +0.240 A 
ATOM     23  N   LIG    1       -2.734  -0.616  -4.794  0.00  0.00    -0.450 NA
BRANCH  22  24
ATOM     24  C   LIG    1       -3.274  -2.187  -6.641  0.00  0.00    -0.020 A 
ATOM     25  C   LIG    1       -3.621  -1.184  -7.548  0.00  0.00    +0.090 A 
ATOM     26  C   LIG    1       -4.022  -1.520  -8.824  0.00  0.00    +0.030 A 
ATOM     27  C   LIG    1       -4.093  -2.850  -9.203  0.00  0.00    -0.020 A 
ATOM     28  C   LIG    1       -3.756  -3.850  -8.306  0.00  0.00    +0.030 A 
ATOM     29 CL   LIG    1       -4.606  -3.265 -10.808  0.00  0.00    -0.060 Cl
ATOM     30  C   LIG    1       -3.348  -3.526  -7.029  0.00  0.00    +0.060 A 
ENDBRANCH  22  24
ENDBRANCH  18  19
ENDBRANCH  17  18
ENDBRANCH  16  17
ENDBRANCH   1  16
TORSDOF 8
