REMARK  Name = ZINCvU00000008xe.0
REMARK                            x       y       z     vdW  Elec       q    Type
REMARK                         _______ _______ _______ _____ _____    ______ ____
ROOT
ATOM      1  O   LIG    1       -3.160   0.992   2.392  0.00  0.00    -0.510 OA
ATOM      2  C   LIG    1       -2.338   1.627   1.759  0.00  0.00    +0.580 C 
ATOM      3  C   LIG    1       -1.434   2.565   2.448  0.00  0.00    -0.190 A 
ATOM      4  C   LIG    1       -1.362   2.626   3.837  0.00  0.00    +0.120 A 
ATOM      5  C   LIG    1       -0.494   3.515   4.436  0.00  0.00    -0.040 A 
ATOM      6  C   LIG    1        0.300   4.350   3.666  0.00  0.00    +0.070 A 
ATOM      7  C   LIG    1        0.229   4.310   2.286  0.00  0.00    -0.050 A 
ATOM      8  C   LIG    1       -0.641   3.428   1.670  0.00  0.00    +0.230 A 
ATOM      9  N   LIG    1       -0.771   3.371   0.290  0.00  0.00    -0.740 N 
ATOM     10  H   LIG    1       -0.605   4.159  -0.251  0.00  0.00    +0.420 HD
ATOM     11  C   LIG    1       -1.162   2.103  -0.336  0.00  0.00    +0.600 C 
ATOM     12  N   LIG    1       -2.247   1.479   0.423  0.00  0.00    -0.620 N 
ENDROOT
BRANCH  11  13
ATOM     13  C   LIG    1        0.025   1.174  -0.364  0.00  0.00    -0.030 A 
ATOM     14  C   LIG    1        1.310   1.546  -0.537  0.00  0.00    -0.010 A 
ATOM     15  C   LIG    1        2.087   0.374  -0.504  0.00  0.00    +0.000 A 
ATOM     16  C   LIG    1        1.225  -0.663  -0.309  0.00  0.00    +0.050 A 
ATOM     17  O   LIG    1       -0.023  -0.160  -0.227  0.00  0.00    -0.130 OA
BRANCH  16  18
ATOM     18  C   LIG    1        1.591  -2.083  -0.208  0.00  0.00    +0.170 A 
ATOM     19  N   LIG    1        0.754  -3.051  -0.023  0.00  0.00    -0.450 NA
ATOM     20  C   LIG    1        1.243  -4.301   0.048  0.00  0.00    +0.080 A 
ATOM     21  C   LIG    1        0.545  -5.513   0.243  0.00  0.00    +0.080 A 
ATOM     22  C   LIG    1        1.222  -6.705   0.288  0.00  0.00    +0.030 A 
ATOM     23  C   LIG    1        2.602  -6.740   0.144  0.00  0.00    +0.050 A 
ATOM     24  C   LIG    1        3.305  -5.571  -0.047  0.00  0.00    +0.060 A 
ATOM     25  C   LIG    1        2.635  -4.351  -0.096  0.00  0.00    -0.170 A 
ATOM     26  S   LIG    1        3.230  -2.709  -0.328  0.00  0.00    +0.110 S 
ENDBRANCH  16  18
ENDBRANCH  11  13
BRANCH  12  27
ATOM     27  C   LIG    1       -3.252   0.681  -0.283  0.00  0.00    +0.310 C 
BRANCH  27  28
ATOM     28  C   LIG    1       -4.346   1.602  -0.826  0.00  0.00    +0.130 C 
ATOM     29  C   LIG    1       -5.407   0.780  -1.601  0.00  0.00    +0.020 C 
ATOM     30  C   LIG    1       -6.646   1.708  -1.479  0.00  0.00    +0.010 C 
ATOM     31  C   LIG    1       -6.451   2.333  -0.081  0.00  0.00    +0.190 C 
ATOM     32  O   LIG    1       -5.064   2.215   0.257  0.00  0.00    -0.370 OA
ENDBRANCH  27  28
ENDBRANCH  12  27
TORSDOF 4
