REMARK  Name = ZINCpe00000zsp52.0
REMARK                            x       y       z     vdW  Elec       q    Type
REMARK                         _______ _______ _______ _____ _____    ______ ____
ROOT
ATOM      1  O   LIG    1        0.497  -3.970  -0.002  0.00  0.00    -0.500 OA
ATOM      2  C   LIG    1        0.149  -3.519  -1.076  0.00  0.00    +0.610 C 
ATOM      3  N   LIG    1       -0.669  -2.450  -1.125  0.00  0.00    -0.600 N 
ATOM      4  C   LIG    1       -1.271  -1.899   0.100  0.00  0.00    +0.290 C 
ATOM      5  C   LIG    1       -1.013  -0.388   0.129  0.00  0.00    +0.210 C 
ATOM      6  O   LIG    1       -1.448   0.187  -1.106  0.00  0.00    -0.350 OA
ATOM      7  C   LIG    1       -0.744  -0.292  -2.255  0.00  0.00    +0.150 C 
ATOM      8  C   LIG    1       -0.988  -1.798  -2.405  0.00  0.00    +0.270 C 
ENDROOT
BRANCH   2   9
ATOM      9  C   LIG    1        0.624  -4.143  -2.326  0.00  0.00    -0.090 A 
ATOM     10  C   LIG    1        1.554  -5.136  -2.443  0.00  0.00    +0.070 A 
ATOM     11  C   LIG    1        1.635  -5.360  -3.846  0.00  0.00    +0.050 A 
ATOM     12  N   LIG    1        0.792  -4.526  -4.401  0.00  0.00    -0.320 NA
ATOM     13  O   LIG    1        0.222  -3.850  -3.577  0.00  0.00    +0.130 OA
BRANCH  11  14
ATOM     14  C   LIG    1        2.502  -6.343  -4.541  0.00  0.00    -0.100 A 
ATOM     15  C   LIG    1        3.358  -7.165  -3.807  0.00  0.00    +0.160 A 
ATOM     16  C   LIG    1        4.160  -8.083  -4.460  0.00  0.00    -0.010 A 
ATOM     17  C   LIG    1        4.122  -8.180  -5.839  0.00  0.00    +0.110 A 
ATOM     18  C   LIG    1        3.280  -7.365  -6.573  0.00  0.00    -0.010 A 
ATOM     19  F   LIG    1        3.400  -7.068  -2.460  0.00  0.00    -0.120 F 
ATOM     20  C   LIG    1        2.469  -6.447  -5.932  0.00  0.00    +0.160 A 
ATOM     21  F   LIG    1        1.647  -5.651  -6.651  0.00  0.00    -0.110 F 
ENDBRANCH  11  14
ENDBRANCH   2   9
BRANCH   7  22
ATOM     22  C   LIG    1       -1.249   0.435  -3.503  0.00  0.00    +0.220 C 
BRANCH  22  23
ATOM     23  O   LIG    1       -0.917   1.822  -3.413  0.00  0.00    -0.560 OA
ATOM     24  H   LIG    1       -1.208   2.346  -4.173  0.00  0.00    +0.380 HD
ENDBRANCH  22  23
ENDBRANCH   7  22
BRANCH   5  25
ATOM     25  C   LIG    1        0.483  -0.129   0.314  0.00  0.00    +0.160 C 
BRANCH  25  26
ATOM     26  O   LIG    1        0.709   1.275   0.457  0.00  0.00    -0.560 OA
ATOM     27  H   LIG    1        1.638   1.514   0.579  0.00  0.00    +0.380 HD
ENDBRANCH  25  26
ENDBRANCH   5  25
TORSDOF 6
