REMARK  Name = ZINCvU000000051S.1
REMARK                            x       y       z     vdW  Elec       q    Type
REMARK                         _______ _______ _______ _____ _____    ______ ____
ROOT
ATOM      1  C   LIG    1       -3.487   2.593  -0.064  0.00  0.00    +0.010 A 
ATOM      2  N   LIG    1       -2.842   3.722   0.096  0.00  0.00    -0.180 NA
ATOM      3  N   LIG    1       -1.475   3.485  -0.095  0.00  0.00    -0.300 N 
ATOM      4  C   LIG    1       -1.321   2.160  -0.389  0.00  0.00    +0.160 A 
ATOM      5  C   LIG    1       -2.564   1.592  -0.370  0.00  0.00    +0.000 A 
ENDROOT
BRANCH   4   6
ATOM      6  C   LIG    1       -0.044   1.467  -0.670  0.00  0.00    -0.060 A 
ATOM      7  C   LIG    1        0.962   2.116  -1.387  0.00  0.00    +0.080 A 
ATOM      8  C   LIG    1        2.148   1.462  -1.651  0.00  0.00    +0.030 A 
ATOM      9  C   LIG    1        2.341   0.165  -1.206  0.00  0.00    -0.010 A 
ATOM     10  C   LIG    1        1.346  -0.483  -0.494  0.00  0.00    +0.040 A 
ATOM     11 CL   LIG    1        3.835  -0.651  -1.543  0.00  0.00    -0.060 Cl
ATOM     12  C   LIG    1        0.156   0.160  -0.224  0.00  0.00    +0.080 A 
ENDBRANCH   4   6
BRANCH   3  13
ATOM     13  C   LIG    1       -0.456   4.432  -0.005  0.00  0.00    +0.560 A 
ATOM     14  N   LIG    1        0.819   4.182  -0.062  0.00  0.00    -0.260 NA
ATOM     15  N   LIG    1        1.506   5.397   0.064  0.00  0.00    -0.450 N 
ATOM     16  H   LIG    1        2.469   5.516   0.054  0.00  0.00    +0.480 HD
ATOM     17  C   LIG    1        0.583   6.371   0.206  0.00  0.00    +0.430 A 
ATOM     18  S   LIG    1        0.898   8.042   0.402  0.00  0.00    -0.520 S 
ATOM     19  N   LIG    1       -0.632   5.788   0.165  0.00  0.00    -0.340 N 
BRANCH  19  20
ATOM     20  N   LIG    1       -1.862   6.449   0.276  0.00  0.00    -0.240 NA
ATOM     21  C   LIG    1       -1.905   7.746   0.276  0.00  0.00    +0.360 C 
BRANCH  21  22
ATOM     22  C   LIG    1       -3.205   8.441   0.296  0.00  0.00    -0.060 A 
ATOM     23  C   LIG    1       -4.393   7.706   0.309  0.00  0.00    +0.090 A 
ATOM     24  C   LIG    1       -5.606   8.362   0.332  0.00  0.00    +0.040 A 
ATOM     25  C   LIG    1       -5.648   9.746   0.332  0.00  0.00    -0.060 A 
ATOM     26  C   LIG    1       -4.474  10.480   0.314  0.00  0.00    +0.040 A 
ATOM     27 BR   LIG    1       -7.316  10.637   0.357  0.00  0.00    -0.040 Br
ATOM     28  C   LIG    1       -3.255   9.837   0.295  0.00  0.00    +0.090 A 
ENDBRANCH  21  22
ENDBRANCH  19  20
ENDBRANCH   3  13
BRANCH   1  30
ATOM     29  F   LIG    1       -5.297   2.086   1.384  0.00  0.00    -0.160 F 
ATOM     30  C   LIG    1       -4.977   2.406   0.061  0.00  0.00    +0.560 C 
ATOM     31  F   LIG    1       -5.389   1.369  -0.783  0.00  0.00    -0.160 F 
ATOM     32  F   LIG    1       -5.627   3.590  -0.303  0.00  0.00    -0.160 F 
ENDBRANCH   1  30
TORSDOF 5
