REMARK  Name = ZINCvU0000000FNX.0
REMARK                            x       y       z     vdW  Elec       q    Type
REMARK                         _______ _______ _______ _____ _____    ______ ____
ROOT
ATOM      1  S   LIG    1       -0.662   4.665   0.885  0.00  0.00    +0.040 S 
ENDROOT
BRANCH   1   2
ATOM      2  C   LIG    1       -0.627   4.282  -0.835  0.00  0.00    +0.160 A 
ATOM      3  N   LIG    1       -0.131   5.035  -1.791  0.00  0.00    -0.280 NA
ATOM      4  N   LIG    1       -0.275   4.455  -2.929  0.00  0.00    -0.250 NA
ATOM      5  C   LIG    1       -0.867   3.295  -2.769  0.00  0.00    +0.230 A 
ATOM      6  N   LIG    1       -1.107   3.146  -1.422  0.00  0.00    -0.430 N 
BRANCH   5   7
ATOM      7  C   LIG    1       -1.210   2.329  -3.834  0.00  0.00    -0.060 A 
ATOM      8  C   LIG    1       -0.765   1.008  -3.752  0.00  0.00    +0.060 A 
ATOM      9  C   LIG    1       -1.089   0.112  -4.750  0.00  0.00    +0.010 A 
ATOM     10  C   LIG    1       -1.853   0.518  -5.830  0.00  0.00    +0.070 A 
ATOM     11  C   LIG    1       -2.298   1.825  -5.918  0.00  0.00    +0.000 A 
ATOM     12  C   LIG    1       -1.986   2.732  -4.925  0.00  0.00    +0.140 A 
ATOM     13  F   LIG    1       -2.424   4.007  -5.009  0.00  0.00    -0.120 F 
ENDBRANCH   5   7
BRANCH   6  14
ATOM     14  C   LIG    1       -1.750   2.010  -0.757  0.00  0.00    +0.190 C 
ATOM     15  C   LIG    1       -1.015   1.374   0.424  0.00  0.00    +0.060 C 
ATOM     16  C   LIG    1       -2.264   2.224   0.669  0.00  0.00    +0.070 C 
ENDBRANCH   6  14
ENDBRANCH   1   2
BRANCH   1  17
ATOM     17  C   LIG    1        0.137   6.289   0.862  0.00  0.00    +0.190 C 
BRANCH  17  20
ATOM     18  C   LIG    1        1.204   7.116   4.241  0.00  0.00    +0.030 A 
ATOM     19  N   LIG    1        1.246   6.600   3.059  0.00  0.00    -0.440 NA
ATOM     20  C   LIG    1        0.219   6.829   2.266  0.00  0.00    +0.070 A 
ATOM     21  C   LIG    1       -0.742   7.583   2.808  0.00  0.00    -0.040 A 
ATOM     22  S   LIG    1       -0.249   7.993   4.449  0.00  0.00    +0.180 S 
BRANCH  18  23
ATOM     23  C   LIG    1        2.279   6.966   5.286  0.00  0.00    +0.330 C 
BRANCH  23  24
ATOM     24  O   LIG    1        3.223   8.030   5.154  0.00  0.00    -0.300 OA
BRANCH  24  29
ATOM     25  F   LIG    1        7.418   8.086   8.676  0.00  0.00    -0.140 F 
ATOM     26  C   LIG    1        6.384   8.072   7.807  0.00  0.00    +0.060 A 
ATOM     27  C   LIG    1        6.276   9.061   6.844  0.00  0.00    +0.030 A 
ATOM     28  C   LIG    1        5.218   9.048   5.955  0.00  0.00    +0.020 A 
ATOM     29  C   LIG    1        4.265   8.044   6.027  0.00  0.00    +0.120 A 
ATOM     30  C   LIG    1        4.371   7.056   6.996  0.00  0.00    -0.040 A 
ATOM     31  C   LIG    1        5.432   7.068   7.880  0.00  0.00    +0.030 A 
ENDBRANCH  24  29
ENDBRANCH  23  24
ENDBRANCH  18  23
ENDBRANCH  17  20
ENDBRANCH   1  17
TORSDOF 8
