REMARK  Name = ZINCpk00000y6xeh.0
REMARK                            x       y       z     vdW  Elec       q    Type
REMARK                         _______ _______ _______ _____ _____    ______ ____
ROOT
ATOM      1  C   LIG    1        1.443   1.585   2.286  0.00  0.00    +0.610 C 
ATOM      2  N   LIG    1        2.165   1.665   3.421  0.00  0.00    -0.610 N 
ATOM      3  C   LIG    1        1.617   1.861   4.776  0.00  0.00    +0.220 C 
ATOM      4  C   LIG    1        2.777   2.490   5.586  0.00  0.00    +0.170 C 
ATOM      5  C   LIG    1        4.006   1.745   5.001  0.00  0.00    +0.070 C 
ATOM      6  C   LIG    1        3.629   1.567   3.515  0.00  0.00    +0.280 C 
ATOM      7  O   LIG    1        1.994   1.329   1.232  0.00  0.00    -0.500 OA
ENDROOT
BRANCH   1  13
ATOM      8  C   LIG    1       -2.563   4.596   2.424  0.00  0.00    +0.170 C 
ATOM      9  C   LIG    1       -1.943   3.223   2.388  0.00  0.00    +0.060 A 
ATOM     10  N   LIG    1       -2.710   2.167   2.387  0.00  0.00    -0.200 NA
ATOM     11  N   LIG    1       -2.250   0.970   2.362  0.00  0.00    -0.340 N 
ATOM     12  C   LIG    1       -0.928   0.716   2.329  0.00  0.00    +0.500 A 
ATOM     13  C   LIG    1       -0.014   1.806   2.321  0.00  0.00    -0.210 A 
ATOM     14  O   LIG    1       -0.520  -0.433   2.307  0.00  0.00    -0.510 OA
ATOM     15  C   LIG    1       -3.190  -0.153   2.371  0.00  0.00    +0.360 C 
ATOM     16  C   LIG    1       -0.549   3.092   2.349  0.00  0.00    +0.010 A 
ATOM     17  C   LIG    1        0.344   4.306   2.342  0.00  0.00    +0.140 C 
ENDBRANCH   1  13
BRANCH   6  18
ATOM     18  C   LIG    1        4.084   0.215   3.027  0.00  0.00    -0.100 A 
ATOM     19  C   LIG    1        3.343  -0.913   3.327  0.00  0.00    +0.070 A 
ATOM     20  C   LIG    1        3.757  -2.152   2.875  0.00  0.00    -0.020 A 
ATOM     21  C   LIG    1        4.919  -2.264   2.131  0.00  0.00    +0.100 A 
ATOM     22  C   LIG    1        5.663  -1.134   1.836  0.00  0.00    -0.010 A 
ATOM     23  F   LIG    1        5.327  -3.475   1.693  0.00  0.00    -0.140 F 
ATOM     24  C   LIG    1        5.244   0.104   2.284  0.00  0.00    +0.060 A 
ENDBRANCH   6  18
BRANCH   4  25
ATOM     25  O   LIG    1        2.632   2.221   6.982  0.00  0.00    -0.550 OA
ATOM     26  H   LIG    1        1.825   2.585   7.371  0.00  0.00    +0.380 HD
ENDBRANCH   4  25
TORSDOF 3
