REMARK  Name = ZINCrg000000sAR9.0
REMARK                            x       y       z     vdW  Elec       q    Type
REMARK                         _______ _______ _______ _____ _____    ______ ____
ROOT
ATOM      1  S   LIG    1       -1.514  -0.902   0.011  0.00  0.00    +2.700 S 
ATOM      2  O   LIG    1       -2.491  -0.034   0.569  0.00  0.00    -0.940 OA
ATOM      3  O   LIG    1       -1.218  -2.184   0.546  0.00  0.00    -0.940 OA
ENDROOT
BRANCH   1  10
ATOM      4  C   LIG    1        4.181   3.218  -0.021  0.00  0.00    +0.370 C 
ATOM      5  N   LIG    1        3.708   1.832  -0.023  0.00  0.00    -0.550 N 
ATOM      6  C   LIG    1        4.479   0.727  -0.036  0.00  0.00    +0.640 A 
ATOM      7  O   LIG    1        3.697  -0.364  -0.035  0.00  0.00    -0.230 OA
ATOM      8  C   LIG    1        2.397   0.019  -0.021  0.00  0.00    +0.010 A 
ATOM      9  C   LIG    1        1.204  -0.685  -0.013  0.00  0.00    +0.190 A 
ATOM     10  C   LIG    1        0.002  -0.004   0.002  0.00  0.00    -0.680 A 
ATOM     11  C   LIG    1       -0.017   1.379   0.010  0.00  0.00    +0.160 A 
ATOM     12  C   LIG    1        1.168   2.090   0.002  0.00  0.00    +0.030 A 
ATOM     13  O   LIG    1        5.695   0.719  -0.047  0.00  0.00    -0.470 OA
ATOM     14  C   LIG    1        2.377   1.414  -0.013  0.00  0.00    +0.130 A 
ENDBRANCH   1  10
BRANCH   1  15
ATOM     15  N   LIG    1       -1.950  -1.143  -1.568  0.00  0.00    -1.000 NA
ATOM     16  C   LIG    1       -2.797  -0.170  -2.274  0.00  0.00    +0.320 C 
ATOM     17  C   LIG    1       -2.111   0.193  -3.601  0.00  0.00    +0.170 C 
ATOM     18  N   LIG    1       -1.823  -1.038  -4.350  0.00  0.00    -0.520 NA
ATOM     19  C   LIG    1       -0.876  -1.894  -3.623  0.00  0.00    +0.170 C 
ATOM     20  C   LIG    1       -1.506  -2.339  -2.300  0.00  0.00    +0.310 C 
BRANCH  18  21
ATOM     21  C   LIG    1       -1.328  -0.730  -5.698  0.00  0.00    +0.250 C 
BRANCH  21  22
ATOM     22  C   LIG    1       -2.192   0.337  -6.319  0.00  0.00    +0.130 A 
ATOM     23  C   LIG    1       -1.810   1.662  -6.232  0.00  0.00    -0.040 A 
ATOM     24  C   LIG    1       -2.612   2.636  -6.807  0.00  0.00    +0.070 A 
ATOM     25  C   LIG    1       -3.773   2.239  -7.451  0.00  0.00    -0.030 A 
ATOM     26  C   LIG    1       -4.091   0.894  -7.498  0.00  0.00    +0.260 A 
ATOM     27  N   LIG    1       -3.301  -0.005  -6.945  0.00  0.00    -0.460 NA
ENDBRANCH  21  22
ENDBRANCH  18  21
ENDBRANCH   1  15
TORSDOF 4
