REMARK  Name = ZINCpe00000R96pM.0
REMARK                            x       y       z     vdW  Elec       q    Type
REMARK                         _______ _______ _______ _____ _____    ______ ____
ROOT
ATOM      1  N   LIG    1        6.276   0.752   0.546  0.00  0.00    -0.750 N 
ATOM      2  H   LIG    1        7.232   0.761   0.713  0.00  0.00    +0.400 HD
ATOM      3  C   LIG    1        5.413   0.634   1.574  0.00  0.00    +0.710 C 
ATOM      4  N   LIG    1        5.877   0.427   2.823  0.00  0.00    -0.630 N 
ATOM      5  C   LIG    1        4.952   0.187   3.941  0.00  0.00    +0.320 C 
ATOM      6  C   LIG    1        5.398  -1.080   4.679  0.00  0.00    +0.190 C 
ATOM      7  N   LIG    1        6.811  -0.950   5.058  0.00  0.00    -0.530 NA
ATOM      8  C   LIG    1        7.673  -0.843   3.873  0.00  0.00    +0.270 C 
ATOM      9  C   LIG    1        7.231  -2.066   5.915  0.00  0.00    +0.210 C 
ATOM     10  C   LIG    1        7.321   0.428   3.102  0.00  0.00    +0.300 C 
ATOM     11  O   LIG    1        4.216   0.715   1.376  0.00  0.00    -0.580 OA
ENDROOT
BRANCH   8  12
ATOM     12  C   LIG    1        9.116  -0.788   4.305  0.00  0.00    +0.180 A 
ATOM     13  N   LIG    1       10.114  -1.458   3.781  0.00  0.00    -0.470 NA
ATOM     14  C   LIG    1       11.203  -1.092   4.480  0.00  0.00    +0.200 A 
ATOM     15  N   LIG    1       10.818  -0.240   5.382  0.00  0.00    -0.380 NA
ATOM     16  O   LIG    1        9.623  -0.051   5.298  0.00  0.00    +0.100 OA
BRANCH  14  17
ATOM     17  C   LIG    1       12.610  -1.585   4.262  0.00  0.00    +0.060 C 
ATOM     18  C   LIG    1       13.664  -1.198   5.302  0.00  0.00    +0.050 C 
ATOM     19  C   LIG    1       13.678  -0.543   3.918  0.00  0.00    +0.060 C 
ENDBRANCH  14  17
ENDBRANCH   8  12
BRANCH   1  20
ATOM     20  C   LIG    1        5.772   0.865  -0.825  0.00  0.00    +0.390 C 
BRANCH  20  26
ATOM     21  C   LIG    1        7.305   3.481  -1.627  0.00  0.00    +0.330 C 
ATOM     22  N   LIG    1        7.593   2.133  -2.121  0.00  0.00    -0.450 N 
ATOM     23  C   LIG    1        8.560   1.791  -3.000  0.00  0.00    +0.400 A 
ATOM     24  N   LIG    1        8.509   0.502  -3.197  0.00  0.00    -0.490 NA
ATOM     25  C   LIG    1        7.518  -0.020  -2.459  0.00  0.00    +0.180 A 
ATOM     26  C   LIG    1        6.932   0.984  -1.779  0.00  0.00    -0.060 A 
ENDBRANCH  20  26
ENDBRANCH   1  20
TORSDOF 4
