REMARK  Name = ZINCnE000008Jbko.0
REMARK                            x       y       z     vdW  Elec       q    Type
REMARK                         _______ _______ _______ _____ _____    ______ ____
ROOT
ATOM      1  C   LIG    1       -0.561   8.496   0.473  0.00  0.00    +0.120 A 
ATOM      2  C   LIG    1       -1.677   7.679   0.595  0.00  0.00    -0.050 A 
ATOM      3  C   LIG    1       -1.558   6.316   0.433  0.00  0.00    +0.080 A 
ATOM      4  C   LIG    1       -0.310   5.751   0.156  0.00  0.00    -0.110 A 
ATOM      5  C   LIG    1        0.815   6.574   0.033  0.00  0.00    +0.020 A 
ATOM      6  C   LIG    1        0.687   7.940   0.191  0.00  0.00    +0.080 A 
ENDROOT
BRANCH   4   7
ATOM      7  C   LIG    1       -0.179   4.292  -0.012  0.00  0.00    +0.480 C 
ATOM      8  O   LIG    1        0.917   3.796  -0.186  0.00  0.00    -0.460 OA
BRANCH   7   9
ATOM      9  C   LIG    1       -1.382   3.432   0.032  0.00  0.00    -0.120 A 
ATOM     10  C   LIG    1       -1.920   2.920  -1.145  0.00  0.00    +0.010 A 
ATOM     11  C   LIG    1       -3.048   2.122  -1.100  0.00  0.00    -0.010 A 
ATOM     12  C   LIG    1       -3.646   1.822   0.111  0.00  0.00    -0.010 A 
ATOM     13  C   LIG    1       -3.123   2.316   1.291  0.00  0.00    +0.040 A 
ATOM     14  C   LIG    1       -1.987   3.121   1.266  0.00  0.00    -0.110 A 
BRANCH  14  15
ATOM     15  C   LIG    1       -1.424   3.651   2.524  0.00  0.00    +0.520 C 
ATOM     16  O   LIG    1       -0.365   4.263   2.510  0.00  0.00    -0.660 OA
ATOM     17  O   LIG    1       -2.014   3.475   3.580  0.00  0.00    -0.680 OA
ENDBRANCH  14  15
ENDBRANCH   7   9
ENDBRANCH   4   7
BRANCH   1  18
ATOM     18  O   LIG    1       -0.684   9.839   0.628  0.00  0.00    -0.300 OA
BRANCH  18  20
ATOM     19  C   LIG    1       -1.933  11.864   1.055  0.00  0.00    +0.060 C 
ATOM     20  C   LIG    1       -1.991  10.341   0.915  0.00  0.00    +0.170 C 
ENDBRANCH  18  20
ENDBRANCH   1  18
BRANCH   6  21
ATOM     21  O   LIG    1        1.778   8.743   0.072  0.00  0.00    -0.310 OA
BRANCH  21  22
ATOM     22  C   LIG    1        3.024   8.106  -0.217  0.00  0.00    +0.170 C 
ATOM     23  C   LIG    1        4.127   9.162  -0.313  0.00  0.00    +0.050 C 
ENDBRANCH  21  22
ENDBRANCH   6  21
TORSDOF 7
