REMARK  Name = ZINCrH000004vFKX.0
REMARK                            x       y       z     vdW  Elec       q    Type
REMARK                         _______ _______ _______ _____ _____    ______ ____
ROOT
ATOM      1  O   LIG    1        1.981  -7.513   2.247  0.00  0.00    -0.540 OA
ATOM      2  C   LIG    1        1.901  -7.245   1.062  0.00  0.00    +0.610 C 
ATOM      3  N   LIG    1        2.330  -6.049   0.611  0.00  0.00    -0.600 N 
ATOM      4  C   LIG    1        2.772  -5.010   1.550  0.00  0.00    +0.300 C 
ATOM      5  C   LIG    1        1.994  -3.722   1.263  0.00  0.00    +0.030 C 
ATOM      6  C   LIG    1        2.160  -3.348  -0.212  0.00  0.00    +0.270 C 
ATOM      7  C   LIG    1        1.589  -4.464  -1.090  0.00  0.00    +0.030 C 
ATOM      8  C   LIG    1        2.363  -5.760  -0.829  0.00  0.00    +0.300 C 
ENDROOT
BRANCH   2   9
ATOM      9  C   LIG    1        1.340  -8.220   0.128  0.00  0.00    -0.060 A 
ATOM     10  C   LIG    1        0.968  -9.538   0.423  0.00  0.00    +0.110 A 
ATOM     11  C   LIG    1        0.986 -10.308   1.595  0.00  0.00    +0.090 A 
ATOM     12  C   LIG    1        0.536 -11.594   1.552  0.00  0.00    +0.060 A 
ATOM     13  C   LIG    1        0.060 -12.123   0.341  0.00  0.00    +0.040 A 
ATOM     14  C   LIG    1        0.046 -11.366  -0.777  0.00  0.00    +0.230 A 
ATOM     15  N   LIG    1        0.493 -10.075  -0.748  0.00  0.00    -0.340 N 
ATOM     16  C   LIG    1        0.590  -9.108  -1.704  0.00  0.00    +0.150 A 
ATOM     17 BR   LIG    1        0.080  -9.312  -3.513  0.00  0.00    +0.080 Br
ATOM     18  N   LIG    1        1.087  -8.023  -1.183  0.00  0.00    -0.380 NA
ENDBRANCH   2   9
BRANCH   6  19
ATOM     19  N   LIG    1        1.445  -2.099  -0.483  0.00  0.00    -0.340 N 
ATOM     20  C   LIG    1        0.134  -1.984  -0.783  0.00  0.00    +0.250 A 
ATOM     21  C   LIG    1       -0.136  -0.669  -0.956  0.00  0.00    -0.070 A 
ATOM     22  C   LIG    1        1.052   0.043  -0.762  0.00  0.00    -0.020 A 
ATOM     23  N   LIG    1        2.000  -0.813  -0.475  0.00  0.00    -0.240 NA
BRANCH  22  24
ATOM     24  C   LIG    1        1.213   1.538  -0.861  0.00  0.00    +0.560 C 
ATOM     25  F   LIG    1        0.464   2.155   0.147  0.00  0.00    -0.170 F 
ATOM     26  F   LIG    1        0.760   1.974  -2.111  0.00  0.00    -0.170 F 
ATOM     27  F   LIG    1        2.562   1.874  -0.710  0.00  0.00    -0.170 F 
ENDBRANCH  22  24
ENDBRANCH   6  19
TORSDOF 3
