REMARK  Name = ZINCpe00000VVGtB.1
REMARK                            x       y       z     vdW  Elec       q    Type
REMARK                         _______ _______ _______ _____ _____    ______ ____
ROOT
ATOM      1  C   LIG    1       -3.795  -2.944   2.582  0.00  0.00    +0.590 C 
ATOM      2  N   LIG    1       -3.071  -2.141   1.777  0.00  0.00    -0.590 N 
ATOM      3  C   LIG    1       -2.282  -2.703   0.672  0.00  0.00    +0.280 C 
ATOM      4  C   LIG    1       -0.836  -2.213   0.801  0.00  0.00    +0.020 C 
ATOM      5  C   LIG    1       -0.823  -0.684   0.868  0.00  0.00    -0.010 C 
ATOM      6  C   LIG    1       -1.602  -0.220   2.101  0.00  0.00    +0.040 C 
ATOM      7  C   LIG    1       -3.056  -0.687   1.987  0.00  0.00    +0.280 C 
ATOM      8  O   LIG    1       -4.331  -2.487   3.573  0.00  0.00    -0.520 OA
ENDROOT
BRANCH   1  11
ATOM      9  N   LIG    1       -3.606  -6.076   0.779  0.00  0.00    -0.340 N 
ATOM     10  N   LIG    1       -3.511  -4.837   1.104  0.00  0.00    -0.170 NA
ATOM     11  C   LIG    1       -3.936  -4.380   2.260  0.00  0.00    +0.020 A 
ATOM     12  C   LIG    1       -4.534  -5.258   3.197  0.00  0.00    +0.130 A 
ATOM     13  C   LIG    1       -4.648  -6.575   2.865  0.00  0.00    -0.010 A 
ATOM     14  C   LIG    1       -4.160  -6.984   1.604  0.00  0.00    +0.480 A 
ATOM     15  O   LIG    1       -4.241  -8.153   1.264  0.00  0.00    -0.520 OA
BRANCH   9  16
ATOM     16  C   LIG    1       -3.104  -6.511  -0.526  0.00  0.00    +0.320 C 
BRANCH  16  18
ATOM     17  C   LIG    1       -3.697  -6.859  -2.928  0.00  0.00    +0.030 C 
ATOM     18  C   LIG    1       -4.222  -6.404  -1.565  0.00  0.00    +0.000 C 
ENDBRANCH  16  18
ENDBRANCH   9  16
ENDBRANCH   1  11
BRANCH   5  19
ATOM     19  C   LIG    1        0.622  -0.190   0.961  0.00  0.00    +0.180 C 
BRANCH  19  20
ATOM     20  N   LIG    1        0.642   1.278   0.905  0.00  0.00    -0.530 NA
ATOM     21  C   LIG    1        0.198   1.761  -0.411  0.00  0.00    +0.140 C 
ATOM     22  C   LIG    1        0.177   3.292  -0.406  0.00  0.00    +0.220 C 
ATOM     23  O   LIG    1        1.476   3.780  -0.060  0.00  0.00    -0.390 OA
ATOM     24  C   LIG    1        1.939   3.330   1.216  0.00  0.00    +0.220 C 
ATOM     25  C   LIG    1        1.978   1.799   1.228  0.00  0.00    +0.150 C 
ENDBRANCH  19  20
ENDBRANCH   5  19
TORSDOF 5
