REMARK  Name = ZINCpe00000VVGTb.0
REMARK                            x       y       z     vdW  Elec       q    Type
REMARK                         _______ _______ _______ _____ _____    ______ ____
ROOT
ATOM      1  N   LIG    1        0.519   8.864   2.054  0.00  0.00    -0.740 N 
ATOM      2  H   LIG    1        0.790   9.385   1.282  0.00  0.00    +0.400 HD
ATOM      3  C   LIG    1        0.718   9.347   3.297  0.00  0.00    +0.710 C 
ATOM      4  N   LIG    1        1.383  10.507   3.471  0.00  0.00    -0.630 N 
ATOM      5  C   LIG    1        1.802  11.310   2.314  0.00  0.00    +0.270 C 
ATOM      6  C   LIG    1        1.271  12.740   2.494  0.00  0.00    +0.010 C 
ATOM      7  C   LIG    1        1.744  13.287   3.844  0.00  0.00    +0.240 C 
ATOM      8  C   LIG    1        1.182  12.420   4.972  0.00  0.00    +0.010 C 
ATOM      9  C   LIG    1        1.707  10.989   4.820  0.00  0.00    +0.300 C 
ATOM     10  O   LIG    1        0.297   8.737   4.261  0.00  0.00    -0.580 OA
ENDROOT
BRANCH   1  15
ATOM     11  C   LIG    1       -0.002   3.073   1.223  0.00  0.00    +0.220 A 
ATOM     12  N   LIG    1        0.853   3.893   1.782  0.00  0.00    -0.310 NA
ATOM     13  N   LIG    1        0.376   5.186   1.549  0.00  0.00    -0.370 N 
ATOM     14  C   LIG    1        0.965   6.458   1.966  0.00  0.00    +0.310 C 
ATOM     15  C   LIG    1       -0.105   7.552   1.870  0.00  0.00    +0.260 C 
ATOM     16  C   LIG    1       -0.774   7.494   0.493  0.00  0.00    +0.040 C 
ATOM     17  C   LIG    1       -1.617   6.216   0.393  0.00  0.00    +0.180 C 
ATOM     18  C   LIG    1       -0.769   5.055   0.852  0.00  0.00    +0.270 A 
ATOM     19  N   LIG    1       -0.984   3.783   0.664  0.00  0.00    -0.530 NA
BRANCH  11  21
ATOM     20  C   LIG    1        0.883   1.118  -0.020  0.00  0.00    +0.050 C 
ATOM     21  C   LIG    1        0.103   1.569   1.217  0.00  0.00    +0.150 C 
ENDBRANCH  11  21
ENDBRANCH   1  15
BRANCH   7  22
ATOM     22  N   LIG    1        1.270  14.664   4.005  0.00  0.00    -0.620 N 
ATOM     23  C   LIG    1        2.156  15.667   4.165  0.00  0.00    +0.510 C 
ATOM     24  O   LIG    1        3.345  15.446   4.076  0.00  0.00    -0.540 OA
ATOM     25  C   LIG    1        1.669  17.063   4.456  0.00  0.00    +0.100 C 
ATOM     26  C   LIG    1       -0.167  14.951   3.991  0.00  0.00    +0.280 C 
ENDBRANCH   7  22
TORSDOF 3
