REMARK  Name = ZINCvU00000006CC.0
REMARK                            x       y       z     vdW  Elec       q    Type
REMARK                         _______ _______ _______ _____ _____    ______ ____
ROOT
ATOM      1  C   LIG    1        2.545  -1.748   2.272  0.00  0.00    +0.220 C 
ENDROOT
BRANCH   1   2
ATOM      2  N   LIG    1        3.706  -2.546   1.856  0.00  0.00    -0.510 NA
ATOM      3  C   LIG    1        3.282  -3.772   1.166  0.00  0.00    +0.200 C 
ATOM      4  C   LIG    1        4.479  -4.361   0.409  0.00  0.00    +0.130 C 
ATOM      5  C   LIG    1        5.656  -4.414   1.361  0.00  0.00    -0.160 A 
ATOM      6  C   LIG    1        5.711  -3.742   2.528  0.00  0.00    -0.100 A 
ATOM      7  C   LIG    1        6.891  -3.947   3.234  0.00  0.00    +0.020 A 
ATOM      8  C   LIG    1        7.773  -4.761   2.659  0.00  0.00    -0.060 A 
ATOM      9  S   LIG    1        7.131  -5.338   1.127  0.00  0.00    +0.100 S 
ATOM     10  C   LIG    1        4.572  -2.851   3.003  0.00  0.00    +0.260 C 
BRANCH  10  11
ATOM     11  C   LIG    1        5.130  -1.571   3.570  0.00  0.00    -0.080 A 
ATOM     12  C   LIG    1        5.543  -0.561   2.721  0.00  0.00    +0.050 A 
ATOM     13  C   LIG    1        6.049   0.615   3.241  0.00  0.00    +0.000 A 
ATOM     14  C   LIG    1        6.153   0.777   4.611  0.00  0.00    +0.000 A 
ATOM     15  C   LIG    1        5.745  -0.235   5.459  0.00  0.00    +0.000 A 
ATOM     16  C   LIG    1        5.233  -1.409   4.939  0.00  0.00    +0.010 A 
ENDBRANCH  10  11
ENDBRANCH   1   2
BRANCH   1  18
ATOM     17  N   LIG    1        0.711  -0.489   1.189  0.00  0.00    -0.610 N 
ATOM     18  C   LIG    1        1.816  -1.249   1.051  0.00  0.00    +0.520 C 
ATOM     19  O   LIG    1        2.223  -1.530  -0.056  0.00  0.00    -0.510 OA
ATOM     20  C   LIG    1        0.218  -0.149   2.526  0.00  0.00    +0.300 C 
BRANCH  17  22
ATOM     21  C   LIG    1       -0.019   1.526   0.010  0.00  0.00    +0.070 C 
ATOM     22  C   LIG    1        0.002  -0.004   0.002  0.00  0.00    +0.350 C 
BRANCH  22  23
ATOM     23  C   LIG    1       -1.412  -0.526   0.013  0.00  0.00    +0.080 A 
ATOM     24  N   LIG    1       -2.002  -1.026  -1.006  0.00  0.00    -0.450 NA
ATOM     25  C   LIG    1       -3.269  -1.454  -0.852  0.00  0.00    +0.080 A 
ATOM     26  C   LIG    1       -4.143  -2.038  -1.790  0.00  0.00    +0.080 A 
ATOM     27  C   LIG    1       -5.403  -2.405  -1.425  0.00  0.00    +0.030 A 
ATOM     28  C   LIG    1       -5.850  -2.212  -0.126  0.00  0.00    +0.040 A 
ATOM     29  C   LIG    1       -5.019  -1.643   0.813  0.00  0.00    +0.060 A 
ATOM     30  C   LIG    1       -3.727  -1.262   0.457  0.00  0.00    -0.190 A 
ATOM     31  S   LIG    1       -2.423  -0.529   1.387  0.00  0.00    +0.110 S 
ENDBRANCH  22  23
ENDBRANCH  17  22
ENDBRANCH   1  18
TORSDOF 5
