REMARK  Name = ZINCnE000001DLy6.0
REMARK                            x       y       z     vdW  Elec       q    Type
REMARK                         _______ _______ _______ _____ _____    ______ ____
ROOT
ATOM      1  N   LIG    1        1.129  -1.553  -0.046  0.00  0.00    -0.680 N 
ATOM      2  H   LIG    1        1.859  -2.184  -0.146  0.00  0.00    +0.410 HD
ATOM      3  C   LIG    1       -0.133  -2.002   0.099  0.00  0.00    +0.720 C 
ATOM      4  N   LIG    1       -0.369  -3.323   0.224  0.00  0.00    -0.620 N 
ATOM      5  C   LIG    1        0.653  -4.380   0.220  0.00  0.00    +0.210 C 
ATOM      6  C   LIG    1       -0.083  -5.729   0.364  0.00  0.00    +0.060 C 
ATOM      7  C   LIG    1       -1.517  -5.397  -0.127  0.00  0.00    -0.140 C 
ATOM      8  C   LIG    1       -1.599  -5.449  -1.654  0.00  0.00    +0.030 C 
ATOM      9  C   LIG    1       -1.694  -3.947   0.395  0.00  0.00    +0.300 C 
ATOM     10  O   LIG    1       -1.060  -1.214   0.117  0.00  0.00    -0.580 OA
ENDROOT
BRANCH   1  14
ATOM     11  C   LIG    1        1.897   2.547  -0.065  0.00  0.00    +0.120 A 
ATOM     12  C   LIG    1        0.766   2.056   0.570  0.00  0.00    -0.040 A 
ATOM     13  C   LIG    1        0.511   0.698   0.577  0.00  0.00    +0.080 A 
ATOM     14  C   LIG    1        1.387  -0.175  -0.052  0.00  0.00    +0.160 A 
ATOM     15  C   LIG    1        2.521   0.317  -0.688  0.00  0.00    -0.040 A 
ATOM     16 CL   LIG    1        3.618  -0.774  -1.475  0.00  0.00    -0.060 Cl
ATOM     17  C   LIG    1        2.774   1.675  -0.693  0.00  0.00    +0.020 A 
BRANCH  11  18
ATOM     18  O   LIG    1        2.146   3.884  -0.070  0.00  0.00    -0.310 OA
BRANCH  18  20
ATOM     19  C   LIG    1        2.062   5.880   1.288  0.00  0.00    +0.060 C 
ATOM     20  C   LIG    1        1.272   4.710   0.700  0.00  0.00    +0.150 C 
ATOM     21  C   LIG    1        0.156   5.248  -0.198  0.00  0.00    +0.020 C 
ENDBRANCH  18  20
ENDBRANCH  11  18
ENDBRANCH   1  14
BRANCH   7  22
ATOM     22  C   LIG    1       -2.529  -6.322   0.498  0.00  0.00    +0.510 C 
ATOM     23  O   LIG    1       -2.210  -7.458   0.805  0.00  0.00    -0.690 OA
ATOM     24  O   LIG    1       -3.668  -5.934   0.697  0.00  0.00    -0.690 OA
ENDBRANCH   7  22
TORSDOF 4
